CHEMBL393927
     RDKit          3D

  0  0  0  0  0  0  0  0  0  0999 V3000
M  V30 BEGIN CTAB
M  V30 COUNTS 65 69 0 0 0
M  V30 BEGIN ATOM
M  V30 1 C 5.402509 -1.632564 5.449239 0
M  V30 2 C 4.965659 -0.229549 5.170629 0
M  V30 3 N 4.201691 -0.073072 3.947632 0
M  V30 4 C 5.033661 -0.294449 2.773736 0
M  V30 5 C 3.048809 -0.961033 3.932780 0
M  V30 6 C 2.310122 -0.698374 2.676284 0
M  V30 7 C 1.310771 0.269483 2.831574 0
M  V30 8 C 0.522786 0.627822 1.726062 0
M  V30 9 N 0.810632 -0.012677 0.579044 0
M  V30 10 C 0.176545 0.169718 -0.619368 0
M  V30 11 C -0.941409 1.066195 -0.910340 0
M  V30 12 C -1.075164 2.085781 -1.804435 0
M  V30 13 C -2.267034 2.786835 -1.883408 0
M  V30 14 N -3.289351 2.444510 -1.061697 0
M  V30 15 C -3.166078 1.436152 -0.171991 0
M  V30 16 N -4.243346 1.049229 0.708939 0
M  V30 17 C -5.095586 -0.081581 0.388841 0 CFG=1
M  V30 18 C -5.827806 0.079039 -0.911071 0
M  V30 19 C -4.341826 -1.362906 0.491529 0
M  V30 20 C -4.361644 -2.423893 -0.398275 0
M  V30 21 C -3.605547 -3.549516 -0.170946 0
M  V30 22 C -2.796050 -3.683417 0.940394 0
M  V30 23 C -2.783764 -2.621658 1.819886 0
M  V30 24 C -3.534612 -1.455244 1.633574 0
M  V30 25 N -2.004379 0.762403 -0.104850 0
M  V30 26 C 0.775486 -0.686931 -1.552538 0
M  V30 27 C 0.352340 -0.752375 -2.945197 0
M  V30 28 C -0.947491 -1.126059 -3.286925 0
M  V30 29 C -1.348044 -1.185163 -4.623385 0
M  V30 30 C -0.473626 -0.877940 -5.620346 0
M  V30 31 F -0.879983 -0.943009 -6.909574 0
M  V30 32 C 0.844719 -0.495324 -5.351966 0
M  V30 33 C 1.195505 -0.451054 -4.020187 0
M  V30 34 N 1.755835 -1.362838 -0.884904 0
M  V30 35 C 1.758505 -0.941942 0.394983 0
M  V30 36 C 2.545737 -1.311600 1.467376 0
M  V30 37 H 5.677345 -2.224889 4.554953 0
M  V30 38 H 6.316459 -1.598203 6.074091 0
M  V30 39 H 4.656407 -2.181543 6.089050 0
M  V30 40 H 4.351603 0.144882 6.004568 0
M  V30 41 H 5.868558 0.435979 5.067406 0
M  V30 42 H 5.985716 0.264009 2.972516 0
M  V30 43 H 4.617061 0.157149 1.868139 0
M  V30 44 H 5.258588 -1.346733 2.613569 0
M  V30 45 H 2.444771 -0.851365 4.828885 0
M  V30 46 H 3.457219 -2.015491 3.945543 0
M  V30 47 H 1.073867 0.783842 3.740432 0
M  V30 48 H -0.262078 1.372200 1.800847 0
M  V30 49 H -0.193488 2.246543 -2.385479 0
M  V30 50 H -2.332416 3.585183 -2.602659 0
M  V30 51 H -4.212862 1.727562 1.505489 0
M  V30 52 H -5.887018 -0.135848 1.183852 0
M  V30 53 H -6.483684 -0.815172 -1.059116 0
M  V30 54 H -5.180755 0.290529 -1.770494 0
M  V30 55 H -6.505332 0.948766 -0.779158 0
M  V30 56 H -5.008318 -2.279617 -1.253749 0
M  V30 57 H -3.638111 -4.361374 -0.879779 0
M  V30 58 H -2.206734 -4.565135 1.112109 0
M  V30 59 H -2.134101 -2.757170 2.689319 0
M  V30 60 H -3.439300 -0.680036 2.407547 0
M  V30 61 H -1.672335 -1.376654 -2.531343 0
M  V30 62 H -2.380056 -1.483696 -4.819142 0
M  V30 63 H 1.570477 -0.243720 -6.112952 0
M  V30 64 H 2.220099 -0.157232 -3.764665 0
M  V30 65 H 3.328782 -2.053568 1.403911 0
M  V30 END ATOM
M  V30 BEGIN BOND
M  V30 1 1 1 2
M  V30 2 1 2 3
M  V30 3 1 3 4
M  V30 4 1 3 5
M  V30 5 1 5 6
M  V30 6 1 6 7
M  V30 7 2 7 8
M  V30 8 1 8 9
M  V30 9 1 9 10
M  V30 10 1 10 11
M  V30 11 2 11 12
M  V30 12 1 12 13
M  V30 13 2 13 14
M  V30 14 1 14 15
M  V30 15 1 15 16
M  V30 16 1 16 17
M  V30 17 1 17 18
M  V30 18 1 17 19
M  V30 19 2 19 20
M  V30 20 1 20 21
M  V30 21 2 21 22
M  V30 22 1 22 23
M  V30 23 2 23 24
M  V30 24 2 15 25
M  V30 25 2 10 26
M  V30 26 1 26 27
M  V30 27 2 27 28
M  V30 28 1 28 29
M  V30 29 2 29 30
M  V30 30 1 30 31
M  V30 31 1 30 32
M  V30 32 2 32 33
M  V30 33 1 26 34
M  V30 34 2 34 35
M  V30 35 1 35 36
M  V30 36 2 36 6
M  V30 37 1 35 9
M  V30 38 1 25 11
M  V30 39 1 33 27
M  V30 40 1 24 19
M  V30 41 1 1 37
M  V30 42 1 1 38
M  V30 43 1 1 39
M  V30 44 1 2 40
M  V30 45 1 2 41
M  V30 46 1 4 42
M  V30 47 1 4 43
M  V30 48 1 4 44
M  V30 49 1 5 45
M  V30 50 1 5 46
M  V30 51 1 7 47
M  V30 52 1 8 48
M  V30 53 1 12 49
M  V30 54 1 13 50
M  V30 55 1 16 51
M  V30 56 1 17 52 CFG=1
M  V30 57 1 18 53
M  V30 58 1 18 54
M  V30 59 1 18 55
M  V30 60 1 20 56
M  V30 61 1 21 57
M  V30 62 1 22 58
M  V30 63 1 23 59
M  V30 64 1 24 60
M  V30 65 1 28 61
M  V30 66 1 29 62
M  V30 67 1 32 63
M  V30 68 1 33 64
M  V30 69 1 36 65
M  V30 END BOND
M  V30 END CTAB
M  END
>  <Dataset>  (1) 
ChEMBL_Kinases

>  <Ligand_Instance>  (1) 
nan

>  <PDB_ID>  (1) 
nan

>  <Standardized_SMILES>  (1) 
CCN(C)Cc1ccn2c(-c3ccnc(N[C@@H](C)c4ccccc4)n3)c(-c3ccc(F)cc3)nc2c1

>  <Name>  (1) 
nan

>  <Pocket>  (1) 
nan

>  <ATP_Site>  (1) 
nan

>  <Peripheral>  (1) 
nan

>  <Num_H_Atoms_ProtBoundConf>  (1) 
nan

>  <Num_Resolved_Atoms>  (1) 
nan

>  <Num_Not_Resolved_Atoms>  (1) 
nan

$$$$
CHEMBL393902
     RDKit          3D

  0  0  0  0  0  0  0  0  0  0999 V3000
M  V30 BEGIN CTAB
M  V30 COUNTS 33 35 0 0 0
M  V30 BEGIN ATOM
M  V30 1 C 1.513724 -4.234701 4.484569 0
M  V30 2 C 0.981779 -3.793566 3.143416 0
M  V30 3 O -0.288862 -3.811521 3.142041 0
M  V30 4 N 1.818085 -3.410258 2.029718 0
M  V30 5 C 1.096247 -3.026726 0.858153 0
M  V30 6 C 0.691066 -3.870029 -0.185536 0
M  V30 7 C 0.001545 -3.308245 -1.238076 0
M  V30 8 C -0.307997 -1.965894 -1.312800 0
M  V30 9 C 0.101276 -1.155180 -0.272658 0
M  V30 10 C 0.794621 -1.670835 0.802109 0
M  V30 11 C -0.330039 0.211609 -0.559855 0
M  V30 12 C -0.199036 1.324051 0.130561 0
M  V30 13 C -0.645023 2.666768 -0.205803 0
M  V30 14 C -1.324914 3.358586 0.809742 0
M  V30 15 C -1.678054 4.620645 0.382606 0
M  V30 16 C -1.202863 4.689709 -0.909978 0
M  V30 17 N -0.607878 3.522442 -1.202799 0
M  V30 18 C -1.026424 0.167110 -1.842067 0
M  V30 19 O -1.567707 1.098721 -2.483137 0
M  V30 20 N -0.997565 -1.184274 -2.282308 0
M  V30 21 H 2.619253 -4.257098 4.494711 0
M  V30 22 H 1.027038 -5.139735 4.851465 0
M  V30 23 H 1.194366 -3.398615 5.173541 0
M  V30 24 H 2.828187 -3.486076 2.285834 0
M  V30 25 H 0.963163 -4.907001 -0.065730 0
M  V30 26 H -0.296806 -4.007476 -2.036166 0
M  V30 27 H 1.087223 -0.971735 1.592950 0
M  V30 28 H 0.332784 1.140196 1.081719 0
M  V30 29 H -1.609047 3.080918 1.836851 0
M  V30 30 H -2.190771 5.451856 0.823024 0
M  V30 31 H -1.268238 5.519644 -1.619476 0
M  V30 32 H -0.149780 3.294616 -2.091762 0
M  V30 33 H -1.418373 -1.529978 -3.179752 0
M  V30 END ATOM
M  V30 BEGIN BOND
M  V30 1 1 1 2
M  V30 2 2 2 3
M  V30 3 1 2 4
M  V30 4 1 4 5
M  V30 5 2 5 6
M  V30 6 1 6 7
M  V30 7 2 7 8
M  V30 8 1 8 9
M  V30 9 2 9 10
M  V30 10 1 9 11
M  V30 11 2 11 12
M  V30 12 1 12 13
M  V30 13 2 13 14
M  V30 14 1 14 15
M  V30 15 2 15 16
M  V30 16 1 16 17
M  V30 17 1 11 18
M  V30 18 2 18 19
M  V30 19 1 18 20
M  V30 20 1 10 5
M  V30 21 1 17 13
M  V30 22 1 20 8
M  V30 23 1 1 21
M  V30 24 1 1 22
M  V30 25 1 1 23
M  V30 26 1 4 24
M  V30 27 1 6 25
M  V30 28 1 7 26
M  V30 29 1 10 27
M  V30 30 1 12 28
M  V30 31 1 14 29
M  V30 32 1 15 30
M  V30 33 1 16 31
M  V30 34 1 17 32
M  V30 35 1 20 33
M  V30 END BOND
M  V30 END CTAB
M  END
>  <Dataset>  (2) 
ChEMBL_Kinases

>  <Ligand_Instance>  (2) 
nan

>  <PDB_ID>  (2) 
nan

>  <Standardized_SMILES>  (2) 
CC(=O)Nc1ccc2c(c1)/C(=C/c1ccc[nH]1)C(=O)N2

>  <Name>  (2) 
nan

>  <Pocket>  (2) 
nan

>  <ATP_Site>  (2) 
nan

>  <Peripheral>  (2) 
nan

>  <Num_H_Atoms_ProtBoundConf>  (2) 
nan

>  <Num_Resolved_Atoms>  (2) 
nan

>  <Num_Not_Resolved_Atoms>  (2) 
nan

$$$$
CHEMBL3938724
     RDKit          3D

  0  0  0  0  0  0  0  0  0  0999 V3000
M  V30 BEGIN CTAB
M  V30 COUNTS 48 51 0 0 0
M  V30 BEGIN ATOM
M  V30 1 O 0.152601 -5.104618 2.871101 0
M  V30 2 C 0.161655 -3.921936 2.479580 0
M  V30 3 C 1.005152 -3.426724 1.398228 0
M  V30 4 C 1.053216 -2.195973 0.948558 0
M  V30 5 C 1.905201 -1.724210 -0.134501 0
M  V30 6 C 2.781158 -2.525627 -0.832865 0
M  V30 7 N 3.569188 -2.094989 -1.832813 0
M  V30 8 C 3.561116 -0.811738 -2.238168 0
M  V30 9 N 4.198866 -0.081578 -3.170608 0
M  V30 10 C 3.731938 1.187376 -3.070029 0
M  V30 11 C 2.800846 1.273430 -2.080537 0
M  V30 12 C 2.167985 2.541393 -1.798370 0
M  V30 13 C 2.793447 3.776501 -1.687969 0
M  V30 14 C 2.102490 4.931275 -1.415827 0
M  V30 15 C 0.732834 4.912268 -1.237444 0
M  V30 16 C 0.090228 3.695507 -1.342704 0
M  V30 17 C 0.797218 2.530998 -1.618492 0
M  V30 18 C 2.689087 0.005712 -1.549267 0
M  V30 19 C 1.866322 -0.401408 -0.518961 0
M  V30 20 N -0.742199 -3.088629 3.198182 0
M  V30 21 C -1.470485 -3.776788 4.215892 0
M  V30 22 C -2.402333 -2.774622 4.910495 0
M  V30 23 C -3.354089 -2.185166 3.935450 0
M  V30 24 C -4.610823 -2.698824 3.618931 0
M  V30 25 C -5.378690 -2.035561 2.691191 0
M  V30 26 C -4.994751 -0.879819 2.037231 0
M  V30 27 C -3.746086 -0.426261 2.394408 0
M  V30 28 N -2.985442 -1.060240 3.296102 0
M  V30 29 H 1.647078 -4.161838 0.934117 0
M  V30 30 H 0.395356 -1.497386 1.441849 0
M  V30 31 H 2.860833 -3.573244 -0.581787 0
M  V30 32 H 4.895829 -0.563632 -3.776490 0
M  V30 33 H 4.133637 1.940785 -3.752079 0
M  V30 34 H 3.857880 3.771825 -1.829640 0
M  V30 35 H 2.614187 5.881117 -1.334989 0
M  V30 36 H 0.204782 5.832073 -1.023632 0
M  V30 37 H -0.982175 3.747367 -1.192592 0
M  V30 38 H 0.134461 1.665790 -1.666084 0
M  V30 39 H 1.203271 0.286816 -0.016663 0
M  V30 40 H -0.827363 -2.071470 2.963021 0
M  V30 41 H -0.834198 -4.186204 5.025531 0
M  V30 42 H -2.082948 -4.630326 3.860622 0
M  V30 43 H -1.828843 -1.959544 5.374987 0
M  V30 44 H -2.941010 -3.323987 5.728371 0
M  V30 45 H -4.897060 -3.590918 4.129369 0
M  V30 46 H -6.360461 -2.466607 2.466303 0
M  V30 47 H -5.604629 -0.379620 1.320362 0
M  V30 48 H -3.320251 0.472039 1.957353 0
M  V30 END ATOM
M  V30 BEGIN BOND
M  V30 1 2 1 2
M  V30 2 1 2 3
M  V30 3 2 3 4
M  V30 4 1 4 5
M  V30 5 2 5 6
M  V30 6 1 6 7
M  V30 7 2 7 8
M  V30 8 1 8 9
M  V30 9 1 9 10
M  V30 10 2 10 11
M  V30 11 1 11 12
M  V30 12 2 12 13
M  V30 13 1 13 14
M  V30 14 2 14 15
M  V30 15 1 15 16
M  V30 16 2 16 17
M  V30 17 1 11 18
M  V30 18 2 18 19
M  V30 19 1 2 20
M  V30 20 1 20 21
M  V30 21 1 21 22
M  V30 22 1 22 23
M  V30 23 2 23 24
M  V30 24 1 24 25
M  V30 25 2 25 26
M  V30 26 1 26 27
M  V30 27 2 27 28
M  V30 28 1 19 5
M  V30 29 1 28 23
M  V30 30 1 18 8
M  V30 31 1 17 12
M  V30 32 1 3 29
M  V30 33 1 4 30
M  V30 34 1 6 31
M  V30 35 1 9 32
M  V30 36 1 10 33
M  V30 37 1 13 34
M  V30 38 1 14 35
M  V30 39 1 15 36
M  V30 40 1 16 37
M  V30 41 1 17 38
M  V30 42 1 19 39
M  V30 43 1 20 40
M  V30 44 1 21 41
M  V30 45 1 21 42
M  V30 46 1 22 43
M  V30 47 1 22 44
M  V30 48 1 24 45
M  V30 49 1 25 46
M  V30 50 1 26 47
M  V30 51 1 27 48
M  V30 END BOND
M  V30 END CTAB
M  END
>  <Dataset>  (3) 
ChEMBL_Kinases

>  <Ligand_Instance>  (3) 
nan

>  <PDB_ID>  (3) 
nan

>  <Standardized_SMILES>  (3) 
O=C(/C=C/c1cnc2[nH]cc(-c3ccccc3)c2c1)NCCc1ccccn1

>  <Name>  (3) 
nan

>  <Pocket>  (3) 
nan

>  <ATP_Site>  (3) 
nan

>  <Peripheral>  (3) 
nan

>  <Num_H_Atoms_ProtBoundConf>  (3) 
nan

>  <Num_Resolved_Atoms>  (3) 
nan

>  <Num_Not_Resolved_Atoms>  (3) 
nan

$$$$
CHEMBL3938682
     RDKit          3D

  0  0  0  0  0  0  0  0  0  0999 V3000
M  V30 BEGIN CTAB
M  V30 COUNTS 52 56 0 0 0
M  V30 BEGIN ATOM
M  V30 1 C 4.860703 -6.627759 1.147019 0
M  V30 2 O 4.712979 -5.291251 0.702613 0
M  V30 3 C 3.480037 -4.688536 0.607169 0
M  V30 4 O 2.272547 -4.972698 0.813139 0
M  V30 5 N 3.550284 -3.353123 0.143485 0
M  V30 6 C 2.492977 -2.427324 -0.078633 0
M  V30 7 N 1.934493 -1.527791 0.767109 0
M  V30 8 C 0.956338 -0.845218 0.152405 0
M  V30 9 C 0.063614 0.158275 0.483876 0
M  V30 10 C -0.841045 0.621295 -0.480481 0
M  V30 11 C -1.721127 1.706035 0.044409 0
M  V30 12 O -2.682258 2.017393 -0.881085 0
M  V30 13 C -0.830005 2.828000 0.395735 0
M  V30 14 C -0.072406 3.505869 -0.542625 0
M  V30 15 C 0.750386 4.544717 -0.138175 0
M  V30 16 C 0.817201 4.908902 1.210820 0
M  V30 17 C 0.047698 4.204241 2.087344 0
M  V30 18 C -0.783547 3.166245 1.731294 0
M  V30 19 C -1.719316 2.219492 2.321635 0
M  V30 20 O -1.912593 2.265860 3.560673 0
M  V30 21 N -2.294451 1.353280 1.354533 0
M  V30 22 C -3.242936 0.288070 1.437326 0
M  V30 23 C -2.742438 -1.064191 1.617445 0
M  V30 24 C -2.667272 -1.822773 0.434551 0
M  V30 25 C -2.214923 -3.116674 0.311724 0
M  V30 26 C -1.782970 -3.769106 1.443079 0
M  V30 27 C -1.826140 -3.093176 2.641783 0
M  V30 28 C -2.292528 -1.802121 2.679053 0
M  V30 29 Br -2.385100 -0.915728 4.358320 0
M  V30 30 C -0.855047 0.085121 -1.770562 0
M  V30 31 C 0.038601 -0.915163 -2.092433 0
M  V30 32 C 0.922765 -1.358767 -1.129191 0
M  V30 33 N 1.856858 -2.319769 -1.267877 0
M  V30 34 H 3.891677 -6.915777 1.631066 0
M  V30 35 H 5.114036 -7.330583 0.356681 0
M  V30 36 H 5.589806 -6.614327 1.993679 0
M  V30 37 H 4.442894 -2.837552 -0.113291 0
M  V30 38 H 0.134007 0.516936 1.487245 0
M  V30 39 H -2.977241 2.952502 -0.869427 0
M  V30 40 H -0.031229 3.327510 -1.606191 0
M  V30 41 H 1.388647 5.144706 -0.792581 0
M  V30 42 H 1.420808 5.698726 1.635726 0
M  V30 43 H 0.035307 4.418653 3.164651 0
M  V30 44 H -3.902393 0.332262 0.524551 0
M  V30 45 H -3.979180 0.460587 2.280796 0
M  V30 46 H -2.989468 -1.406194 -0.533710 0
M  V30 47 H -2.180782 -3.647560 -0.625155 0
M  V30 48 H -1.406239 -4.775480 1.490313 0
M  V30 49 H -1.503184 -3.548590 3.556241 0
M  V30 50 H -1.607895 0.529150 -2.435236 0
M  V30 51 H -0.033615 -1.273241 -3.097280 0
M  V30 52 H 2.067003 -2.889898 -2.129864 0
M  V30 END ATOM
M  V30 BEGIN BOND
M  V30 1 1 1 2
M  V30 2 1 2 3
M  V30 3 2 3 4
M  V30 4 1 3 5
M  V30 5 1 5 6
M  V30 6 2 6 7
M  V30 7 1 7 8
M  V30 8 2 8 9
M  V30 9 1 9 10
M  V30 10 1 10 11
M  V30 11 1 11 12
M  V30 12 1 11 13
M  V30 13 2 13 14
M  V30 14 1 14 15
M  V30 15 2 15 16
M  V30 16 1 16 17
M  V30 17 2 17 18
M  V30 18 1 18 19
M  V30 19 2 19 20
M  V30 20 1 19 21
M  V30 21 1 21 22
M  V30 22 1 22 23
M  V30 23 2 23 24
M  V30 24 1 24 25
M  V30 25 2 25 26
M  V30 26 1 26 27
M  V30 27 2 27 28
M  V30 28 1 28 29
M  V30 29 2 10 30
M  V30 30 1 30 31
M  V30 31 2 31 32
M  V30 32 1 32 33
M  V30 33 1 33 6
M  V30 34 1 32 8
M  V30 35 1 21 11
M  V30 36 1 28 23
M  V30 37 1 18 13
M  V30 38 1 1 34
M  V30 39 1 1 35
M  V30 40 1 1 36
M  V30 41 1 5 37
M  V30 42 1 9 38
M  V30 43 1 12 39
M  V30 44 1 14 40
M  V30 45 1 15 41
M  V30 46 1 16 42
M  V30 47 1 17 43
M  V30 48 1 22 44
M  V30 49 1 22 45
M  V30 50 1 24 46
M  V30 51 1 25 47
M  V30 52 1 26 48
M  V30 53 1 27 49
M  V30 54 1 30 50
M  V30 55 1 31 51
M  V30 56 1 33 52
M  V30 END BOND
M  V30 END CTAB
M  END
>  <Dataset>  (4) 
ChEMBL_Kinases

>  <Ligand_Instance>  (4) 
nan

>  <PDB_ID>  (4) 
nan

>  <Standardized_SMILES>  (4) 
COC(=O)Nc1nc2cc(C3(O)c4ccccc4C(=O)N3Cc3ccccc3Br)ccc2[nH]1

>  <Name>  (4) 
nan

>  <Pocket>  (4) 
nan

>  <ATP_Site>  (4) 
nan

>  <Peripheral>  (4) 
nan

>  <Num_H_Atoms_ProtBoundConf>  (4) 
nan

>  <Num_Resolved_Atoms>  (4) 
nan

>  <Num_Not_Resolved_Atoms>  (4) 
nan

$$$$
CHEMBL3938488
     RDKit          3D

  0  0  0  0  0  0  0  0  0  0999 V3000
M  V30 BEGIN CTAB
M  V30 COUNTS 82 87 0 0 0
M  V30 BEGIN ATOM
M  V30 1 C 2.134646 -2.708758 -3.431505 0
M  V30 2 C 2.503025 -1.635010 -4.427073 0
M  V30 3 C 3.863001 -1.966389 -5.033785 0
M  V30 4 C 1.488989 -1.717838 -5.548809 0
M  V30 5 O 2.506648 -0.370774 -3.808369 0
M  V30 6 C 2.814958 0.801766 -4.471404 0
M  V30 7 O 3.120853 0.805551 -5.709472 0
M  V30 8 N 2.798720 2.060789 -3.775228 0
M  V30 9 C 3.123337 3.294215 -4.453752 0
M  V30 10 C 2.243264 4.442972 -4.071203 0
M  V30 11 C 1.803756 4.439992 -2.609766 0
M  V30 12 C 0.372352 4.775390 -2.570233 0
M  V30 13 O -0.298825 4.787061 -1.345246 0
M  V30 14 C -0.720263 3.712564 -0.599874 0
M  V30 15 O -0.539842 2.558810 -1.065671 0
M  V30 16 N -1.344464 3.799829 0.670797 0
M  V30 17 C -1.719984 2.591859 1.330874 0
M  V30 18 N -1.569244 1.364619 0.809574 0
M  V30 19 C -1.990284 0.393672 1.625093 0
M  V30 20 C -1.974949 -0.966970 1.393189 0
M  V30 21 C -2.474517 -1.751021 2.426033 0
M  V30 22 C -2.489679 -3.212163 2.224396 0
M  V30 23 O -2.439252 -3.515887 0.850759 0
M  V30 24 C -3.664755 -3.857400 2.855765 0
M  V30 25 C -4.980887 -3.536563 2.573492 0
M  V30 26 C -6.013395 -4.195450 3.242644 0
M  V30 27 C -5.734900 -5.167276 4.182141 0
M  V30 28 C -4.412972 -5.450594 4.425645 0
M  V30 29 C -3.356421 -4.824208 3.788880 0
M  V30 30 C -1.901165 -4.870182 3.777662 0
M  V30 31 O -1.345156 -5.705463 4.570787 0
M  V30 32 N -1.384877 -3.917658 2.827016 0
M  V30 33 C 0.040350 -3.869532 2.664905 0
M  V30 34 C 0.741772 -2.929268 3.564655 0
M  V30 35 C 1.146572 -3.420149 4.807393 0
M  V30 36 C 1.816605 -2.606141 5.711074 0
M  V30 37 C 2.105912 -1.290782 5.420138 0
M  V30 38 C 1.718223 -0.791019 4.215450 0
M  V30 39 C 1.057964 -1.595150 3.322026 0
M  V30 40 C -2.943954 -1.153426 3.591463 0
M  V30 41 C -2.928882 0.236717 3.752021 0
M  V30 42 C -2.448381 1.068150 2.767261 0
M  V30 43 N -2.262634 2.381510 2.538297 0
M  V30 44 C 2.391862 3.397559 -1.770245 0
M  V30 45 C 2.447393 2.021834 -2.355225 0
M  V30 46 H 2.801433 -3.583019 -3.592398 0
M  V30 47 H 2.337436 -2.399939 -2.375575 0
M  V30 48 H 1.093050 -3.081601 -3.568908 0
M  V30 49 H 3.873257 -1.770106 -6.123423 0
M  V30 50 H 4.683128 -1.387120 -4.556139 0
M  V30 51 H 4.040444 -3.053231 -4.876868 0
M  V30 52 H 1.037479 -2.742666 -5.628803 0
M  V30 53 H 0.623696 -1.029040 -5.370995 0
M  V30 54 H 1.940972 -1.484520 -6.532478 0
M  V30 55 H 4.191123 3.587656 -4.308989 0
M  V30 56 H 2.970575 3.101371 -5.556835 0
M  V30 57 H 1.337657 4.398584 -4.756117 0
M  V30 58 H 2.742958 5.388524 -4.371758 0
M  V30 59 H 2.309686 5.428699 -2.218366 0
M  V30 60 H 0.234114 5.826649 -2.985423 0
M  V30 61 H -0.208656 4.161792 -3.334758 0
M  V30 62 H -1.513082 4.735215 1.090034 0
M  V30 63 H -1.597653 -1.375095 0.473519 0
M  V30 64 H -3.010412 -2.942877 0.310096 0
M  V30 65 H -5.274063 -2.774597 1.840702 0
M  V30 66 H -7.034433 -3.917620 3.006195 0
M  V30 67 H -6.524588 -5.696683 4.701996 0
M  V30 68 H -4.143533 -6.198833 5.152037 0
M  V30 69 H 0.265634 -3.612885 1.581855 0
M  V30 70 H 0.545567 -4.860621 2.792950 0
M  V30 71 H 1.006175 -4.423703 5.191861 0
M  V30 72 H 2.162469 -2.917574 6.699057 0
M  V30 73 H 2.623442 -0.607509 6.101735 0
M  V30 74 H 1.928165 0.236285 3.944274 0
M  V30 75 H 0.740594 -1.235392 2.372820 0
M  V30 76 H -3.329837 -1.768496 4.409240 0
M  V30 77 H -3.289136 0.736511 4.645342 0
M  V30 78 H -2.509904 3.131248 3.212791 0
M  V30 79 H 3.466331 3.718662 -1.476167 0
M  V30 80 H 1.910021 3.356705 -0.782877 0
M  V30 81 H 3.349016 1.522485 -1.877048 0
M  V30 82 H 1.613975 1.363794 -2.141428 0
M  V30 END ATOM
M  V30 BEGIN BOND
M  V30 1 1 1 2
M  V30 2 1 2 3
M  V30 3 1 2 4
M  V30 4 1 2 5
M  V30 5 1 5 6
M  V30 6 2 6 7
M  V30 7 1 6 8
M  V30 8 1 8 9
M  V30 9 1 9 10
M  V30 10 1 10 11
M  V30 11 1 11 12
M  V30 12 1 12 13
M  V30 13 1 13 14
M  V30 14 2 14 15
M  V30 15 1 14 16
M  V30 16 1 16 17
M  V30 17 2 17 18
M  V30 18 1 18 19
M  V30 19 2 19 20
M  V30 20 1 20 21
M  V30 21 1 21 22
M  V30 22 1 22 23
M  V30 23 1 22 24
M  V30 24 2 24 25
M  V30 25 1 25 26
M  V30 26 2 26 27
M  V30 27 1 27 28
M  V30 28 2 28 29
M  V30 29 1 29 30
M  V30 30 2 30 31
M  V30 31 1 30 32
M  V30 32 1 32 33
M  V30 33 1 33 34
M  V30 34 2 34 35
M  V30 35 1 35 36
M  V30 36 2 36 37
M  V30 37 1 37 38
M  V30 38 2 38 39
M  V30 39 2 21 40
M  V30 40 1 40 41
M  V30 41 2 41 42
M  V30 42 1 42 43
M  V30 43 1 11 44
M  V30 44 1 44 45
M  V30 45 1 45 8
M  V30 46 1 43 17
M  V30 47 1 42 19
M  V30 48 1 32 22
M  V30 49 1 39 34
M  V30 50 1 29 24
M  V30 51 1 1 46
M  V30 52 1 1 47
M  V30 53 1 1 48
M  V30 54 1 3 49
M  V30 55 1 3 50
M  V30 56 1 3 51
M  V30 57 1 4 52
M  V30 58 1 4 53
M  V30 59 1 4 54
M  V30 60 1 9 55
M  V30 61 1 9 56
M  V30 62 1 10 57
M  V30 63 1 10 58
M  V30 64 1 11 59
M  V30 65 1 12 60
M  V30 66 1 12 61
M  V30 67 1 16 62
M  V30 68 1 20 63
M  V30 69 1 23 64
M  V30 70 1 25 65
M  V30 71 1 26 66
M  V30 72 1 27 67
M  V30 73 1 28 68
M  V30 74 1 33 69
M  V30 75 1 33 70
M  V30 76 1 35 71
M  V30 77 1 36 72
M  V30 78 1 37 73
M  V30 79 1 38 74
M  V30 80 1 39 75
M  V30 81 1 40 76
M  V30 82 1 41 77
M  V30 83 1 43 78
M  V30 84 1 44 79
M  V30 85 1 44 80
M  V30 86 1 45 81
M  V30 87 1 45 82
M  V30 END BOND
M  V30 END CTAB
M  END
>  <Dataset>  (5) 
ChEMBL_Kinases

>  <Ligand_Instance>  (5) 
nan

>  <PDB_ID>  (5) 
nan

>  <Standardized_SMILES>  (5) 
CC(C)(C)OC(=O)N1CCC(COC(=O)Nc2nc3cc(C4(O)c5ccccc5C(=O)N4Cc4ccccc4)ccc3[nH]2)CC1

>  <Name>  (5) 
nan

>  <Pocket>  (5) 
nan

>  <ATP_Site>  (5) 
nan

>  <Peripheral>  (5) 
nan

>  <Num_H_Atoms_ProtBoundConf>  (5) 
nan

>  <Num_Resolved_Atoms>  (5) 
nan

>  <Num_Not_Resolved_Atoms>  (5) 
nan

$$$$
CHEMBL393841
     RDKit          3D

  0  0  0  0  0  0  0  0  0  0999 V3000
M  V30 BEGIN CTAB
M  V30 COUNTS 31 33 0 0 0
M  V30 BEGIN ATOM
M  V30 1 N -2.880462 -4.061786 2.134829 0
M  V30 2 C -1.522419 -3.970904 2.634710 0
M  V30 3 C -0.580323 -3.489174 1.594695 0
M  V30 4 C 0.124044 -4.277670 0.712980 0
M  V30 5 C 0.981365 -3.739955 -0.227919 0
M  V30 6 C 1.177656 -2.375602 -0.334040 0
M  V30 7 C 0.462533 -1.606814 0.558256 0
M  V30 8 C -0.397320 -2.127188 1.503770 0
M  V30 9 C 0.796084 -0.203934 0.297212 0
M  V30 10 C 0.354358 0.898080 0.873509 0
M  V30 11 C 0.704034 2.280724 0.597100 0
M  V30 12 C 1.819638 3.073343 0.403437 0
M  V30 13 C 1.451648 4.372825 0.134973 0
M  V30 14 C 0.074243 4.393102 0.162817 0
M  V30 15 N -0.331950 3.146750 0.437128 0
M  V30 16 C 1.736216 -0.191926 -0.786755 0
M  V30 17 O 2.276482 0.776982 -1.326428 0
M  V30 18 N 1.969899 -1.538165 -1.174157 0
M  V30 19 H -2.831585 -4.218365 1.095969 0
M  V30 20 H -3.402682 -3.196592 2.404584 0
M  V30 21 H -1.485334 -3.279815 3.497652 0
M  V30 22 H -1.221485 -4.976851 3.022564 0
M  V30 23 H -0.030984 -5.347752 0.798041 0
M  V30 24 H 1.525969 -4.392526 -0.911436 0
M  V30 25 H -0.925349 -1.455719 2.173443 0
M  V30 26 H -0.378341 0.686713 1.672674 0
M  V30 27 H 2.794201 2.639068 0.486527 0
M  V30 28 H 2.134136 5.188858 -0.054281 0
M  V30 29 H -0.462773 5.312292 -0.018419 0
M  V30 30 H -1.383291 3.016326 0.489697 0
M  V30 31 H 2.606428 -1.858639 -1.937669 0
M  V30 END ATOM
M  V30 BEGIN BOND
M  V30 1 1 1 2
M  V30 2 1 2 3
M  V30 3 2 3 4
M  V30 4 1 4 5
M  V30 5 2 5 6
M  V30 6 1 6 7
M  V30 7 2 7 8
M  V30 8 1 7 9
M  V30 9 2 9 10
M  V30 10 1 10 11
M  V30 11 2 11 12
M  V30 12 1 12 13
M  V30 13 2 13 14
M  V30 14 1 14 15
M  V30 15 1 9 16
M  V30 16 2 16 17
M  V30 17 1 16 18
M  V30 18 1 8 3
M  V30 19 1 15 11
M  V30 20 1 18 6
M  V30 21 1 1 19
M  V30 22 1 1 20
M  V30 23 1 2 21
M  V30 24 1 2 22
M  V30 25 1 4 23
M  V30 26 1 5 24
M  V30 27 1 8 25
M  V30 28 1 10 26
M  V30 29 1 12 27
M  V30 30 1 13 28
M  V30 31 1 14 29
M  V30 32 1 15 30
M  V30 33 1 18 31
M  V30 END BOND
M  V30 END CTAB
M  END
>  <Dataset>  (6) 
ChEMBL_Kinases

>  <Ligand_Instance>  (6) 
nan

>  <PDB_ID>  (6) 
nan

>  <Standardized_SMILES>  (6) 
NCc1ccc2c(c1)/C(=C/c1ccc[nH]1)C(=O)N2

>  <Name>  (6) 
nan

>  <Pocket>  (6) 
nan

>  <ATP_Site>  (6) 
nan

>  <Peripheral>  (6) 
nan

>  <Num_H_Atoms_ProtBoundConf>  (6) 
nan

>  <Num_Resolved_Atoms>  (6) 
nan

>  <Num_Not_Resolved_Atoms>  (6) 
nan

$$$$
CHEMBL393840
     RDKit          3D

  0  0  0  0  0  0  0  0  0  0999 V3000
M  V30 BEGIN CTAB
M  V30 COUNTS 27 29 0 0 0
M  V30 BEGIN ATOM
M  V30 1 N -0.604272 -4.468411 4.909857 0
M  V30 2 C -0.053588 -3.994699 4.006705 0
M  V30 3 C 0.612748 -3.412064 2.867974 0
M  V30 4 C 1.748237 -4.004223 2.311092 0
M  V30 5 C 2.327926 -3.376212 1.207591 0
M  V30 6 C 1.800295 -2.203283 0.676073 0
M  V30 7 C 0.678842 -1.634644 1.240601 0
M  V30 8 C 0.087579 -2.234449 2.330677 0
M  V30 9 C 0.310710 -0.404486 0.506140 0
M  V30 10 C -0.742063 0.378153 0.764143 0
M  V30 11 C -0.987103 1.567374 -0.036098 0
M  V30 12 C -0.144618 2.635059 -0.345575 0
M  V30 13 C -0.815798 3.503625 -1.176740 0
M  V30 14 C -2.065870 2.948062 -1.360189 0
M  V30 15 N -2.158988 1.808057 -0.683848 0
M  V30 16 C 1.321273 -0.292609 -0.554260 0
M  V30 17 O 1.375256 0.615318 -1.413765 0
M  V30 18 N 2.218210 -1.394980 -0.433552 0
M  V30 19 H 2.141656 -4.919339 2.741918 0
M  V30 20 H 3.220069 -3.839472 0.769846 0
M  V30 21 H -0.794104 -1.818679 2.803292 0
M  V30 22 H -1.407327 0.093017 1.593528 0
M  V30 23 H 0.881265 2.771169 0.024222 0
M  V30 24 H -0.338679 4.412945 -1.548218 0
M  V30 25 H -2.799845 3.444107 -1.981316 0
M  V30 26 H -2.994076 1.211700 -0.663465 0
M  V30 27 H 3.027927 -1.535399 -1.078399 0
M  V30 END ATOM
M  V30 BEGIN BOND
M  V30 1 3 1 2
M  V30 2 1 2 3
M  V30 3 2 3 4
M  V30 4 1 4 5
M  V30 5 2 5 6
M  V30 6 1 6 7
M  V30 7 2 7 8
M  V30 8 1 7 9
M  V30 9 2 9 10
M  V30 10 1 10 11
M  V30 11 2 11 12
M  V30 12 1 12 13
M  V30 13 2 13 14
M  V30 14 1 14 15
M  V30 15 1 9 16
M  V30 16 2 16 17
M  V30 17 1 16 18
M  V30 18 1 8 3
M  V30 19 1 15 11
M  V30 20 1 18 6
M  V30 21 1 4 19
M  V30 22 1 5 20
M  V30 23 1 8 21
M  V30 24 1 10 22
M  V30 25 1 12 23
M  V30 26 1 13 24
M  V30 27 1 14 25
M  V30 28 1 15 26
M  V30 29 1 18 27
M  V30 END BOND
M  V30 END CTAB
M  END
>  <Dataset>  (7) 
ChEMBL_Kinases

>  <Ligand_Instance>  (7) 
nan

>  <PDB_ID>  (7) 
nan

>  <Standardized_SMILES>  (7) 
N#Cc1ccc2c(c1)/C(=C/c1ccc[nH]1)C(=O)N2

>  <Name>  (7) 
nan

>  <Pocket>  (7) 
nan

>  <ATP_Site>  (7) 
nan

>  <Peripheral>  (7) 
nan

>  <Num_H_Atoms_ProtBoundConf>  (7) 
nan

>  <Num_Resolved_Atoms>  (7) 
nan

>  <Num_Not_Resolved_Atoms>  (7) 
nan

$$$$
CHEMBL3938394
     RDKit          3D

  0  0  0  0  0  0  0  0  0  0999 V3000
M  V30 BEGIN CTAB
M  V30 COUNTS 43 45 0 0 0
M  V30 BEGIN ATOM
M  V30 1 C 1.089954 -6.037413 -0.232763 0
M  V30 2 C 0.967969 -5.327927 1.090808 0
M  V30 3 C 0.128257 -6.227249 2.000264 0
M  V30 4 C 0.309462 -4.007103 0.913279 0
M  V30 5 C -0.937297 -3.933940 0.313611 0
M  V30 6 C -1.548558 -2.689331 0.153827 0
M  V30 7 C -0.918989 -1.518668 0.590781 0
M  V30 8 N -1.761114 -0.410852 0.306231 0
M  V30 9 C -1.248348 0.742296 0.041349 0
M  V30 10 S 0.459042 1.356801 -0.067516 0
M  V30 11 C 0.016162 3.058139 0.390190 0
M  V30 12 C 0.704913 4.006855 0.969621 0
M  V30 13 C 2.083571 3.746361 1.353348 0
M  V30 14 C 3.027222 3.017074 0.685964 0
M  V30 15 C 4.282579 2.901898 1.244734 0
M  V30 16 N 4.621024 3.473998 2.415571 0
M  V30 17 C 3.713147 4.211464 3.117994 0
M  V30 18 C 2.453438 4.328032 2.559241 0
M  V30 19 C -1.375589 3.134686 -0.062414 0
M  V30 20 O -1.911192 4.281325 -0.265447 0
M  V30 21 N -2.044848 1.887423 -0.246617 0
M  V30 22 C -3.437663 1.822152 -0.694580 0
M  V30 23 C 0.311860 -1.614236 1.180292 0
M  V30 24 C 0.905993 -2.845422 1.333065 0
M  V30 25 H 1.853768 -6.843169 -0.169132 0
M  V30 26 H 1.414142 -5.375653 -1.066444 0
M  V30 27 H 0.134642 -6.500290 -0.562460 0
M  V30 28 H 1.958686 -5.252670 1.540009 0
M  V30 29 H 0.637379 -6.355995 2.977171 0
M  V30 30 H -0.901725 -5.809015 2.127877 0
M  V30 31 H -0.001312 -7.234801 1.568655 0
M  V30 32 H -1.373094 -4.871203 -0.002691 0
M  V30 33 H -2.524840 -2.795420 -0.334088 0
M  V30 34 H 0.238109 4.957411 1.149418 0
M  V30 35 H 2.695394 2.586130 -0.241719 0
M  V30 36 H 5.005424 2.318356 0.689652 0
M  V30 37 H 3.988109 4.666792 4.053346 0
M  V30 38 H 1.770392 4.928939 3.165267 0
M  V30 39 H -4.035082 1.557850 0.194472 0
M  V30 40 H -3.769956 2.784606 -1.135170 0
M  V30 41 H -3.563063 1.002305 -1.430591 0
M  V30 42 H 0.686793 -0.649201 1.471976 0
M  V30 43 H 1.870207 -2.850716 1.802412 0
M  V30 END ATOM
M  V30 BEGIN BOND
M  V30 1 1 1 2
M  V30 2 1 2 3
M  V30 3 1 2 4
M  V30 4 2 4 5
M  V30 5 1 5 6
M  V30 6 2 6 7
M  V30 7 1 7 8
M  V30 8 2 8 9
M  V30 9 1 9 10
M  V30 10 1 10 11
M  V30 11 2 11 12
M  V30 12 1 12 13
M  V30 13 2 13 14
M  V30 14 1 14 15
M  V30 15 2 15 16
M  V30 16 1 16 17
M  V30 17 2 17 18
M  V30 18 1 11 19
M  V30 19 2 19 20
M  V30 20 1 19 21
M  V30 21 1 21 22
M  V30 22 1 7 23
M  V30 23 2 23 24
M  V30 24 1 24 4
M  V30 25 1 21 9
M  V30 26 1 18 13
M  V30 27 1 1 25
M  V30 28 1 1 26
M  V30 29 1 1 27
M  V30 30 1 2 28
M  V30 31 1 3 29
M  V30 32 1 3 30
M  V30 33 1 3 31
M  V30 34 1 5 32
M  V30 35 1 6 33
M  V30 36 1 12 34
M  V30 37 1 14 35
M  V30 38 1 15 36
M  V30 39 1 17 37
M  V30 40 1 18 38
M  V30 41 1 22 39
M  V30 42 1 22 40
M  V30 43 1 22 41
M  V30 44 1 23 42
M  V30 45 1 24 43
M  V30 END BOND
M  V30 END CTAB
M  END
>  <Dataset>  (8) 
ChEMBL_Kinases

>  <Ligand_Instance>  (8) 
nan

>  <PDB_ID>  (8) 
nan

>  <Standardized_SMILES>  (8) 
CC(C)c1ccc(/N=C2\S/C(=C\c3ccncc3)C(=O)N2C)cc1

>  <Name>  (8) 
nan

>  <Pocket>  (8) 
nan

>  <ATP_Site>  (8) 
nan

>  <Peripheral>  (8) 
nan

>  <Num_H_Atoms_ProtBoundConf>  (8) 
nan

>  <Num_Resolved_Atoms>  (8) 
nan

>  <Num_Not_Resolved_Atoms>  (8) 
nan

$$$$
CHEMBL3938370
     RDKit          3D

  0  0  0  0  0  0  0  0  0  0999 V3000
M  V30 BEGIN CTAB
M  V30 COUNTS 46 50 0 0 0
M  V30 BEGIN ATOM
M  V30 1 N 5.966418 -6.215487 0.495957 0
M  V30 2 C 6.569916 -5.009062 0.942961 0
M  V30 3 O 7.764564 -5.128026 1.317165 0
M  V30 4 C 5.855656 -3.747102 0.961781 0
M  V30 5 C 6.510605 -2.621307 1.409419 0
M  V30 6 C 5.838346 -1.411356 1.431648 0
M  V30 7 C 4.508267 -1.316944 1.007371 0
M  V30 8 N 3.607848 -0.320128 0.910120 0
M  V30 9 C 2.463915 -0.833041 0.424239 0
M  V30 10 C 1.235282 -0.081230 0.167656 0
M  V30 11 C 1.237335 1.271544 0.443768 0
M  V30 12 C 0.070403 2.001165 0.203253 0
M  V30 13 C -1.027800 1.331316 -0.299280 0
M  V30 14 C -2.310100 2.028306 -0.584885 0
M  V30 15 O -2.841337 1.660304 -1.813864 0
M  V30 16 C -3.345498 1.667021 0.450213 0
M  V30 17 C -3.003516 1.020464 1.639371 0
M  V30 18 C -4.016379 0.728155 2.529798 0
M  V30 19 C -5.341888 1.042716 2.301534 0
M  V30 20 C -5.652737 1.681925 1.117657 0
M  V30 21 C -4.659878 1.995505 0.190754 0
M  V30 22 O -7.047334 1.861662 1.179792 0
M  V30 23 C -7.566568 0.961573 2.166708 0
M  V30 24 O -6.472837 0.825354 3.077824 0
M  V30 25 C -1.036535 -0.031808 -0.579728 0
M  V30 26 C 0.127860 -0.736205 -0.334925 0
M  V30 27 N 2.668912 -2.154776 0.223444 0
M  V30 28 C 3.931914 -2.490745 0.576165 0
M  V30 29 C 4.549223 -3.727795 0.530095 0
M  V30 30 H 4.971941 -6.308847 0.850890 0
M  V30 31 H 5.105735 -6.801523 0.512037 0
M  V30 32 H 7.543732 -2.715832 1.734657 0
M  V30 33 H 6.337165 -0.515191 1.780465 0
M  V30 34 H 3.804938 0.659501 1.175323 0
M  V30 35 H 2.096950 1.812370 0.840484 0
M  V30 36 H -0.024700 3.068968 0.388948 0
M  V30 37 H -2.155527 3.106461 -0.589035 0
M  V30 38 H -2.753637 2.385134 -2.494841 0
M  V30 39 H -1.965977 0.789209 1.788117 0
M  V30 40 H -3.716824 0.222619 3.449871 0
M  V30 41 H -5.005877 2.493285 -0.699783 0
M  V30 42 H -8.384092 1.458079 2.712523 0
M  V30 43 H -7.846722 0.010239 1.687059 0
M  V30 44 H -1.908659 -0.538160 -0.973597 0
M  V30 45 H 0.159329 -1.815454 -0.544170 0
M  V30 46 H 4.046465 -4.609323 0.182943 0
M  V30 END ATOM
M  V30 BEGIN BOND
M  V30 1 1 1 2
M  V30 2 2 2 3
M  V30 3 1 2 4
M  V30 4 2 4 5
M  V30 5 1 5 6
M  V30 6 2 6 7
M  V30 7 1 7 8
M  V30 8 1 8 9
M  V30 9 1 9 10
M  V30 10 2 10 11
M  V30 11 1 11 12
M  V30 12 2 12 13
M  V30 13 1 13 14
M  V30 14 1 14 15
M  V30 15 1 14 16
M  V30 16 2 16 17
M  V30 17 1 17 18
M  V30 18 2 18 19
M  V30 19 1 19 20
M  V30 20 2 20 21
M  V30 21 1 20 22
M  V30 22 1 22 23
M  V30 23 1 23 24
M  V30 24 1 13 25
M  V30 25 2 25 26
M  V30 26 2 9 27
M  V30 27 1 27 28
M  V30 28 2 28 29
M  V30 29 1 29 4
M  V30 30 1 28 7
M  V30 31 1 26 10
M  V30 32 1 21 16
M  V30 33 1 24 19
M  V30 34 1 1 30
M  V30 35 1 1 31
M  V30 36 1 5 32
M  V30 37 1 6 33
M  V30 38 1 8 34
M  V30 39 1 11 35
M  V30 40 1 12 36
M  V30 41 1 14 37
M  V30 42 1 15 38
M  V30 43 1 17 39
M  V30 44 1 18 40
M  V30 45 1 21 41
M  V30 46 1 23 42
M  V30 47 1 23 43
M  V30 48 1 25 44
M  V30 49 1 26 45
M  V30 50 1 29 46
M  V30 END BOND
M  V30 END CTAB
M  END
>  <Dataset>  (9) 
ChEMBL_Kinases

>  <Ligand_Instance>  (9) 
nan

>  <PDB_ID>  (9) 
nan

>  <Standardized_SMILES>  (9) 
NC(=O)c1ccc2[nH]c(-c3ccc(C(O)c4ccc5c(c4)OCO5)cc3)nc2c1

>  <Name>  (9) 
nan

>  <Pocket>  (9) 
nan

>  <ATP_Site>  (9) 
nan

>  <Peripheral>  (9) 
nan

>  <Num_H_Atoms_ProtBoundConf>  (9) 
nan

>  <Num_Resolved_Atoms>  (9) 
nan

>  <Num_Not_Resolved_Atoms>  (9) 
nan

$$$$
CHEMBL3938357
     RDKit          3D

  0  0  0  0  0  0  0  0  0  0999 V3000
M  V30 BEGIN CTAB
M  V30 COUNTS 43 46 0 0 0
M  V30 BEGIN ATOM
M  V30 1 C 2.441973 -5.438967 1.309209 0
M  V30 2 C 1.577675 -4.634072 2.230033 0
M  V30 3 N 0.878655 -5.102243 3.304875 0
M  V30 4 N 0.232393 -4.076818 3.868945 0
M  V30 5 C 0.468965 -2.924426 3.212362 0
M  V30 6 C 0.058755 -1.625549 3.379349 0
M  V30 7 C 0.527001 -0.691307 2.476592 0
M  V30 8 C 1.385850 -1.059000 1.433885 0
M  V30 9 C 1.845335 -0.043173 0.520508 0
M  V30 10 O 3.111530 -0.111043 0.351868 0
M  V30 11 N 1.435850 1.018906 -0.276769 0
M  V30 12 C 2.556754 1.662052 -1.000236 0
M  V30 13 C 2.187268 3.121851 -1.183125 0
M  V30 14 O 1.420444 3.617398 -0.155166 0
M  V30 15 C 0.211317 2.989326 0.043771 0
M  V30 16 C 0.177887 1.570989 -0.505059 0
M  V30 17 C -1.030543 0.887371 -0.138099 0
M  V30 18 C -2.043303 1.599923 0.520817 0
M  V30 19 C -3.236199 0.993303 0.900712 0
M  V30 20 C -3.474132 -0.327901 0.647601 0
M  V30 21 Cl -4.968902 -1.070567 1.128153 0
M  V30 22 C -2.469691 -1.038266 -0.006971 0
M  V30 23 C -1.305650 -0.420313 -0.370537 0
M  V30 24 C 1.789723 -2.372379 1.279310 0
M  V30 25 C 1.307342 -3.284694 2.194726 0
M  V30 26 H 2.097724 -5.378921 0.260809 0
M  V30 27 H 3.496412 -5.087405 1.428712 0
M  V30 28 H 2.435054 -6.485528 1.671471 0
M  V30 29 H -0.374741 -4.190172 4.715885 0
M  V30 30 H -0.594410 -1.398103 4.188468 0
M  V30 31 H 0.222875 0.341706 2.579222 0
M  V30 32 H 3.498462 1.591928 -0.462429 0
M  V30 33 H 2.535565 1.171004 -1.997836 0
M  V30 34 H 1.751652 3.298583 -2.199854 0
M  V30 35 H 3.137676 3.694436 -1.178214 0
M  V30 36 H 0.024454 3.017303 1.143421 0
M  V30 37 H -0.618736 3.604112 -0.403834 0
M  V30 38 H 0.093712 1.751640 -1.622900 0
M  V30 39 H -1.974063 2.649347 0.776944 0
M  V30 40 H -4.013812 1.549704 1.409452 0
M  V30 41 H -2.711222 -2.090353 -0.185033 0
M  V30 42 H -0.572290 -1.016543 -0.869713 0
M  V30 43 H 2.454359 -2.642520 0.467463 0
M  V30 END ATOM
M  V30 BEGIN BOND
M  V30 1 1 1 2
M  V30 2 2 2 3
M  V30 3 1 3 4
M  V30 4 1 4 5
M  V30 5 2 5 6
M  V30 6 1 6 7
M  V30 7 2 7 8
M  V30 8 1 8 9
M  V30 9 2 9 10
M  V30 10 1 9 11
M  V30 11 1 11 12
M  V30 12 1 12 13
M  V30 13 1 13 14
M  V30 14 1 14 15
M  V30 15 1 15 16
M  V30 16 1 16 17
M  V30 17 2 17 18
M  V30 18 1 18 19
M  V30 19 2 19 20
M  V30 20 1 20 21
M  V30 21 1 20 22
M  V30 22 2 22 23
M  V30 23 1 8 24
M  V30 24 2 24 25
M  V30 25 1 25 2
M  V30 26 1 25 5
M  V30 27 1 16 11
M  V30 28 1 23 17
M  V30 29 1 1 26
M  V30 30 1 1 27
M  V30 31 1 1 28
M  V30 32 1 4 29
M  V30 33 1 6 30
M  V30 34 1 7 31
M  V30 35 1 12 32
M  V30 36 1 12 33
M  V30 37 1 13 34
M  V30 38 1 13 35
M  V30 39 1 15 36
M  V30 40 1 15 37
M  V30 41 1 16 38
M  V30 42 1 18 39
M  V30 43 1 19 40
M  V30 44 1 22 41
M  V30 45 1 23 42
M  V30 46 1 24 43
M  V30 END BOND
M  V30 END CTAB
M  END
>  <Dataset>  (10) 
ChEMBL_Kinases

>  <Ligand_Instance>  (10) 
nan

>  <PDB_ID>  (10) 
nan

>  <Standardized_SMILES>  (10) 
Cc1n[nH]c2ccc(C(=O)N3CCOCC3c3ccc(Cl)cc3)cc12

>  <Name>  (10) 
nan

>  <Pocket>  (10) 
nan

>  <ATP_Site>  (10) 
nan

>  <Peripheral>  (10) 
nan

>  <Num_H_Atoms_ProtBoundConf>  (10) 
nan

>  <Num_Resolved_Atoms>  (10) 
nan

>  <Num_Not_Resolved_Atoms>  (10) 
nan

$$$$
CHEMBL3939280
     RDKit          3D

  0  0  0  0  0  0  0  0  0  0999 V3000
M  V30 BEGIN CTAB
M  V30 COUNTS 41 44 0 0 0
M  V30 BEGIN ATOM
M  V30 1 N -0.457599 -5.474604 0.725290 0
M  V30 2 C 0.810008 -5.084168 1.231711 0
M  V30 3 N 1.651132 -5.783753 1.992504 0
M  V30 4 N 2.749966 -5.099706 2.278433 0
M  V30 5 C 2.630176 -3.891003 1.677695 0
M  V30 6 C 3.492650 -2.830867 1.666533 0
M  V30 7 C 3.138659 -1.703392 0.974961 0
M  V30 8 C 1.952751 -1.602125 0.293407 0
M  V30 9 C 1.379614 -0.529689 -0.496270 0
M  V30 10 O 1.243588 -0.764634 -1.746776 0
M  V30 11 N 0.906683 0.780191 -0.218228 0
M  V30 12 C 0.437406 1.372001 -1.473029 0
M  V30 13 C 0.007390 2.778171 -1.105472 0
M  V30 14 C 0.874688 3.028069 0.113728 0
M  V30 15 C 0.725226 1.742702 0.882140 0 CFG=1
M  V30 16 C -0.645042 1.577437 1.424255 0
M  V30 17 C -1.135004 0.296956 1.681897 0
M  V30 18 C -2.405931 0.043883 2.187141 0
M  V30 19 C -3.198432 1.159223 2.433909 0
M  V30 20 Br -4.959437 0.820587 3.134890 0
M  V30 21 C -2.777073 2.451428 2.202681 0
M  V30 22 C -1.504600 2.642102 1.699920 0
M  V30 23 C 1.088560 -2.701344 0.319540 0
M  V30 24 C 1.405039 -3.871252 1.011768 0
M  V30 25 H -1.307799 -5.698814 1.292280 0
M  V30 26 H -0.675980 -5.581394 -0.300462 0
M  V30 27 H 3.515785 -5.501720 2.866370 0
M  V30 28 H 4.437263 -2.838929 2.179338 0
M  V30 29 H 3.726117 -0.784995 0.879965 0
M  V30 30 H 1.274075 1.487404 -2.176471 0
M  V30 31 H -0.387502 0.821933 -1.940453 0
M  V30 32 H -1.065861 2.848157 -0.921541 0
M  V30 33 H 0.264150 3.536576 -1.862769 0
M  V30 34 H 0.650197 3.936736 0.658407 0
M  V30 35 H 1.935764 3.049815 -0.268548 0
M  V30 36 H 1.476373 1.618608 1.660812 0
M  V30 37 H -0.469389 -0.541107 1.469054 0
M  V30 38 H -2.735830 -0.974705 2.370317 0
M  V30 39 H -3.433675 3.307454 2.412996 0
M  V30 40 H -1.167333 3.641387 1.516724 0
M  V30 41 H 0.106060 -2.778672 -0.173565 0
M  V30 END ATOM
M  V30 BEGIN BOND
M  V30 1 1 1 2
M  V30 2 2 2 3
M  V30 3 1 3 4
M  V30 4 1 4 5
M  V30 5 2 5 6
M  V30 6 1 6 7
M  V30 7 2 7 8
M  V30 8 1 8 9
M  V30 9 2 9 10
M  V30 10 1 9 11
M  V30 11 1 11 12
M  V30 12 1 12 13
M  V30 13 1 13 14
M  V30 14 1 14 15
M  V30 15 1 15 16
M  V30 16 2 16 17
M  V30 17 1 17 18
M  V30 18 2 18 19
M  V30 19 1 19 20
M  V30 20 1 19 21
M  V30 21 2 21 22
M  V30 22 1 8 23
M  V30 23 2 23 24
M  V30 24 1 24 2
M  V30 25 1 24 5
M  V30 26 1 15 11
M  V30 27 1 22 16
M  V30 28 1 1 25
M  V30 29 1 1 26
M  V30 30 1 4 27
M  V30 31 1 6 28
M  V30 32 1 7 29
M  V30 33 1 12 30
M  V30 34 1 12 31
M  V30 35 1 13 32
M  V30 36 1 13 33
M  V30 37 1 14 34
M  V30 38 1 14 35
M  V30 39 1 15 36 CFG=1
M  V30 40 1 17 37
M  V30 41 1 18 38
M  V30 42 1 21 39
M  V30 43 1 22 40
M  V30 44 1 23 41
M  V30 END BOND
M  V30 END CTAB
M  END
>  <Dataset>  (11) 
ChEMBL_Kinases

>  <Ligand_Instance>  (11) 
nan

>  <PDB_ID>  (11) 
nan

>  <Standardized_SMILES>  (11) 
Nc1n[nH]c2ccc(C(=O)N3CCC[C@H]3c3ccc(Br)cc3)cc12

>  <Name>  (11) 
nan

>  <Pocket>  (11) 
nan

>  <ATP_Site>  (11) 
nan

>  <Peripheral>  (11) 
nan

>  <Num_H_Atoms_ProtBoundConf>  (11) 
nan

>  <Num_Resolved_Atoms>  (11) 
nan

>  <Num_Not_Resolved_Atoms>  (11) 
nan

$$$$
CHEMBL3942083
     RDKit          3D

  0  0  0  0  0  0  0  0  0  0999 V3000
M  V30 BEGIN CTAB
M  V30 COUNTS 53 57 0 0 0
M  V30 BEGIN ATOM
M  V30 1 N 4.784724 -6.703718 5.839763 0
M  V30 2 C 5.508434 -5.495033 5.656938 0
M  V30 3 O 6.577289 -5.458854 6.359947 0
M  V30 4 C 5.092769 -4.412632 4.773274 0
M  V30 5 C 5.889997 -3.290442 4.697088 0
M  V30 6 C 5.465647 -2.282498 3.850039 0
M  V30 7 C 4.293004 -2.429291 3.130634 0
M  V30 8 N 3.698394 -1.573014 2.251172 0
M  V30 9 C 2.579553 -2.182694 1.824269 0
M  V30 10 C 1.624729 -1.630020 0.868669 0
M  V30 11 C 1.816256 -0.379001 0.317921 0
M  V30 12 C 0.893268 0.120319 -0.588996 0
M  V30 13 C -0.230716 -0.560774 -0.990168 0
M  V30 14 N -1.155411 -0.018506 -1.921461 0
M  V30 15 C -1.027925 1.259547 -2.536692 0
M  V30 16 C -2.067935 2.274175 -2.071581 0
M  V30 17 N -3.313194 1.546208 -1.937719 0
M  V30 18 C -4.403610 2.364350 -1.580718 0
M  V30 19 C -4.266837 3.739231 -1.377020 0
M  V30 20 C -5.332910 4.574690 -1.021986 0
M  V30 21 C -6.563462 3.971701 -0.875780 0
M  V30 22 C -6.806519 2.625309 -1.053272 0
M  V30 23 C -5.686522 1.900254 -1.400591 0
M  V30 24 C -3.603450 0.123420 -2.112892 0
M  V30 25 C -2.343022 -0.686302 -2.365548 0
M  V30 26 C -0.377387 -1.797487 -0.416451 0
M  V30 27 C 0.507480 -2.344335 0.490162 0
M  V30 28 N 2.466738 -3.387245 2.413257 0
M  V30 29 C 3.524319 -3.585353 3.244936 0
M  V30 30 C 3.915099 -4.622984 4.085400 0
M  V30 31 H 4.394151 -7.576332 5.424412 0
M  V30 32 H 4.320946 -7.170887 6.675150 0
M  V30 33 H 6.787898 -3.269476 5.298001 0
M  V30 34 H 6.101449 -1.413255 3.803399 0
M  V30 35 H 4.043631 -0.641538 1.972165 0
M  V30 36 H 2.690160 0.143594 0.633799 0
M  V30 37 H 1.146364 1.089615 -0.942954 0
M  V30 38 H -0.061894 1.779182 -2.394277 0
M  V30 39 H -1.193647 1.149119 -3.648143 0
M  V30 40 H -1.832022 2.678516 -1.057558 0
M  V30 41 H -2.113868 3.087608 -2.809709 0
M  V30 42 H -3.307571 4.217075 -1.489425 0
M  V30 43 H -5.170034 5.627874 -0.877515 0
M  V30 44 H -7.406828 4.611420 -0.598510 0
M  V30 45 H -7.753180 2.151074 -0.942462 0
M  V30 46 H -5.829736 0.818247 -1.553881 0
M  V30 47 H -4.322882 -0.074442 -2.912813 0
M  V30 48 H -4.057593 -0.189111 -1.132503 0
M  V30 49 H -2.548674 -1.662839 -1.912680 0
M  V30 50 H -2.256859 -0.760735 -3.489040 0
M  V30 51 H -1.204502 -2.436718 -0.636763 0
M  V30 52 H 0.380170 -3.328392 0.939718 0
M  V30 53 H 3.321786 -5.502603 4.166600 0
M  V30 END ATOM
M  V30 BEGIN BOND
M  V30 1 1 1 2
M  V30 2 2 2 3
M  V30 3 1 2 4
M  V30 4 2 4 5
M  V30 5 1 5 6
M  V30 6 2 6 7
M  V30 7 1 7 8
M  V30 8 1 8 9
M  V30 9 1 9 10
M  V30 10 2 10 11
M  V30 11 1 11 12
M  V30 12 2 12 13
M  V30 13 1 13 14
M  V30 14 1 14 15
M  V30 15 1 15 16
M  V30 16 1 16 17
M  V30 17 1 17 18
M  V30 18 2 18 19
M  V30 19 1 19 20
M  V30 20 2 20 21
M  V30 21 1 21 22
M  V30 22 2 22 23
M  V30 23 1 17 24
M  V30 24 1 24 25
M  V30 25 1 13 26
M  V30 26 2 26 27
M  V30 27 2 9 28
M  V30 28 1 28 29
M  V30 29 2 29 30
M  V30 30 1 30 4
M  V30 31 1 29 7
M  V30 32 1 27 10
M  V30 33 1 25 14
M  V30 34 1 23 18
M  V30 35 1 1 31
M  V30 36 1 1 32
M  V30 37 1 5 33
M  V30 38 1 6 34
M  V30 39 1 8 35
M  V30 40 1 11 36
M  V30 41 1 12 37
M  V30 42 1 15 38
M  V30 43 1 15 39
M  V30 44 1 16 40
M  V30 45 1 16 41
M  V30 46 1 19 42
M  V30 47 1 20 43
M  V30 48 1 21 44
M  V30 49 1 22 45
M  V30 50 1 23 46
M  V30 51 1 24 47
M  V30 52 1 24 48
M  V30 53 1 25 49
M  V30 54 1 25 50
M  V30 55 1 26 51
M  V30 56 1 27 52
M  V30 57 1 30 53
M  V30 END BOND
M  V30 END CTAB
M  END
>  <Dataset>  (12) 
ChEMBL_Kinases

>  <Ligand_Instance>  (12) 
nan

>  <PDB_ID>  (12) 
nan

>  <Standardized_SMILES>  (12) 
NC(=O)c1ccc2[nH]c(-c3ccc(N4CCN(c5ccccc5)CC4)cc3)nc2c1

>  <Name>  (12) 
nan

>  <Pocket>  (12) 
nan

>  <ATP_Site>  (12) 
nan

>  <Peripheral>  (12) 
nan

>  <Num_H_Atoms_ProtBoundConf>  (12) 
nan

>  <Num_Resolved_Atoms>  (12) 
nan

>  <Num_Not_Resolved_Atoms>  (12) 
nan

$$$$
CHEMBL3941969
     RDKit          3D

  0  0  0  0  0  0  0  0  0  0999 V3000
M  V30 BEGIN CTAB
M  V30 COUNTS 57 60 0 0 0
M  V30 BEGIN ATOM
M  V30 1 C 3.009155 -2.094138 4.339316 0
M  V30 2 O 2.581475 -2.928689 3.306356 0
M  V30 3 N 2.139110 -2.143000 2.272821 0
M  V30 4 C 0.788260 -1.667948 2.089194 0
M  V30 5 O 0.180270 -2.160799 3.097661 0
M  V30 6 C 0.809398 -0.848547 0.814705 0 CFG=2
M  V30 7 C 1.769388 0.277324 1.098407 0
M  V30 8 C 1.983799 1.232994 0.021885 0
M  V30 9 C 2.955847 1.194727 -0.950492 0
M  V30 10 C 3.140579 2.127522 -1.947632 0
M  V30 11 C 2.295517 3.203936 -2.002830 0
M  V30 12 C 1.315831 3.258164 -1.035500 0
M  V30 13 N 0.400130 4.349088 -1.029613 0
M  V30 14 C -0.663110 4.567554 -0.118155 0
M  V30 15 N -1.836386 4.333880 0.054379 0
M  V30 16 C -2.512939 4.749510 1.119949 0
M  V30 17 C -1.816124 5.518297 2.123342 0
M  V30 18 S -0.108056 5.578047 1.379918 0
M  V30 19 N 1.180489 2.331771 -0.095390 0
M  V30 20 C -0.565106 -0.266153 0.669511 0
M  V30 21 C -1.608313 -1.164411 0.118101 0
M  V30 22 C -1.040963 -2.538638 -0.258238 0 CFG=1
M  V30 23 O -2.008137 -3.233642 -0.973925 0
M  V30 24 C -2.585970 -4.441453 -0.688049 0
M  V30 25 C -3.506410 -4.725816 -1.708586 0
M  V30 26 C -4.265271 -5.902173 -1.702081 0
M  V30 27 C -4.122997 -6.816472 -0.681737 0
M  V30 28 C -3.217612 -6.529175 0.315288 0
M  V30 29 Cl -2.925915 -7.584936 1.670217 0
M  V30 30 C -2.470608 -5.376436 0.313592 0
M  V30 31 F -1.566932 -5.012417 1.239151 0
M  V30 32 C 0.147035 -2.221336 -1.177040 0
M  V30 33 C 1.261777 -1.688010 -0.304066 0
M  V30 34 H 2.168855 -1.699250 4.943923 0
M  V30 35 H 3.773635 -2.595163 4.980592 0
M  V30 36 H 3.550913 -1.189493 3.946167 0
M  V30 37 H 3.092182 -2.091446 1.803398 0
M  V30 38 H 1.425972 0.882404 1.992698 0
M  V30 39 H 2.769253 -0.116801 1.444259 0
M  V30 40 H 3.656285 0.381968 -0.953261 0
M  V30 41 H 3.916965 2.050060 -2.684408 0
M  V30 42 H 2.325131 4.004983 -2.725598 0
M  V30 43 H 0.445807 5.111071 -1.734442 0
M  V30 44 H -3.556796 4.398620 1.022455 0
M  V30 45 H -2.676787 5.764074 2.982194 0
M  V30 46 H -0.900359 0.003513 1.714646 0
M  V30 47 H -0.505551 0.702943 0.150855 0
M  V30 48 H -2.515143 -1.267881 0.739797 0
M  V30 49 H -1.957519 -0.725447 -0.854153 0
M  V30 50 H -0.696057 -3.024461 0.657091 0
M  V30 51 H -3.764742 -4.139467 -2.594683 0
M  V30 52 H -4.989809 -6.186375 -2.451075 0
M  V30 53 H -4.666293 -7.748919 -0.595836 0
M  V30 54 H 0.458080 -3.124726 -1.736033 0
M  V30 55 H -0.195988 -1.397535 -1.848409 0
M  V30 56 H 2.008667 -1.271322 -0.992920 0
M  V30 57 H 1.758097 -2.613729 0.113373 0
M  V30 END ATOM
M  V30 BEGIN BOND
M  V30 1 1 1 2
M  V30 2 1 2 3
M  V30 3 1 3 4
M  V30 4 2 4 5
M  V30 5 1 4 6
M  V30 6 1 6 7 CFG=1
M  V30 7 1 7 8
M  V30 8 2 8 9
M  V30 9 1 9 10
M  V30 10 2 10 11
M  V30 11 1 11 12
M  V30 12 1 12 13
M  V30 13 1 13 14
M  V30 14 2 14 15
M  V30 15 1 15 16
M  V30 16 2 16 17
M  V30 17 1 17 18
M  V30 18 2 12 19
M  V30 19 1 6 20
M  V30 20 1 20 21
M  V30 21 1 21 22
M  V30 22 1 22 23
M  V30 23 1 23 24
M  V30 24 2 24 25
M  V30 25 1 25 26
M  V30 26 2 26 27
M  V30 27 1 27 28
M  V30 28 1 28 29
M  V30 29 2 28 30
M  V30 30 1 30 31
M  V30 31 1 22 32
M  V30 32 1 32 33
M  V30 33 1 33 6
M  V30 34 1 19 8
M  V30 35 1 30 24
M  V30 36 1 18 14
M  V30 37 1 1 34
M  V30 38 1 1 35
M  V30 39 1 1 36
M  V30 40 1 3 37
M  V30 41 1 7 38
M  V30 42 1 7 39
M  V30 43 1 9 40
M  V30 44 1 10 41
M  V30 45 1 11 42
M  V30 46 1 13 43
M  V30 47 1 16 44
M  V30 48 1 17 45
M  V30 49 1 20 46
M  V30 50 1 20 47
M  V30 51 1 21 48
M  V30 52 1 21 49
M  V30 53 1 22 50 CFG=1
M  V30 54 1 25 51
M  V30 55 1 26 52
M  V30 56 1 27 53
M  V30 57 1 32 54
M  V30 58 1 32 55
M  V30 59 1 33 56
M  V30 60 1 33 57
M  V30 END BOND
M  V30 END CTAB
M  END
>  <Dataset>  (13) 
ChEMBL_Kinases

>  <Ligand_Instance>  (13) 
nan

>  <PDB_ID>  (13) 
nan

>  <Standardized_SMILES>  (13) 
CONC(=O)[C@]1(Cc2cccc(Nc3nccs3)n2)CC[C@@H](Oc2cccc(Cl)c2F)CC1

>  <Name>  (13) 
nan

>  <Pocket>  (13) 
nan

>  <ATP_Site>  (13) 
nan

>  <Peripheral>  (13) 
nan

>  <Num_H_Atoms_ProtBoundConf>  (13) 
nan

>  <Num_Resolved_Atoms>  (13) 
nan

>  <Num_Not_Resolved_Atoms>  (13) 
nan

$$$$
CHEMBL3702150
     RDKit          3D

  0  0  0  0  0  0  0  0  0  0999 V3000
M  V30 BEGIN CTAB
M  V30 COUNTS 69 75 0 0 0
M  V30 BEGIN ATOM
M  V30 1 C 1.801234 -0.972390 8.465099 0
M  V30 2 C 2.604932 -1.337739 7.400637 0
M  V30 3 C 2.010125 -1.546541 6.183727 0
M  V30 4 C 2.432010 -1.910484 4.926641 0
M  V30 5 C 3.704365 -2.207167 4.424466 0
M  V30 6 N 3.925061 -2.554124 3.131468 0
M  V30 7 C 2.828955 -2.602366 2.321858 0
M  V30 8 N 2.636466 -2.904335 0.943320 0
M  V30 9 C 2.203407 -1.951528 -0.019670 0
M  V30 10 C 1.961065 -0.647092 0.360094 0
M  V30 11 C 1.503672 0.235963 -0.607143 0
M  V30 12 C 1.321075 -0.251033 -1.885191 0
M  V30 13 N 0.853846 0.596445 -2.930046 0
M  V30 14 C 0.881045 2.046892 -2.929832 0
M  V30 15 C -0.578719 2.465140 -2.916858 0
M  V30 16 N -1.290581 1.998146 -4.062536 0
M  V30 17 C -1.140358 0.604053 -4.356644 0
M  V30 18 C -2.081430 -0.127486 -3.424043 0
M  V30 19 C -2.485542 -1.485931 -3.877909 0
M  V30 20 C -3.101183 -1.363343 -5.259660 0
M  V30 21 C -1.944466 -0.959009 -6.169260 0
M  V30 22 C -1.530720 0.423605 -5.801007 0
M  V30 23 C 0.240626 0.072734 -4.144901 0
M  V30 24 N 1.569244 -1.550818 -2.237915 0
M  V30 25 N 2.013371 -2.389038 -1.280833 0
M  V30 26 N 1.601702 -2.320120 2.787698 0
M  V30 27 C 1.352251 -1.968574 4.082980 0
M  V30 28 N 0.223928 -1.642918 4.774410 0
M  V30 29 C -1.020575 -1.629665 4.085144 0
M  V30 30 C -2.088002 -0.736266 4.636749 0
M  V30 31 C -2.994280 -0.435509 3.430528 0
M  V30 32 C -2.038963 -0.291406 2.308737 0
M  V30 33 C -0.807766 -1.059672 2.674645 0
M  V30 34 C 0.652612 -1.398342 6.020672 0
M  V30 35 C -0.119288 -1.033255 7.102806 0
M  V30 36 N 0.469049 -0.829954 8.291297 0
M  V30 37 H 2.299350 -0.816230 9.414508 0
M  V30 38 H 3.692817 -1.468257 7.485025 0
M  V30 39 H 4.568354 -2.164767 5.067697 0
M  V30 40 H 2.850874 -3.884664 0.745784 0
M  V30 41 H 2.120287 -0.317388 1.379614 0
M  V30 42 H 1.295560 1.264477 -0.390538 0
M  V30 43 H 1.396331 2.477868 -2.051633 0
M  V30 44 H 1.309434 2.372012 -3.886477 0
M  V30 45 H -0.590697 3.572490 -2.920429 0
M  V30 46 H -1.113599 2.130551 -2.017446 0
M  V30 47 H -2.256055 2.337343 -4.091989 0
M  V30 48 H -1.566245 -0.192306 -2.431911 0
M  V30 49 H -3.006656 0.469391 -3.250702 0
M  V30 50 H -1.697630 -2.250495 -3.832681 0
M  V30 51 H -3.281255 -1.832825 -3.194036 0
M  V30 52 H -3.530947 -2.282601 -5.643125 0
M  V30 53 H -3.841603 -0.540947 -5.219741 0
M  V30 54 H -1.128300 -1.687598 -5.978786 0
M  V30 55 H -2.209915 -0.978389 -7.230759 0
M  V30 56 H -2.379507 1.119361 -6.015772 0
M  V30 57 H -0.625085 0.720288 -6.411276 0
M  V30 58 H 0.925775 0.327921 -4.975775 0
M  V30 59 H 0.256199 -1.030330 -4.046617 0
M  V30 60 H -1.470734 -2.653231 3.941445 0
M  V30 61 H -1.765569 0.234272 5.003581 0
M  V30 62 H -2.777206 -1.302890 5.316194 0
M  V30 63 H -3.592150 0.480210 3.627708 0
M  V30 64 H -3.683458 -1.286997 3.266737 0
M  V30 65 H -1.852206 0.796545 2.138753 0
M  V30 66 H -2.530891 -0.707317 1.395913 0
M  V30 67 H 0.026835 -0.301647 2.701486 0
M  V30 68 H -0.612736 -1.845718 1.935644 0
M  V30 69 H -1.188702 -0.900781 7.024400 0
M  V30 END ATOM
M  V30 BEGIN BOND
M  V30 1 2 1 2
M  V30 2 1 2 3
M  V30 3 1 3 4
M  V30 4 2 4 5
M  V30 5 1 5 6
M  V30 6 2 6 7
M  V30 7 1 7 8
M  V30 8 1 8 9
M  V30 9 2 9 10
M  V30 10 1 10 11
M  V30 11 2 11 12
M  V30 12 1 12 13
M  V30 13 1 13 14
M  V30 14 1 14 15
M  V30 15 1 15 16
M  V30 16 1 16 17
M  V30 17 1 17 18
M  V30 18 1 18 19
M  V30 19 1 19 20
M  V30 20 1 20 21
M  V30 21 1 21 22
M  V30 22 1 17 23
M  V30 23 1 12 24
M  V30 24 2 24 25
M  V30 25 1 7 26
M  V30 26 2 26 27
M  V30 27 1 27 28
M  V30 28 1 28 29
M  V30 29 1 29 30
M  V30 30 1 30 31
M  V30 31 1 31 32
M  V30 32 1 32 33
M  V30 33 1 28 34
M  V30 34 1 34 35
M  V30 35 2 35 36
M  V30 36 1 36 1
M  V30 37 2 34 3
M  V30 38 1 27 4
M  V30 39 1 33 29
M  V30 40 1 25 9
M  V30 41 1 23 13
M  V30 42 1 22 17
M  V30 43 1 1 37
M  V30 44 1 2 38
M  V30 45 1 5 39
M  V30 46 1 8 40
M  V30 47 1 10 41
M  V30 48 1 11 42
M  V30 49 1 14 43
M  V30 50 1 14 44
M  V30 51 1 15 45
M  V30 52 1 15 46
M  V30 53 1 16 47
M  V30 54 1 18 48
M  V30 55 1 18 49
M  V30 56 1 19 50
M  V30 57 1 19 51
M  V30 58 1 20 52
M  V30 59 1 20 53
M  V30 60 1 21 54
M  V30 61 1 21 55
M  V30 62 1 22 56
M  V30 63 1 22 57
M  V30 64 1 23 58
M  V30 65 1 23 59
M  V30 66 1 29 60
M  V30 67 1 30 61
M  V30 68 1 30 62
M  V30 69 1 31 63
M  V30 70 1 31 64
M  V30 71 1 32 65
M  V30 72 1 32 66
M  V30 73 1 33 67
M  V30 74 1 33 68
M  V30 75 1 35 69
M  V30 END BOND
M  V30 END CTAB
M  END
>  <Dataset>  (14) 
ChEMBL_Kinases

>  <Ligand_Instance>  (14) 
nan

>  <PDB_ID>  (14) 
nan

>  <Standardized_SMILES>  (14) 
c1cc2c3cnc(Nc4ccc(N5CCNC6(CCCCC6)C5)nn4)nc3n(C3CCCC3)c2cn1

>  <Name>  (14) 
nan

>  <Pocket>  (14) 
nan

>  <ATP_Site>  (14) 
nan

>  <Peripheral>  (14) 
nan

>  <Num_H_Atoms_ProtBoundConf>  (14) 
nan

>  <Num_Resolved_Atoms>  (14) 
nan

>  <Num_Not_Resolved_Atoms>  (14) 
nan

$$$$
CHEMBL3941909
     RDKit          3D

  0  0  0  0  0  0  0  0  0  0999 V3000
M  V30 BEGIN CTAB
M  V30 COUNTS 47 49 0 0 0
M  V30 BEGIN ATOM
M  V30 1 C -3.975475 -5.546164 2.200833 0
M  V30 2 C -4.176634 -4.480924 1.110186 0
M  V30 3 C -2.874985 -3.743164 0.920826 0
M  V30 4 C -1.942070 -4.192509 0.010634 0
M  V30 5 C -0.737447 -3.495896 -0.141358 0
M  V30 6 C -0.475752 -2.360239 0.614901 0
M  V30 7 N 0.801713 -1.829732 0.302124 0
M  V30 8 C 1.018149 -0.613421 -0.009004 0
M  V30 9 S -0.059249 0.808265 -0.175981 0
M  V30 10 C 1.267647 2.032899 -0.034296 0
M  V30 11 C 1.145344 3.293740 0.243029 0
M  V30 12 C -0.148651 3.915118 0.485156 0
M  V30 13 C -0.321202 4.852685 1.496752 0
M  V30 14 C -1.586305 5.362884 1.604278 0
M  V30 15 N -2.624670 5.039531 0.840152 0
M  V30 16 C -2.502421 4.126535 -0.162409 0
M  V30 17 C -1.219419 3.584443 -0.299322 0
M  V30 18 C 2.470321 1.261105 -0.308029 0
M  V30 19 O 3.556469 1.896912 -0.539714 0
M  V30 20 N 2.349556 -0.143067 -0.297867 0
M  V30 21 C 3.503438 -1.018875 -0.561145 0
M  V30 22 C 4.209607 -1.348545 0.739154 0
M  V30 23 O 4.637754 -0.134168 1.297170 0
M  V30 24 C 5.314662 -0.380932 2.511713 0
M  V30 25 C -1.421863 -1.925135 1.520315 0
M  V30 26 C -2.607471 -2.615588 1.666032 0
M  V30 27 H -4.816339 -6.235992 2.151223 0
M  V30 28 H -3.034727 -6.103516 1.940759 0
M  V30 29 H -3.788845 -5.091435 3.193096 0
M  V30 30 H -4.395696 -5.050253 0.184171 0
M  V30 31 H -4.997873 -3.824613 1.403625 0
M  V30 32 H -2.204091 -5.088372 -0.552752 0
M  V30 33 H -0.098131 -3.946837 -0.881609 0
M  V30 34 H 2.019925 3.917992 0.299882 0
M  V30 35 H 0.509444 5.122913 2.122676 0
M  V30 36 H -1.800844 6.100620 2.369041 0
M  V30 37 H -3.336373 3.858412 -0.787143 0
M  V30 38 H -1.175172 2.868159 -1.112681 0
M  V30 39 H 4.248641 -0.509270 -1.194390 0
M  V30 40 H 3.158445 -1.961959 -1.020971 0
M  V30 41 H 3.545105 -1.795929 1.495911 0
M  V30 42 H 5.072886 -1.989333 0.594173 0
M  V30 43 H 6.193504 -1.028381 2.331512 0
M  V30 44 H 4.597608 -0.845081 3.229903 0
M  V30 45 H 5.716147 0.573769 2.879262 0
M  V30 46 H -1.114819 -1.040822 2.046042 0
M  V30 47 H -3.309752 -2.220105 2.395739 0
M  V30 END ATOM
M  V30 BEGIN BOND
M  V30 1 1 1 2
M  V30 2 1 2 3
M  V30 3 2 3 4
M  V30 4 1 4 5
M  V30 5 2 5 6
M  V30 6 1 6 7
M  V30 7 2 7 8
M  V30 8 1 8 9
M  V30 9 1 9 10
M  V30 10 2 10 11
M  V30 11 1 11 12
M  V30 12 2 12 13
M  V30 13 1 13 14
M  V30 14 2 14 15
M  V30 15 1 15 16
M  V30 16 2 16 17
M  V30 17 1 10 18
M  V30 18 2 18 19
M  V30 19 1 18 20
M  V30 20 1 20 21
M  V30 21 1 21 22
M  V30 22 1 22 23
M  V30 23 1 23 24
M  V30 24 1 6 25
M  V30 25 2 25 26
M  V30 26 1 26 3
M  V30 27 1 20 8
M  V30 28 1 17 12
M  V30 29 1 1 27
M  V30 30 1 1 28
M  V30 31 1 1 29
M  V30 32 1 2 30
M  V30 33 1 2 31
M  V30 34 1 4 32
M  V30 35 1 5 33
M  V30 36 1 11 34
M  V30 37 1 13 35
M  V30 38 1 14 36
M  V30 39 1 16 37
M  V30 40 1 17 38
M  V30 41 1 21 39
M  V30 42 1 21 40
M  V30 43 1 22 41
M  V30 44 1 22 42
M  V30 45 1 24 43
M  V30 46 1 24 44
M  V30 47 1 24 45
M  V30 48 1 25 46
M  V30 49 1 26 47
M  V30 END BOND
M  V30 END CTAB
M  END
>  <Dataset>  (15) 
ChEMBL_Kinases

>  <Ligand_Instance>  (15) 
nan

>  <PDB_ID>  (15) 
nan

>  <Standardized_SMILES>  (15) 
CCc1ccc(/N=C2\S/C(=C\c3ccncc3)C(=O)N2CCOC)cc1

>  <Name>  (15) 
nan

>  <Pocket>  (15) 
nan

>  <ATP_Site>  (15) 
nan

>  <Peripheral>  (15) 
nan

>  <Num_H_Atoms_ProtBoundConf>  (15) 
nan

>  <Num_Resolved_Atoms>  (15) 
nan

>  <Num_Not_Resolved_Atoms>  (15) 
nan

$$$$
CHEMBL3941784
     RDKit          3D

  0  0  0  0  0  0  0  0  0  0999 V3000
M  V30 BEGIN CTAB
M  V30 COUNTS 51 54 0 0 0
M  V30 BEGIN ATOM
M  V30 1 C 4.670729 -4.133251 5.629141 0
M  V30 2 S 5.794040 -3.012943 4.853045 0
M  V30 3 O 5.965984 -1.842633 5.808063 0
M  V30 4 O 7.096679 -3.698202 4.676198 0
M  V30 5 C 5.171127 -2.390161 3.342308 0
M  V30 6 C 4.416493 -1.242824 3.273843 0
M  V30 7 C 3.943707 -0.784375 2.061026 0
M  V30 8 C 4.257449 -1.518472 0.934377 0
M  V30 9 N 3.761168 -1.032805 -0.317898 0
M  V30 10 C 2.983190 0.161297 -0.327764 0
M  V30 11 N 3.506642 1.414320 -0.468655 0
M  V30 12 C 2.694461 2.492169 -0.466894 0
M  V30 13 C 1.347094 2.238752 -0.317485 0
M  V30 14 C 0.780537 0.994695 -0.173029 0
M  V30 15 C -0.652590 0.778810 -0.017711 0
M  V30 16 C -1.609733 1.771366 0.004213 0
M  V30 17 C -2.964882 1.453731 0.159367 0
M  V30 18 C -3.382433 0.122472 0.296034 0
M  V30 19 O -4.758768 0.068827 0.434658 0
M  V30 20 C -5.539403 0.019204 -0.707693 0
M  V30 21 C -6.377943 1.143074 -0.710094 0
M  V30 22 C -7.285618 1.357908 -1.754702 0
M  V30 23 C -7.366271 0.474253 -2.786559 0
M  V30 24 C -6.537874 -0.627808 -2.775553 0
M  V30 25 C -5.637287 -0.862058 -1.761047 0
M  V30 26 N -4.739075 -1.942392 -1.626878 0
M  V30 27 C -2.420090 -0.864660 0.273415 0
M  V30 28 C -1.093238 -0.523380 0.119237 0
M  V30 29 N 1.663123 -0.045585 -0.184356 0
M  V30 30 C 5.009914 -2.678638 0.930274 0
M  V30 31 C 5.453190 -3.085154 2.172166 0
M  V30 32 H 4.910144 -5.198809 5.393766 0
M  V30 33 H 4.720027 -4.071625 6.739498 0
M  V30 34 H 3.626615 -3.959554 5.328757 0
M  V30 35 H 4.227351 -0.738869 4.228493 0
M  V30 36 H 3.354854 0.114849 2.025406 0
M  V30 37 H 3.946043 -1.517085 -1.221449 0
M  V30 38 H 3.098031 3.488838 -0.577669 0
M  V30 39 H 0.720153 3.124245 -0.319962 0
M  V30 40 H -1.273227 2.791549 -0.102208 0
M  V30 41 H -3.609997 2.340363 0.158436 0
M  V30 42 H -6.449757 1.949779 0.028602 0
M  V30 43 H -7.957452 2.201005 -1.816396 0
M  V30 44 H -8.040569 0.563883 -3.635411 0
M  V30 45 H -6.543147 -1.373998 -3.559103 0
M  V30 46 H -4.753470 -2.826602 -1.053249 0
M  V30 47 H -3.910627 -1.821924 -2.216533 0
M  V30 48 H -2.835783 -1.837503 0.388146 0
M  V30 49 H -0.407052 -1.356526 0.112350 0
M  V30 50 H 5.224914 -3.209826 0.031614 0
M  V30 51 H 6.050331 -3.994431 2.220526 0
M  V30 END ATOM
M  V30 BEGIN BOND
M  V30 1 1 1 2
M  V30 2 2 2 3
M  V30 3 2 2 4
M  V30 4 1 2 5
M  V30 5 2 5 6
M  V30 6 1 6 7
M  V30 7 2 7 8
M  V30 8 1 8 9
M  V30 9 1 9 10
M  V30 10 2 10 11
M  V30 11 1 11 12
M  V30 12 2 12 13
M  V30 13 1 13 14
M  V30 14 1 14 15
M  V30 15 2 15 16
M  V30 16 1 16 17
M  V30 17 2 17 18
M  V30 18 1 18 19
M  V30 19 1 19 20
M  V30 20 2 20 21
M  V30 21 1 21 22
M  V30 22 2 22 23
M  V30 23 1 23 24
M  V30 24 2 24 25
M  V30 25 1 25 26
M  V30 26 1 18 27
M  V30 27 2 27 28
M  V30 28 2 14 29
M  V30 29 1 8 30
M  V30 30 2 30 31
M  V30 31 1 31 5
M  V30 32 1 29 10
M  V30 33 1 28 15
M  V30 34 1 25 20
M  V30 35 1 1 32
M  V30 36 1 1 33
M  V30 37 1 1 34
M  V30 38 1 6 35
M  V30 39 1 7 36
M  V30 40 1 9 37
M  V30 41 1 12 38
M  V30 42 1 13 39
M  V30 43 1 16 40
M  V30 44 1 17 41
M  V30 45 1 21 42
M  V30 46 1 22 43
M  V30 47 1 23 44
M  V30 48 1 24 45
M  V30 49 1 26 46
M  V30 50 1 26 47
M  V30 51 1 27 48
M  V30 52 1 28 49
M  V30 53 1 30 50
M  V30 54 1 31 51
M  V30 END BOND
M  V30 END CTAB
M  END
>  <Dataset>  (16) 
ChEMBL_Kinases

>  <Ligand_Instance>  (16) 
nan

>  <PDB_ID>  (16) 
nan

>  <Standardized_SMILES>  (16) 
CS(=O)(=O)c1ccc(Nc2nccc(-c3ccc(Oc4ccccc4N)cc3)n2)cc1

>  <Name>  (16) 
nan

>  <Pocket>  (16) 
nan

>  <ATP_Site>  (16) 
nan

>  <Peripheral>  (16) 
nan

>  <Num_H_Atoms_ProtBoundConf>  (16) 
nan

>  <Num_Resolved_Atoms>  (16) 
nan

>  <Num_Not_Resolved_Atoms>  (16) 
nan

$$$$
CHEMBL3941646
     RDKit          3D

  0  0  0  0  0  0  0  0  0  0999 V3000
M  V30 BEGIN CTAB
M  V30 COUNTS 48 52 0 0 0
M  V30 BEGIN ATOM
M  V30 1 N 1.123398 -8.745849 1.792961 0
M  V30 2 C 2.416836 -8.201543 1.556320 0
M  V30 3 O 3.380962 -8.990806 1.712505 0
M  V30 4 C 2.601914 -6.809530 1.156730 0
M  V30 5 C 3.890619 -6.361192 0.947395 0
M  V30 6 C 4.077634 -5.042021 0.567922 0
M  V30 7 C 2.999568 -4.176981 0.397847 0
M  V30 8 N 2.849175 -2.871784 0.044390 0
M  V30 9 C 1.534837 -2.580031 0.049389 0
M  V30 10 C 0.935209 -1.287178 -0.271136 0
M  V30 11 C 1.744804 -0.228987 -0.618699 0
M  V30 12 C 1.159300 0.986407 -0.918581 0
M  V30 13 C -0.215004 1.130317 -0.868565 0
M  V30 14 S -1.096939 2.608041 -1.222004 0
M  V30 15 O -2.423910 2.298638 -1.862614 0
M  V30 16 O -0.312889 3.445860 -2.190609 0
M  V30 17 N -1.304455 3.557697 0.206037 0
M  V30 18 C -0.244279 4.110702 0.993022 0
M  V30 19 C -0.851035 4.296324 2.358478 0
M  V30 20 C -2.309233 4.390230 2.104895 0
M  V30 21 C -3.376473 4.816088 2.883775 0
M  V30 22 C -4.681202 4.816439 2.430943 0
M  V30 23 C -4.889472 4.361383 1.129595 0
M  V30 24 C -3.817877 3.943443 0.373608 0
M  V30 25 C -2.517424 3.945820 0.832322 0
M  V30 26 C -1.036870 0.060791 -0.517047 0
M  V30 27 C -0.437131 -1.147033 -0.220204 0
M  V30 28 N 0.879922 -3.700339 0.404203 0
M  V30 29 C 1.749618 -4.715617 0.629774 0
M  V30 30 C 1.482695 -6.019399 1.010204 0
M  V30 31 H 0.931267 -9.506795 2.479100 0
M  V30 32 H 0.168144 -8.567196 1.411928 0
M  V30 33 H 4.762229 -6.994045 1.066397 0
M  V30 34 H 5.081235 -4.649794 0.392907 0
M  V30 35 H 3.660730 -2.240256 -0.184644 0
M  V30 36 H 2.809639 -0.334089 -0.659236 0
M  V30 37 H 1.721566 1.872048 -1.201905 0
M  V30 38 H 0.645122 3.481488 1.069204 0
M  V30 39 H 0.013847 5.109340 0.549448 0
M  V30 40 H -0.582526 3.502991 3.071242 0
M  V30 41 H -0.466895 5.250241 2.770273 0
M  V30 42 H -3.186831 5.166965 3.897307 0
M  V30 43 H -5.504593 5.146184 3.035069 0
M  V30 44 H -5.918382 4.365026 0.781579 0
M  V30 45 H -4.038099 3.594758 -0.644632 0
M  V30 46 H -2.128177 0.123476 -0.462973 0
M  V30 47 H -1.015534 -2.019494 0.060517 0
M  V30 48 H 0.478985 -6.357952 1.170290 0
M  V30 END ATOM
M  V30 BEGIN BOND
M  V30 1 1 1 2
M  V30 2 2 2 3
M  V30 3 1 2 4
M  V30 4 2 4 5
M  V30 5 1 5 6
M  V30 6 2 6 7
M  V30 7 1 7 8
M  V30 8 1 8 9
M  V30 9 1 9 10
M  V30 10 2 10 11
M  V30 11 1 11 12
M  V30 12 2 12 13
M  V30 13 1 13 14
M  V30 14 2 14 15
M  V30 15 2 14 16
M  V30 16 1 14 17
M  V30 17 1 17 18
M  V30 18 1 18 19
M  V30 19 1 19 20
M  V30 20 2 20 21
M  V30 21 1 21 22
M  V30 22 2 22 23
M  V30 23 1 23 24
M  V30 24 2 24 25
M  V30 25 1 13 26
M  V30 26 2 26 27
M  V30 27 2 9 28
M  V30 28 1 28 29
M  V30 29 2 29 30
M  V30 30 1 30 4
M  V30 31 1 29 7
M  V30 32 1 27 10
M  V30 33 1 25 17
M  V30 34 1 25 20
M  V30 35 1 1 31
M  V30 36 1 1 32
M  V30 37 1 5 33
M  V30 38 1 6 34
M  V30 39 1 8 35
M  V30 40 1 11 36
M  V30 41 1 12 37
M  V30 42 1 18 38
M  V30 43 1 18 39
M  V30 44 1 19 40
M  V30 45 1 19 41
M  V30 46 1 21 42
M  V30 47 1 22 43
M  V30 48 1 23 44
M  V30 49 1 24 45
M  V30 50 1 26 46
M  V30 51 1 27 47
M  V30 52 1 30 48
M  V30 END BOND
M  V30 END CTAB
M  END
>  <Dataset>  (17) 
ChEMBL_Kinases

>  <Ligand_Instance>  (17) 
nan

>  <PDB_ID>  (17) 
nan

>  <Standardized_SMILES>  (17) 
NC(=O)c1ccc2[nH]c(-c3ccc(S(=O)(=O)N4CCc5ccccc54)cc3)nc2c1

>  <Name>  (17) 
nan

>  <Pocket>  (17) 
nan

>  <ATP_Site>  (17) 
nan

>  <Peripheral>  (17) 
nan

>  <Num_H_Atoms_ProtBoundConf>  (17) 
nan

>  <Num_Resolved_Atoms>  (17) 
nan

>  <Num_Not_Resolved_Atoms>  (17) 
nan

$$$$
CHEMBL3941642
     RDKit          3D

  0  0  0  0  0  0  0  0  0  0999 V3000
M  V30 BEGIN CTAB
M  V30 COUNTS 45 49 0 0 0
M  V30 BEGIN ATOM
M  V30 1 N 4.645906 -5.288436 0.284923 0
M  V30 2 C 3.862284 -4.517333 -0.107643 0
M  V30 3 C 2.912451 -3.552002 -0.586211 0
M  V30 4 C 2.064481 -3.976595 -1.595939 0
M  V30 5 C 1.156816 -3.052879 -2.052554 0
M  V30 6 C 1.069198 -1.772097 -1.556774 0
M  V30 7 C 1.909539 -1.352152 -0.556448 0
M  V30 8 N 2.008480 -0.105820 0.106432 0
M  V30 9 C 2.733553 1.105786 -0.103927 0
M  V30 10 O 3.492767 1.191274 -1.087405 0
M  V30 11 C 2.383646 2.027945 0.969414 0
M  V30 12 C 2.842301 3.321244 1.176781 0
M  V30 13 C 2.330567 3.965769 2.293049 0
M  V30 14 C 1.420547 3.345840 3.138026 0
M  V30 15 C 0.984965 2.059794 2.903816 0
M  V30 16 C 1.488503 1.411547 1.796253 0
M  V30 17 C 1.214918 0.057712 1.295514 0
M  V30 18 O 1.606768 -0.866867 2.290081 0
M  V30 19 C -0.244608 -0.073527 1.048436 0
M  V30 20 C -0.815229 0.750603 0.099382 0
M  V30 21 C -2.175464 0.623638 -0.128038 0
M  V30 22 C -2.940834 -0.292390 0.565759 0
M  V30 23 C -2.339417 -1.105235 1.511779 0
M  V30 24 C -0.979776 -1.009113 1.769052 0
M  V30 25 N -3.112990 -2.070674 2.250158 0
M  V30 26 C -4.526968 -2.200088 2.009742 0
M  V30 27 O -5.268014 -2.764064 2.856115 0
M  V30 28 C -5.002558 -1.627390 0.721266 0
M  V30 29 O -4.289135 -0.457291 0.378489 0
M  V30 30 C 2.849098 -2.263798 -0.063750 0
M  V30 31 H 2.061244 -4.951158 -2.040414 0
M  V30 32 H 0.433927 -3.247803 -2.837602 0
M  V30 33 H 0.381848 -0.999719 -1.870637 0
M  V30 34 H 3.547583 3.789810 0.514092 0
M  V30 35 H 2.653834 4.981901 2.506528 0
M  V30 36 H 1.012659 3.855627 4.025381 0
M  V30 37 H 0.281873 1.593773 3.565081 0
M  V30 38 H 2.487601 -0.499437 2.624181 0
M  V30 39 H -0.186376 1.472756 -0.440884 0
M  V30 40 H -2.637888 1.260201 -0.866906 0
M  V30 41 H -0.465499 -1.620420 2.496612 0
M  V30 42 H -2.645804 -2.676778 2.960683 0
M  V30 43 H -4.874298 -2.348459 -0.101859 0
M  V30 44 H -6.078904 -1.424718 0.836856 0
M  V30 45 H 3.575240 -2.071982 0.723256 0
M  V30 END ATOM
M  V30 BEGIN BOND
M  V30 1 3 1 2
M  V30 2 1 2 3
M  V30 3 2 3 4
M  V30 4 1 4 5
M  V30 5 2 5 6
M  V30 6 1 6 7
M  V30 7 1 7 8
M  V30 8 1 8 9
M  V30 9 2 9 10
M  V30 10 1 9 11
M  V30 11 2 11 12
M  V30 12 1 12 13
M  V30 13 2 13 14
M  V30 14 1 14 15
M  V30 15 2 15 16
M  V30 16 1 16 17
M  V30 17 1 17 18
M  V30 18 1 17 19
M  V30 19 2 19 20
M  V30 20 1 20 21
M  V30 21 2 21 22
M  V30 22 1 22 23
M  V30 23 2 23 24
M  V30 24 1 23 25
M  V30 25 1 25 26
M  V30 26 2 26 27
M  V30 27 1 26 28
M  V30 28 1 28 29
M  V30 29 2 7 30
M  V30 30 1 30 3
M  V30 31 1 17 8
M  V30 32 1 24 19
M  V30 33 1 16 11
M  V30 34 1 29 22
M  V30 35 1 4 31
M  V30 36 1 5 32
M  V30 37 1 6 33
M  V30 38 1 12 34
M  V30 39 1 13 35
M  V30 40 1 14 36
M  V30 41 1 15 37
M  V30 42 1 18 38
M  V30 43 1 20 39
M  V30 44 1 21 40
M  V30 45 1 24 41
M  V30 46 1 25 42
M  V30 47 1 28 43
M  V30 48 1 28 44
M  V30 49 1 30 45
M  V30 END BOND
M  V30 END CTAB
M  END
>  <Dataset>  (18) 
ChEMBL_Kinases

>  <Ligand_Instance>  (18) 
nan

>  <PDB_ID>  (18) 
nan

>  <Standardized_SMILES>  (18) 
N#Cc1cccc(N2C(=O)c3ccccc3C2(O)c2ccc3c(c2)NC(=O)CO3)c1

>  <Name>  (18) 
nan

>  <Pocket>  (18) 
nan

>  <ATP_Site>  (18) 
nan

>  <Peripheral>  (18) 
nan

>  <Num_H_Atoms_ProtBoundConf>  (18) 
nan

>  <Num_Resolved_Atoms>  (18) 
nan

>  <Num_Not_Resolved_Atoms>  (18) 
nan

$$$$
CHEMBL3702151
     RDKit          3D

  0  0  0  0  0  0  0  0  0  0999 V3000
M  V30 BEGIN CTAB
M  V30 COUNTS 67 73 0 0 0
M  V30 BEGIN ATOM
M  V30 1 C 3.399581 -2.593001 7.789316 0
M  V30 2 C 3.850607 -2.950501 6.515983 0
M  V30 3 C 3.176678 -2.378441 5.453516 0
M  V30 4 C 3.300716 -2.463770 4.087031 0
M  V30 5 C 4.210671 -3.208555 3.359036 0
M  V30 6 N 4.163082 -3.151984 2.018020 0
M  V30 7 C 3.239346 -2.378272 1.376037 0
M  V30 8 N 3.212914 -2.338097 -0.054467 0
M  V30 9 C 2.289294 -1.563265 -0.784883 0
M  V30 10 C 2.275642 -1.534329 -2.167940 0
M  V30 11 C 1.338065 -0.749034 -2.809686 0
M  V30 12 C 0.431882 -0.007267 -2.077377 0
M  V30 13 N -0.591584 0.847383 -2.575547 0
M  V30 14 C -1.522461 1.608793 -1.762590 0
M  V30 15 C -2.843663 0.869632 -1.811376 0
M  V30 16 C -2.978378 0.162890 -3.140648 0
M  V30 17 C -2.350791 0.991842 -4.228121 0
M  V30 18 C -0.864369 1.091146 -3.978422 0
M  V30 19 C -4.463547 -0.007183 -3.381112 0
M  V30 20 O -4.648303 -0.544163 -4.637523 0
M  V30 21 C -4.089495 -1.812546 -4.766247 0
M  V30 22 C -2.634894 -1.830232 -4.348474 0
M  V30 23 N -2.386919 -1.142014 -3.123475 0
M  V30 24 N 0.493566 -0.075539 -0.731913 0
M  V30 25 N 1.382739 -0.820662 -0.094184 0
M  V30 26 N 2.358729 -1.657676 2.094496 0
M  V30 27 C 2.354625 -1.671460 3.439418 0
M  V30 28 N 1.652173 -1.102093 4.437829 0
M  V30 29 C 0.564340 -0.197864 4.223825 0
M  V30 30 C -0.621468 -0.851077 3.547985 0
M  V30 31 C -1.515078 0.360990 3.325130 0
M  V30 32 C -0.561001 1.520694 3.099285 0
M  V30 33 C 0.847670 0.947081 3.305780 0
M  V30 34 C 2.123461 -1.508099 5.646421 0
M  V30 35 C 1.696495 -1.170638 6.927608 0
M  V30 36 N 2.368752 -1.740729 7.944273 0
M  V30 37 H 3.932840 -3.045413 8.611201 0
M  V30 38 H 4.673651 -3.630353 6.342531 0
M  V30 39 H 4.948183 -3.825456 3.806820 0
M  V30 40 H 3.902937 -2.903196 -0.586639 0
M  V30 41 H 2.972635 -2.104780 -2.737523 0
M  V30 42 H 1.247545 -0.660501 -3.869372 0
M  V30 43 H -1.621562 2.662777 -2.082686 0
M  V30 44 H -1.105276 1.653894 -0.734718 0
M  V30 45 H -3.699612 1.513238 -1.553824 0
M  V30 46 H -2.762573 0.088950 -1.005096 0
M  V30 47 H -2.827475 1.994242 -4.195315 0
M  V30 48 H -2.582108 0.575967 -5.225010 0
M  V30 49 H -0.283698 0.436459 -4.653174 0
M  V30 50 H -0.578283 2.154003 -4.198154 0
M  V30 51 H -4.921653 1.000778 -3.376979 0
M  V30 52 H -4.904533 -0.606658 -2.570704 0
M  V30 53 H -4.636875 -2.599753 -4.208494 0
M  V30 54 H -4.126761 -2.089702 -5.839956 0
M  V30 55 H -1.968778 -1.539294 -5.189270 0
M  V30 56 H -2.395128 -2.916082 -4.149435 0
M  V30 57 H -2.595213 -1.708144 -2.296238 0
M  V30 58 H 0.193223 0.191421 5.193676 0
M  V30 59 H -0.292799 -1.191070 2.555765 0
M  V30 60 H -1.091692 -1.627584 4.161329 0
M  V30 61 H -2.070425 0.522533 4.266969 0
M  V30 62 H -2.220769 0.206152 2.496583 0
M  V30 63 H -0.656628 1.900157 2.044040 0
M  V30 64 H -0.718808 2.300693 3.843058 0
M  V30 65 H 1.517520 1.714902 3.740539 0
M  V30 66 H 1.154681 0.566445 2.328010 0
M  V30 67 H 0.869118 -0.486803 7.069833 0
M  V30 END ATOM
M  V30 BEGIN BOND
M  V30 1 2 1 2
M  V30 2 1 2 3
M  V30 3 1 3 4
M  V30 4 2 4 5
M  V30 5 1 5 6
M  V30 6 2 6 7
M  V30 7 1 7 8
M  V30 8 1 8 9
M  V30 9 2 9 10
M  V30 10 1 10 11
M  V30 11 2 11 12
M  V30 12 1 12 13
M  V30 13 1 13 14
M  V30 14 1 14 15
M  V30 15 1 15 16
M  V30 16 1 16 17
M  V30 17 1 17 18
M  V30 18 1 16 19
M  V30 19 1 19 20
M  V30 20 1 20 21
M  V30 21 1 21 22
M  V30 22 1 22 23
M  V30 23 1 12 24
M  V30 24 2 24 25
M  V30 25 1 7 26
M  V30 26 2 26 27
M  V30 27 1 27 28
M  V30 28 1 28 29
M  V30 29 1 29 30
M  V30 30 1 30 31
M  V30 31 1 31 32
M  V30 32 1 32 33
M  V30 33 1 28 34
M  V30 34 1 34 35
M  V30 35 2 35 36
M  V30 36 1 36 1
M  V30 37 2 34 3
M  V30 38 1 27 4
M  V30 39 1 33 29
M  V30 40 1 25 9
M  V30 41 1 18 13
M  V30 42 1 23 16
M  V30 43 1 1 37
M  V30 44 1 2 38
M  V30 45 1 5 39
M  V30 46 1 8 40
M  V30 47 1 10 41
M  V30 48 1 11 42
M  V30 49 1 14 43
M  V30 50 1 14 44
M  V30 51 1 15 45
M  V30 52 1 15 46
M  V30 53 1 17 47
M  V30 54 1 17 48
M  V30 55 1 18 49
M  V30 56 1 18 50
M  V30 57 1 19 51
M  V30 58 1 19 52
M  V30 59 1 21 53
M  V30 60 1 21 54
M  V30 61 1 22 55
M  V30 62 1 22 56
M  V30 63 1 23 57
M  V30 64 1 29 58
M  V30 65 1 30 59
M  V30 66 1 30 60
M  V30 67 1 31 61
M  V30 68 1 31 62
M  V30 69 1 32 63
M  V30 70 1 32 64
M  V30 71 1 33 65
M  V30 72 1 33 66
M  V30 73 1 35 67
M  V30 END BOND
M  V30 END CTAB
M  END
>  <Dataset>  (19) 
ChEMBL_Kinases

>  <Ligand_Instance>  (19) 
nan

>  <PDB_ID>  (19) 
nan

>  <Standardized_SMILES>  (19) 
c1cc2c3cnc(Nc4ccc(N5CCC6(CC5)COCCN6)nn4)nc3n(C3CCCC3)c2cn1

>  <Name>  (19) 
nan

>  <Pocket>  (19) 
nan

>  <ATP_Site>  (19) 
nan

>  <Peripheral>  (19) 
nan

>  <Num_H_Atoms_ProtBoundConf>  (19) 
nan

>  <Num_Resolved_Atoms>  (19) 
nan

>  <Num_Not_Resolved_Atoms>  (19) 
nan

$$$$
CHEMBL3941377
     RDKit          3D

  0  0  0  0  0  0  0  0  0  0999 V3000
M  V30 BEGIN CTAB
M  V30 COUNTS 42 44 0 0 0
M  V30 BEGIN ATOM
M  V30 1 C 1.489959 -6.823566 1.056853 0
M  V30 2 C 2.244986 -5.489386 1.034248 0
M  V30 3 C 1.225173 -4.388989 1.193881 0
M  V30 4 C 0.605112 -3.812265 0.084578 0
M  V30 5 C -0.328804 -2.799604 0.272678 0
M  V30 6 C -0.672322 -2.335212 1.523827 0
M  V30 7 N -1.626215 -1.303669 1.751180 0
M  V30 8 C -1.350553 -0.071528 1.780018 0
M  V30 9 S 0.106008 0.992893 1.595810 0
M  V30 10 C -0.860701 2.374338 0.912680 0
M  V30 11 C -0.467591 3.296532 0.072978 0
M  V30 12 C 0.890277 3.336244 -0.458105 0
M  V30 13 C 1.475710 4.594546 -0.657101 0
M  V30 14 C 2.751710 4.778135 -1.151129 0
M  V30 15 N 3.495502 3.703763 -1.466729 0
M  V30 16 C 2.956464 2.479061 -1.284994 0
M  V30 17 N 3.715392 1.312663 -1.608200 0
M  V30 18 C 1.693335 2.285286 -0.796461 0
M  V30 19 C -2.158094 2.165037 1.548018 0
M  V30 20 O -2.922261 3.194259 1.616596 0
M  V30 21 N -2.407390 0.848903 2.008542 0
M  V30 22 C -3.704613 0.588963 2.659401 0
M  V30 23 C -0.037524 -2.928445 2.620254 0
M  V30 24 C 0.892776 -3.934946 2.463482 0
M  V30 25 H 2.024393 -7.610270 1.601862 0
M  V30 26 H 1.196847 -7.138421 0.026949 0
M  V30 27 H 0.513127 -6.667510 1.595501 0
M  V30 28 H 2.771494 -5.437162 0.074655 0
M  V30 29 H 2.902773 -5.462890 1.915192 0
M  V30 30 H 0.865241 -4.168068 -0.919167 0
M  V30 31 H -0.803070 -2.359560 -0.575311 0
M  V30 32 H -1.185012 4.068838 -0.246342 0
M  V30 33 H 0.881368 5.487195 -0.404079 0
M  V30 34 H 3.151326 5.785201 -1.284622 0
M  V30 35 H 3.781538 0.477921 -2.238848 0
M  V30 36 H 4.569425 1.174660 -1.005578 0
M  V30 37 H 1.263706 1.305779 -0.651136 0
M  V30 38 H -3.870421 1.276715 3.509903 0
M  V30 39 H -3.731349 -0.469177 2.961007 0
M  V30 40 H -4.524322 0.808455 1.944556 0
M  V30 41 H -0.305088 -2.565638 3.613761 0
M  V30 42 H 1.356580 -4.361628 3.341108 0
M  V30 END ATOM
M  V30 BEGIN BOND
M  V30 1 1 1 2
M  V30 2 1 2 3
M  V30 3 2 3 4
M  V30 4 1 4 5
M  V30 5 2 5 6
M  V30 6 1 6 7
M  V30 7 2 7 8
M  V30 8 1 8 9
M  V30 9 1 9 10
M  V30 10 2 10 11
M  V30 11 1 11 12
M  V30 12 2 12 13
M  V30 13 1 13 14
M  V30 14 2 14 15
M  V30 15 1 15 16
M  V30 16 1 16 17
M  V30 17 2 16 18
M  V30 18 1 10 19
M  V30 19 2 19 20
M  V30 20 1 19 21
M  V30 21 1 21 22
M  V30 22 1 6 23
M  V30 23 2 23 24
M  V30 24 1 24 3
M  V30 25 1 21 8
M  V30 26 1 18 12
M  V30 27 1 1 25
M  V30 28 1 1 26
M  V30 29 1 1 27
M  V30 30 1 2 28
M  V30 31 1 2 29
M  V30 32 1 4 30
M  V30 33 1 5 31
M  V30 34 1 11 32
M  V30 35 1 13 33
M  V30 36 1 14 34
M  V30 37 1 17 35
M  V30 38 1 17 36
M  V30 39 1 18 37
M  V30 40 1 22 38
M  V30 41 1 22 39
M  V30 42 1 22 40
M  V30 43 1 23 41
M  V30 44 1 24 42
M  V30 END BOND
M  V30 END CTAB
M  END
>  <Dataset>  (20) 
ChEMBL_Kinases

>  <Ligand_Instance>  (20) 
nan

>  <PDB_ID>  (20) 
nan

>  <Standardized_SMILES>  (20) 
CCc1ccc(/N=C2\S/C(=C\c3ccnc(N)c3)C(=O)N2C)cc1

>  <Name>  (20) 
nan

>  <Pocket>  (20) 
nan

>  <ATP_Site>  (20) 
nan

>  <Peripheral>  (20) 
nan

>  <Num_H_Atoms_ProtBoundConf>  (20) 
nan

>  <Num_Resolved_Atoms>  (20) 
nan

>  <Num_Not_Resolved_Atoms>  (20) 
nan

$$$$
CHEMBL394124
     RDKit          3D

  0  0  0  0  0  0  0  0  0  0999 V3000
M  V30 BEGIN CTAB
M  V30 COUNTS 39 42 0 0 0
M  V30 BEGIN ATOM
M  V30 1 C 1.801815 -5.902852 2.761290 0
M  V30 2 O 2.048626 -4.498549 2.613356 0
M  V30 3 C 1.088822 -3.737666 1.949305 0
M  V30 4 C -0.071150 -4.285540 1.439049 0
M  V30 5 C -0.974673 -3.466723 0.793521 0
M  V30 6 C -0.752438 -2.100341 0.640040 0
M  V30 7 N -1.438873 -1.091363 0.072564 0
M  V30 8 C -0.746110 0.050392 0.215065 0
M  V30 9 C 0.411785 -0.273128 0.897761 0
M  V30 10 C 0.428569 -1.625499 1.176069 0
M  V30 11 C 1.381982 -2.377276 1.834886 0
M  V30 12 C 1.301307 0.904158 1.138231 0
M  V30 13 C 2.123298 1.270277 -0.051672 0
M  V30 14 C 1.515861 2.257207 -0.985453 0
M  V30 15 C 0.529625 3.200652 -0.374174 0
M  V30 16 N -0.384845 2.445572 0.442471 0
M  V30 17 C 0.362813 2.004785 1.600243 0
M  V30 18 C -1.079890 1.402213 -0.232375 0
M  V30 19 C -2.558816 1.658117 -0.100781 0
M  V30 20 O -3.498169 0.956445 -0.564276 0
M  V30 21 O -3.397116 2.602164 0.479608 0
M  V30 22 H 0.778693 -6.029911 3.183665 0
M  V30 23 H 1.771769 -6.427314 1.783127 0
M  V30 24 H 2.496925 -6.355641 3.485096 0
M  V30 25 H -0.247249 -5.349355 1.556893 0
M  V30 26 H -1.885149 -3.882511 0.390151 0
M  V30 27 H -2.368215 -1.254151 -0.391222 0
M  V30 28 H 2.279498 -1.923218 2.223676 0
M  V30 29 H 2.023858 0.660627 1.971358 0
M  V30 30 H 3.127484 1.625440 0.253344 0
M  V30 31 H 2.290911 0.312266 -0.624696 0
M  V30 32 H 2.323721 2.892573 -1.429372 0
M  V30 33 H 1.061196 1.743463 -1.863441 0
M  V30 34 H -0.025004 3.706903 -1.166392 0
M  V30 35 H 1.022399 3.930399 0.298159 0
M  V30 36 H 0.940337 2.859281 1.977503 0
M  V30 37 H -0.317992 1.551206 2.342222 0
M  V30 38 H -0.887779 1.440560 -1.342608 0
M  V30 39 H -3.890865 2.465533 1.353922 0
M  V30 END ATOM
M  V30 BEGIN BOND
M  V30 1 1 1 2
M  V30 2 1 2 3
M  V30 3 2 3 4
M  V30 4 1 4 5
M  V30 5 2 5 6
M  V30 6 1 6 7
M  V30 7 1 7 8
M  V30 8 2 8 9
M  V30 9 1 9 10
M  V30 10 2 10 11
M  V30 11 1 9 12
M  V30 12 1 12 13
M  V30 13 1 13 14
M  V30 14 1 14 15
M  V30 15 1 15 16
M  V30 16 1 16 17
M  V30 17 1 16 18
M  V30 18 1 18 19
M  V30 19 2 19 20
M  V30 20 1 19 21
M  V30 21 1 11 3
M  V30 22 1 17 12
M  V30 23 1 10 6
M  V30 24 1 18 8
M  V30 25 1 1 22
M  V30 26 1 1 23
M  V30 27 1 1 24
M  V30 28 1 4 25
M  V30 29 1 5 26
M  V30 30 1 7 27
M  V30 31 1 11 28
M  V30 32 1 12 29
M  V30 33 1 13 30
M  V30 34 1 13 31
M  V30 35 1 14 32
M  V30 36 1 14 33
M  V30 37 1 15 34
M  V30 38 1 15 35
M  V30 39 1 17 36
M  V30 40 1 17 37
M  V30 41 1 18 38
M  V30 42 1 21 39
M  V30 END BOND
M  V30 END CTAB
M  END
>  <Dataset>  (21) 
ChEMBL_Kinases

>  <Ligand_Instance>  (21) 
nan

>  <PDB_ID>  (21) 
nan

>  <Standardized_SMILES>  (21) 
COc1ccc2[nH]c3c(c2c1)C1CCCN(C1)C3C(=O)O

>  <Name>  (21) 
nan

>  <Pocket>  (21) 
nan

>  <ATP_Site>  (21) 
nan

>  <Peripheral>  (21) 
nan

>  <Num_H_Atoms_ProtBoundConf>  (21) 
nan

>  <Num_Resolved_Atoms>  (21) 
nan

>  <Num_Not_Resolved_Atoms>  (21) 
nan

$$$$
CHEMBL3941144
     RDKit          3D

  0  0  0  0  0  0  0  0  0  0999 V3000
M  V30 BEGIN CTAB
M  V30 COUNTS 67 71 0 0 0
M  V30 BEGIN ATOM
M  V30 1 C 5.026592 -1.964443 0.122209 0
M  V30 2 O 4.085876 -0.982505 0.348407 0
M  V30 3 C 4.129924 -0.590203 1.683779 0 CFG=2
M  V30 4 C 2.789136 -0.730963 2.375761 0
M  V30 5 N 2.253958 0.534597 2.389587 0
M  V30 6 C 0.895559 0.792427 2.659902 0
M  V30 7 C 0.508858 1.904319 1.674817 0 CFG=2
M  V30 8 C -0.953673 2.126726 1.568356 0
M  V30 9 N 1.165455 1.534747 0.409523 0
M  V30 10 C 0.949803 0.861905 -0.832371 0
M  V30 11 O 1.920001 0.890653 -1.665707 0
M  V30 12 N -0.205986 0.139444 -1.309810 0
M  V30 13 C -1.473616 -0.162613 -0.666133 0
M  V30 14 C -1.961217 -1.341192 -1.423050 0
M  V30 15 C -2.864166 -2.384935 -1.445863 0
M  V30 16 N -3.858339 -2.701279 -0.477966 0
M  V30 17 C -3.887711 -3.509164 0.692370 0
M  V30 18 O -2.819746 -4.112716 1.001684 0
M  V30 19 C -5.135780 -3.576289 1.435357 0
M  V30 20 C -5.110823 -4.369466 2.557052 0
M  V30 21 C -6.271989 -4.478550 3.314817 0
M  V30 22 C -7.421558 -3.807363 2.950416 0
M  V30 23 C -7.385436 -3.020456 1.806044 0
M  V30 24 N -6.253837 -2.920461 1.076608 0
M  V30 25 N -2.674406 -3.119548 -2.579092 0
M  V30 26 N -1.670852 -2.568515 -3.280534 0
M  V30 27 C -1.249383 -1.504154 -2.581761 0
M  V30 28 C -0.251751 -0.423290 -2.652103 0
M  V30 29 C -0.756474 0.583477 -3.658065 0
M  V30 30 C 1.085741 -1.003308 -3.044520 0
M  V30 31 C 2.550794 2.039664 0.570770 0
M  V30 32 C 3.062632 1.550371 1.907397 0 CFG=2
M  V30 33 C 4.426092 0.911416 1.796346 0
M  V30 34 C 5.086996 1.097863 3.150983 0
M  V30 35 H 4.877383 -2.874263 0.735893 0
M  V30 36 H 4.914755 -2.290821 -0.949422 0
M  V30 37 H 6.067198 -1.565415 0.194940 0
M  V30 38 H 4.917507 -1.189287 2.179708 0
M  V30 39 H 2.162832 -1.417752 1.754439 0
M  V30 40 H 2.931030 -1.181581 3.392325 0
M  V30 41 H 0.282233 -0.095033 2.526951 0
M  V30 42 H 0.792270 1.239003 3.671953 0
M  V30 43 H 0.951097 2.869227 2.025181 0
M  V30 44 H -1.155842 2.453942 0.516181 0
M  V30 45 H -1.600546 1.322671 1.929939 0
M  V30 46 H -1.239602 3.024176 2.189600 0
M  V30 47 H -1.330220 -0.443334 0.400575 0
M  V30 48 H -2.169169 0.687495 -0.711443 0
M  V30 49 H -4.739052 -2.180415 -0.765881 0
M  V30 50 H -4.257186 -4.923525 2.907374 0
M  V30 51 H -6.272848 -5.098214 4.201642 0
M  V30 52 H -8.355804 -3.872567 3.527810 0
M  V30 53 H -8.262126 -2.473705 1.478206 0
M  V30 54 H -1.361755 -2.978698 -4.188184 0
M  V30 55 H -1.381799 1.363483 -3.170263 0
M  V30 56 H -1.311167 0.013062 -4.448780 0
M  V30 57 H 0.136408 1.003789 -4.163692 0
M  V30 58 H 0.848544 -1.899050 -3.686040 0
M  V30 59 H 1.700450 -0.326249 -3.642573 0
M  V30 60 H 1.583382 -1.367751 -2.149132 0
M  V30 61 H 2.476042 3.165685 0.550880 0
M  V30 62 H 3.204397 1.733692 -0.257422 0
M  V30 63 H 3.076227 2.434131 2.597355 0
M  V30 64 H 5.042754 1.288494 0.981711 0
M  V30 65 H 4.642889 1.967720 3.696384 0
M  V30 66 H 6.194412 1.185337 3.078906 0
M  V30 67 H 4.915394 0.229341 3.824444 0
M  V30 END ATOM
M  V30 BEGIN BOND
M  V30 1 1 1 2
M  V30 2 1 2 3
M  V30 3 1 3 4
M  V30 4 1 4 5
M  V30 5 1 5 6
M  V30 6 1 6 7
M  V30 7 1 7 8
M  V30 8 1 7 9
M  V30 9 1 9 10
M  V30 10 2 10 11
M  V30 11 1 10 12
M  V30 12 1 12 13
M  V30 13 1 13 14
M  V30 14 1 14 15
M  V30 15 1 15 16
M  V30 16 1 16 17
M  V30 17 2 17 18
M  V30 18 1 17 19
M  V30 19 2 19 20
M  V30 20 1 20 21
M  V30 21 2 21 22
M  V30 22 1 22 23
M  V30 23 2 23 24
M  V30 24 2 15 25
M  V30 25 1 25 26
M  V30 26 1 26 27
M  V30 27 1 27 28
M  V30 28 1 28 29
M  V30 29 1 28 30
M  V30 30 1 9 31
M  V30 31 1 31 32
M  V30 32 1 32 33
M  V30 33 1 33 34
M  V30 34 1 33 3
M  V30 35 1 32 5
M  V30 36 1 28 12
M  V30 37 2 27 14
M  V30 38 1 24 19
M  V30 39 1 1 35
M  V30 40 1 1 36
M  V30 41 1 1 37
M  V30 42 1 3 38 CFG=1
M  V30 43 1 4 39
M  V30 44 1 4 40
M  V30 45 1 6 41
M  V30 46 1 6 42
M  V30 47 1 7 43 CFG=1
M  V30 48 1 8 44
M  V30 49 1 8 45
M  V30 50 1 8 46
M  V30 51 1 13 47
M  V30 52 1 13 48
M  V30 53 1 16 49
M  V30 54 1 20 50
M  V30 55 1 21 51
M  V30 56 1 22 52
M  V30 57 1 23 53
M  V30 58 1 26 54
M  V30 59 1 29 55
M  V30 60 1 29 56
M  V30 61 1 29 57
M  V30 62 1 30 58
M  V30 63 1 30 59
M  V30 64 1 30 60
M  V30 65 1 31 61
M  V30 66 1 31 62
M  V30 67 1 32 63 CFG=1
M  V30 68 1 33 64
M  V30 69 1 34 65
M  V30 70 1 34 66
M  V30 71 1 34 67
M  V30 END BOND
M  V30 END CTAB
M  END
>  <Dataset>  (22) 
ChEMBL_Kinases

>  <Ligand_Instance>  (22) 
nan

>  <PDB_ID>  (22) 
nan

>  <Standardized_SMILES>  (22) 
CO[C@@H]1CN2C[C@H](C)N(C(=O)N3Cc4c(NC(=O)c5ccccn5)n[nH]c4C3(C)C)C[C@@H]2C1C

>  <Name>  (22) 
nan

>  <Pocket>  (22) 
nan

>  <ATP_Site>  (22) 
nan

>  <Peripheral>  (22) 
nan

>  <Num_H_Atoms_ProtBoundConf>  (22) 
nan

>  <Num_Resolved_Atoms>  (22) 
nan

>  <Num_Not_Resolved_Atoms>  (22) 
nan

$$$$
CHEMBL3702152
     RDKit          3D

  0  0  0  0  0  0  0  0  0  0999 V3000
M  V30 BEGIN CTAB
M  V30 COUNTS 66 72 0 0 0
M  V30 BEGIN ATOM
M  V30 1 O 4.569985 -1.593730 4.750731 0
M  V30 2 C 4.741490 -0.415035 4.367303 0
M  V30 3 C 3.700398 0.644346 4.420609 0
M  V30 4 O 3.556901 1.193156 3.162144 0
M  V30 5 C 4.698327 1.683738 2.592972 0
M  V30 6 C 4.901022 0.890939 1.293808 0
M  V30 7 C 4.009127 1.432461 0.201572 0
M  V30 8 N 2.971285 2.272361 0.708194 0
M  V30 9 C 1.573481 2.052383 0.600152 0
M  V30 10 C 1.003073 0.949785 0.004564 0
M  V30 11 C -0.373842 0.877695 -0.025437 0
M  V30 12 C -1.239983 1.816728 0.491028 0
M  V30 13 N -2.649820 1.721804 0.460749 0
M  V30 14 C -3.471202 0.697337 -0.036263 0
M  V30 15 N -4.816233 0.934613 -0.024269 0
M  V30 16 C -5.704844 0.036525 -0.464034 0
M  V30 17 C -5.191958 -1.153584 -0.934907 0
M  V30 18 C -5.944586 -2.214923 -1.442321 0
M  V30 19 C -7.293013 -2.436303 -1.635379 0
M  V30 20 C -7.737593 -3.622849 -2.182307 0
M  V30 21 N -6.787864 -4.506032 -2.497578 0
M  V30 22 C -5.468899 -4.316536 -2.320547 0
M  V30 23 C -4.987663 -3.149555 -1.778936 0
M  V30 24 N -3.745212 -2.717383 -1.507282 0
M  V30 25 C -2.470519 -3.318960 -1.666227 0
M  V30 26 C -2.404957 -4.787243 -1.878564 0
M  V30 27 C -0.920410 -5.082594 -1.529369 0
M  V30 28 C -0.685657 -4.232902 -0.302785 0
M  V30 29 C -1.769895 -3.193633 -0.295685 0
M  V30 30 C -3.848665 -1.462389 -0.976527 0
M  V30 31 N -3.057999 -0.483079 -0.509146 0
M  V30 32 N -0.590785 2.852692 1.049526 0
M  V30 33 N 0.720595 2.959888 1.098970 0
M  V30 34 C 3.476585 3.446308 1.389316 0
M  V30 35 C 4.662939 3.147472 2.244647 0
M  V30 36 C 5.940425 1.420397 3.412802 0
M  V30 37 N 6.007509 0.018004 3.825587 0
M  V30 38 H 2.729405 0.118636 4.631900 0
M  V30 39 H 3.885746 1.383479 5.214862 0
M  V30 40 H 5.946636 0.915479 0.971356 0
M  V30 41 H 4.645388 -0.188085 1.503139 0
M  V30 42 H 4.667992 2.066975 -0.460924 0
M  V30 43 H 3.619471 0.622079 -0.428817 0
M  V30 44 H 1.627955 0.197459 -0.408999 0
M  V30 45 H -0.756106 0.003239 -0.506965 0
M  V30 46 H -3.106625 2.565299 0.884690 0
M  V30 47 H -6.762562 0.251076 -0.442613 0
M  V30 48 H -7.995451 -1.665250 -1.350911 0
M  V30 49 H -8.786945 -3.830905 -2.347387 0
M  V30 50 H -4.811183 -5.109708 -2.626302 0
M  V30 51 H -1.798603 -2.771780 -2.367341 0
M  V30 52 H -3.036323 -5.322591 -1.155295 0
M  V30 53 H -2.480380 -5.139751 -2.918656 0
M  V30 54 H -0.772656 -6.140005 -1.317200 0
M  V30 55 H -0.257035 -4.767563 -2.338721 0
M  V30 56 H -0.754861 -4.892945 0.597053 0
M  V30 57 H 0.291846 -3.757894 -0.257847 0
M  V30 58 H -1.473555 -2.186796 -0.049583 0
M  V30 59 H -2.539443 -3.523657 0.455134 0
M  V30 60 H 3.633361 4.292320 0.690637 0
M  V30 61 H 2.662969 3.803048 2.077886 0
M  V30 62 H 4.630245 3.749665 3.176038 0
M  V30 63 H 5.598271 3.341290 1.652890 0
M  V30 64 H 6.863246 1.700492 2.867479 0
M  V30 65 H 5.893977 2.010355 4.331130 0
M  V30 66 H 6.820460 -0.660166 3.773493 0
M  V30 END ATOM
M  V30 BEGIN BOND
M  V30 1 2 1 2
M  V30 2 1 2 3
M  V30 3 1 3 4
M  V30 4 1 4 5
M  V30 5 1 5 6
M  V30 6 1 6 7
M  V30 7 1 7 8
M  V30 8 1 8 9
M  V30 9 2 9 10
M  V30 10 1 10 11
M  V30 11 2 11 12
M  V30 12 1 12 13
M  V30 13 1 13 14
M  V30 14 2 14 15
M  V30 15 1 15 16
M  V30 16 2 16 17
M  V30 17 1 17 18
M  V30 18 2 18 19
M  V30 19 1 19 20
M  V30 20 2 20 21
M  V30 21 1 21 22
M  V30 22 2 22 23
M  V30 23 1 23 24
M  V30 24 1 24 25
M  V30 25 1 25 26
M  V30 26 1 26 27
M  V30 27 1 27 28
M  V30 28 1 28 29
M  V30 29 1 24 30
M  V30 30 2 30 31
M  V30 31 1 12 32
M  V30 32 2 32 33
M  V30 33 1 8 34
M  V30 34 1 34 35
M  V30 35 1 5 36
M  V30 36 1 36 37
M  V30 37 1 37 2
M  V30 38 1 35 5
M  V30 39 1 33 9
M  V30 40 1 31 14
M  V30 41 1 30 17
M  V30 42 1 23 18
M  V30 43 1 29 25
M  V30 44 1 3 38
M  V30 45 1 3 39
M  V30 46 1 6 40
M  V30 47 1 6 41
M  V30 48 1 7 42
M  V30 49 1 7 43
M  V30 50 1 10 44
M  V30 51 1 11 45
M  V30 52 1 13 46
M  V30 53 1 16 47
M  V30 54 1 19 48
M  V30 55 1 20 49
M  V30 56 1 22 50
M  V30 57 1 25 51
M  V30 58 1 26 52
M  V30 59 1 26 53
M  V30 60 1 27 54
M  V30 61 1 27 55
M  V30 62 1 28 56
M  V30 63 1 28 57
M  V30 64 1 29 58
M  V30 65 1 29 59
M  V30 66 1 34 60
M  V30 67 1 34 61
M  V30 68 1 35 62
M  V30 69 1 35 63
M  V30 70 1 36 64
M  V30 71 1 36 65
M  V30 72 1 37 66
M  V30 END BOND
M  V30 END CTAB
M  END
>  <Dataset>  (23) 
ChEMBL_Kinases

>  <Ligand_Instance>  (23) 
nan

>  <PDB_ID>  (23) 
nan

>  <Standardized_SMILES>  (23) 
O=C1COC2(CCN(c3ccc(Nc4ncc5c6ccncc6n(C6CCCC6)c5n4)nn3)CC2)CN1

>  <Name>  (23) 
nan

>  <Pocket>  (23) 
nan

>  <ATP_Site>  (23) 
nan

>  <Peripheral>  (23) 
nan

>  <Num_H_Atoms_ProtBoundConf>  (23) 
nan

>  <Num_Resolved_Atoms>  (23) 
nan

>  <Num_Not_Resolved_Atoms>  (23) 
nan

$$$$
CHEMBL3940603
     RDKit          3D

  0  0  0  0  0  0  0  0  0  0999 V3000
M  V30 BEGIN CTAB
M  V30 COUNTS 53 54 0 0 0
M  V30 BEGIN ATOM
M  V30 1 C -3.905935 -3.267981 -4.459192 0
M  V30 2 C -5.065468 -2.392199 -4.056899 0
M  V30 3 N -5.188137 -2.193694 -2.638426 0
M  V30 4 C -4.177095 -1.562447 -1.898146 0
M  V30 5 C -4.391777 -1.432516 -0.547272 0
M  V30 6 C -3.466204 -0.827200 0.269624 0
M  V30 7 O -3.369317 -0.534035 1.616901 0
M  V30 8 C -2.302231 -0.345255 -0.281050 0
M  V30 9 C -2.147124 -0.503470 -1.656198 0
M  V30 10 C -3.036414 -1.097816 -2.508828 0
M  V30 11 C -0.990742 0.134501 -2.033679 0
M  V30 12 C -0.029919 0.686801 -2.343050 0
M  V30 13 C 1.121363 1.376910 -2.714597 0
M  V30 14 C 2.328186 0.653610 -3.169316 0 CFG=2
M  V30 15 O 2.119688 -0.171530 -4.255711 0
M  V30 16 C 2.936294 -0.041824 -1.973934 0 CFG=2
M  V30 17 O 1.988053 -1.045205 -1.633363 0
M  V30 18 C 3.168336 0.862820 -0.874568 0
M  V30 19 O 3.939964 1.635458 -1.574089 0
M  V30 20 C 3.401009 1.774313 0.236340 0
M  V30 21 C 2.895232 1.621877 1.459168 0
M  V30 22 C 2.063098 0.436607 1.609176 0 CFG=1
M  V30 23 C 2.759513 -0.424970 2.699283 0
M  V30 24 C 0.629970 0.695441 2.056770 0 CFG=2
M  V30 25 C 0.462013 1.055070 3.477783 0
M  V30 26 O -0.261533 -0.176408 1.444155 0
M  V30 27 C -1.258736 0.239070 0.577012 0
M  V30 28 O -1.623402 1.360847 0.196810 0
M  V30 29 H -3.259666 -2.823311 -5.243428 0
M  V30 30 H -4.294478 -4.260382 -4.838864 0
M  V30 31 H -3.319446 -3.520618 -3.573043 0
M  V30 32 H -5.981368 -2.814852 -4.517060 0
M  V30 33 H -4.867320 -1.393211 -4.550668 0
M  V30 34 H -6.072322 -2.549831 -2.211095 0
M  V30 35 H -5.239042 -1.752969 0.036979 0
M  V30 36 H -3.624709 0.404323 1.894383 0
M  V30 37 H -2.836503 -1.179187 -3.562827 0
M  V30 38 H 1.461697 1.974171 -1.802328 0
M  V30 39 H 0.857499 2.096571 -3.532555 0
M  V30 40 H 3.080919 1.465210 -3.426712 0
M  V30 41 H 2.354100 0.344156 -5.068993 0
M  V30 42 H 3.884112 -0.591248 -2.292677 0
M  V30 43 H 2.413245 -1.828464 -1.218085 0
M  V30 44 H 3.914177 2.678497 0.484579 0
M  V30 45 H 2.879107 2.083838 2.412280 0
M  V30 46 H 2.016827 -0.237772 0.760778 0
M  V30 47 H 3.035558 0.179422 3.571139 0
M  V30 48 H 2.123667 -1.251108 3.012130 0
M  V30 49 H 3.696473 -0.850610 2.287765 0
M  V30 50 H 0.376891 1.705688 1.530997 0
M  V30 51 H -0.475366 1.657156 3.604754 0
M  V30 52 H 0.341078 0.207300 4.179496 0
M  V30 53 H 1.278957 1.735913 3.768760 0
M  V30 END ATOM
M  V30 BEGIN BOND
M  V30 1 1 1 2
M  V30 2 1 2 3
M  V30 3 1 3 4
M  V30 4 2 4 5
M  V30 5 1 5 6
M  V30 6 1 6 7
M  V30 7 2 6 8
M  V30 8 1 8 9
M  V30 9 2 9 10
M  V30 10 1 9 11
M  V30 11 3 11 12
M  V30 12 1 12 13
M  V30 13 1 13 14
M  V30 14 1 14 15
M  V30 15 1 14 16
M  V30 16 1 16 17
M  V30 17 1 16 18
M  V30 18 2 18 19
M  V30 19 1 18 20
M  V30 20 2 20 21
M  V30 21 1 21 22
M  V30 22 1 22 23
M  V30 23 1 22 24
M  V30 24 1 24 25
M  V30 25 1 24 26
M  V30 26 1 26 27
M  V30 27 2 27 28
M  V30 28 1 10 4
M  V30 29 1 27 8
M  V30 30 1 1 29
M  V30 31 1 1 30
M  V30 32 1 1 31
M  V30 33 1 2 32
M  V30 34 1 2 33
M  V30 35 1 3 34
M  V30 36 1 5 35
M  V30 37 1 7 36
M  V30 38 1 10 37
M  V30 39 1 13 38
M  V30 40 1 13 39
M  V30 41 1 14 40 CFG=3
M  V30 42 1 15 41
M  V30 43 1 16 42 CFG=3
M  V30 44 1 17 43
M  V30 45 1 20 44
M  V30 46 1 21 45
M  V30 47 1 22 46 CFG=3
M  V30 48 1 23 47
M  V30 49 1 23 48
M  V30 50 1 23 49
M  V30 51 1 24 50 CFG=3
M  V30 52 1 25 51
M  V30 53 1 25 52
M  V30 54 1 25 53
M  V30 END BOND
M  V30 END CTAB
M  END
>  <Dataset>  (24) 
ChEMBL_Kinases

>  <Ligand_Instance>  (24) 
nan

>  <PDB_ID>  (24) 
nan

>  <Standardized_SMILES>  (24) 
CCNc1cc(O)c2c(c1)C#CC[C@H](O)[C@H](O)C(=O)/C=C\[C@@H](C)[C@H](C)OC2=O

>  <Name>  (24) 
nan

>  <Pocket>  (24) 
nan

>  <ATP_Site>  (24) 
nan

>  <Peripheral>  (24) 
nan

>  <Num_H_Atoms_ProtBoundConf>  (24) 
nan

>  <Num_Resolved_Atoms>  (24) 
nan

>  <Num_Not_Resolved_Atoms>  (24) 
nan

$$$$
CHEMBL3940534
     RDKit          3D

  0  0  0  0  0  0  0  0  0  0999 V3000
M  V30 BEGIN CTAB
M  V30 COUNTS 46 50 0 0 0
M  V30 BEGIN ATOM
M  V30 1 F 0.595078 -6.418776 3.025499 0
M  V30 2 C 0.447904 -5.749642 1.844886 0
M  V30 3 C -0.372941 -4.647292 1.742464 0
M  V30 4 C -0.523434 -3.967959 0.547251 0
M  V30 5 C 0.152275 -4.382457 -0.583608 0
M  V30 6 C 0.058915 -3.727846 -1.899873 0
M  V30 7 N -0.091563 -4.316649 -3.106346 0
M  V30 8 N -0.131209 -3.386028 -4.028497 0
M  V30 9 C -0.012751 -2.142710 -3.512770 0
M  V30 10 C 0.006603 -0.861937 -4.028358 0
M  V30 11 C 0.149287 0.249095 -3.192039 0
M  V30 12 C 0.270270 0.027939 -1.835470 0
M  V30 13 C 0.423277 1.137427 -0.893198 0
M  V30 14 N 0.076072 2.432593 -1.017689 0
M  V30 15 N 0.404134 3.093246 0.095163 0
M  V30 16 C 0.969774 2.226189 0.954422 0
M  V30 17 C 1.530854 2.348635 2.325712 0
M  V30 18 N 0.476392 2.107480 3.264408 0
M  V30 19 C -0.579594 3.063934 3.089616 0
M  V30 20 C -1.188870 3.275305 4.460710 0
M  V30 21 C -0.507227 2.246630 5.321727 0
M  V30 22 C 0.852613 2.098456 4.636028 0
M  V30 23 N 0.982734 1.024341 0.349863 0
M  V30 24 C 0.248475 -1.270585 -1.334888 0
M  V30 25 C 0.107171 -2.371856 -2.162571 0
M  V30 26 C 0.972084 -5.492795 -0.458196 0
M  V30 27 C 1.135103 -6.184117 0.726664 0
M  V30 28 H -0.915961 -4.297775 2.610800 0
M  V30 29 H -1.154730 -3.119588 0.467088 0
M  V30 30 H -0.243081 -3.616271 -5.040907 0
M  V30 31 H -0.091001 -0.740032 -5.091339 0
M  V30 32 H 0.164070 1.251579 -3.599339 0
M  V30 33 H 0.286946 4.094535 0.351029 0
M  V30 34 H 1.837211 3.421177 2.459836 0
M  V30 35 H 2.428185 1.751353 2.476399 0
M  V30 36 H -0.204494 4.044557 2.699356 0
M  V30 37 H -1.324860 2.711192 2.348995 0
M  V30 38 H -0.934916 4.269002 4.842356 0
M  V30 39 H -2.301988 3.099664 4.418177 0
M  V30 40 H -1.109804 1.309837 5.210114 0
M  V30 41 H -0.398768 2.548968 6.379401 0
M  V30 42 H 1.301720 1.137830 4.900863 0
M  V30 43 H 1.437896 2.986506 4.943829 0
M  V30 44 H 0.344998 -1.399406 -0.279175 0
M  V30 45 H 1.522364 -5.855535 -1.317011 0
M  V30 46 H 1.793085 -7.054686 0.776518 0
M  V30 END ATOM
M  V30 BEGIN BOND
M  V30 1 1 1 2
M  V30 2 2 2 3
M  V30 3 1 3 4
M  V30 4 2 4 5
M  V30 5 1 5 6
M  V30 6 2 6 7
M  V30 7 1 7 8
M  V30 8 1 8 9
M  V30 9 2 9 10
M  V30 10 1 10 11
M  V30 11 2 11 12
M  V30 12 1 12 13
M  V30 13 2 13 14
M  V30 14 1 14 15
M  V30 15 1 15 16
M  V30 16 1 16 17
M  V30 17 1 17 18
M  V30 18 1 18 19
M  V30 19 1 19 20
M  V30 20 1 20 21
M  V30 21 1 21 22
M  V30 22 2 16 23
M  V30 23 1 12 24
M  V30 24 2 24 25
M  V30 25 1 5 26
M  V30 26 2 26 27
M  V30 27 1 27 2
M  V30 28 1 25 6
M  V30 29 1 25 9
M  V30 30 1 23 13
M  V30 31 1 22 18
M  V30 32 1 3 28
M  V30 33 1 4 29
M  V30 34 1 8 30
M  V30 35 1 10 31
M  V30 36 1 11 32
M  V30 37 1 15 33
M  V30 38 1 17 34
M  V30 39 1 17 35
M  V30 40 1 19 36
M  V30 41 1 19 37
M  V30 42 1 20 38
M  V30 43 1 20 39
M  V30 44 1 21 40
M  V30 45 1 21 41
M  V30 46 1 22 42
M  V30 47 1 22 43
M  V30 48 1 24 44
M  V30 49 1 26 45
M  V30 50 1 27 46
M  V30 END BOND
M  V30 END CTAB
M  END
>  <Dataset>  (25) 
ChEMBL_Kinases

>  <Ligand_Instance>  (25) 
nan

>  <PDB_ID>  (25) 
nan

>  <Standardized_SMILES>  (25) 
Fc1ccc(-c2n[nH]c3ccc(-c4n[nH]c(CN5CCCC5)n4)cc23)cc1

>  <Name>  (25) 
nan

>  <Pocket>  (25) 
nan

>  <ATP_Site>  (25) 
nan

>  <Peripheral>  (25) 
nan

>  <Num_H_Atoms_ProtBoundConf>  (25) 
nan

>  <Num_Resolved_Atoms>  (25) 
nan

>  <Num_Not_Resolved_Atoms>  (25) 
nan

$$$$
CHEMBL3940515
     RDKit          3D

  0  0  0  0  0  0  0  0  0  0999 V3000
M  V30 BEGIN CTAB
M  V30 COUNTS 67 70 0 0 0
M  V30 BEGIN ATOM
M  V30 1 C 4.920934 -2.518100 4.282347 0
M  V30 2 O 5.450963 -1.571318 3.392842 0
M  V30 3 C 4.577845 -1.578107 2.289120 0
M  V30 4 C 4.990436 -0.627193 1.233400 0
M  V30 5 C 5.076939 0.818280 1.564712 0
M  V30 6 N 3.914253 1.469526 1.961940 0
M  V30 7 C 3.293286 1.246550 3.200924 0
M  V30 8 C 1.838970 0.838875 3.043269 0
M  V30 9 N 1.429815 0.925439 1.656855 0
M  V30 10 C 0.702891 -0.068647 0.997121 0
M  V30 11 O 0.418555 0.142520 -0.205646 0
M  V30 12 N -0.016679 -1.207836 0.587994 0
M  V30 13 C -0.608766 -1.550104 -0.680477 0
M  V30 14 C -1.996825 -1.945379 -0.232506 0
M  V30 15 C -3.344814 -1.970845 -0.593324 0
M  V30 16 N -3.885602 -1.499784 -1.820782 0
M  V30 17 C -5.270129 -1.561189 -2.098775 0
M  V30 18 O -5.870113 -2.083895 -1.096444 0
M  V30 19 C -5.957822 -1.119922 -3.304401 0
M  V30 20 C -7.332375 -1.299804 -3.281398 0
M  V30 21 C -8.128129 -0.935278 -4.343843 0
M  V30 22 C -7.607060 -0.372037 -5.488147 0
M  V30 23 F -8.303582 0.017901 -6.581557 0
M  V30 24 C -6.239648 -0.190606 -5.516119 0
M  V30 25 C -5.454576 -0.556047 -4.455126 0
M  V30 26 F -4.114101 -0.387636 -4.461974 0
M  V30 27 N -3.945169 -2.528203 0.472229 0
M  V30 28 N -3.092391 -2.830467 1.414957 0
M  V30 29 C -1.850699 -2.486615 1.027703 0
M  V30 30 C -0.402241 -2.403977 1.289299 0
M  V30 31 C -0.111176 -2.366493 2.768629 0
M  V30 32 C 0.225970 -3.637076 0.673731 0
M  V30 33 C 1.826766 2.143079 0.980999 0 CFG=1
M  V30 34 C 1.107543 3.322943 1.644075 0
M  V30 35 C 3.305516 2.394234 1.067939 0
M  V30 36 H 3.891347 -2.250278 4.594884 0
M  V30 37 H 4.869924 -3.491687 3.767692 0
M  V30 38 H 5.530633 -2.635539 5.197850 0
M  V30 39 H 4.600750 -2.621062 1.820710 0
M  V30 40 H 3.551451 -1.466283 2.657888 0
M  V30 41 H 5.979753 -0.981982 0.810638 0
M  V30 42 H 4.292710 -0.702229 0.352050 0
M  V30 43 H 5.946556 1.010671 2.289031 0
M  V30 44 H 5.447297 1.327258 0.604351 0
M  V30 45 H 3.273632 2.242737 3.765288 0
M  V30 46 H 3.874766 0.539835 3.813786 0
M  V30 47 H 1.725147 -0.187391 3.416046 0
M  V30 48 H 1.178882 1.459762 3.700338 0
M  V30 49 H -0.650719 -0.754960 -1.424742 0
M  V30 50 H -0.128876 -2.484759 -1.100250 0
M  V30 51 H -3.251813 -1.099352 -2.534061 0
M  V30 52 H -7.843971 -1.732695 -2.431445 0
M  V30 53 H -9.185092 -1.081482 -4.308852 0
M  V30 54 H -5.716451 0.250267 -6.378879 0
M  V30 55 H -3.310074 -3.275174 2.347605 0
M  V30 56 H 0.950095 -2.418992 3.004567 0
M  V30 57 H -0.608391 -3.287718 3.192952 0
M  V30 58 H -0.660947 -1.510544 3.198701 0
M  V30 59 H 0.417909 -4.349954 1.503365 0
M  V30 60 H 1.219476 -3.443126 0.219392 0
M  V30 61 H -0.469485 -4.170975 -0.007954 0
M  V30 62 H 1.473391 2.125673 -0.085651 0
M  V30 63 H 0.016022 3.149322 1.709329 0
M  V30 64 H 1.260090 4.221008 0.988813 0
M  V30 65 H 1.533195 3.463603 2.636482 0
M  V30 66 H 3.726478 2.190579 0.053137 0
M  V30 67 H 3.528293 3.442468 1.342149 0
M  V30 END ATOM
M  V30 BEGIN BOND
M  V30 1 1 1 2
M  V30 2 1 2 3
M  V30 3 1 3 4
M  V30 4 1 4 5
M  V30 5 1 5 6
M  V30 6 1 6 7
M  V30 7 1 7 8
M  V30 8 1 8 9
M  V30 9 1 9 10
M  V30 10 2 10 11
M  V30 11 1 10 12
M  V30 12 1 12 13
M  V30 13 1 13 14
M  V30 14 1 14 15
M  V30 15 1 15 16
M  V30 16 1 16 17
M  V30 17 2 17 18
M  V30 18 1 17 19
M  V30 19 2 19 20
M  V30 20 1 20 21
M  V30 21 2 21 22
M  V30 22 1 22 23
M  V30 23 1 22 24
M  V30 24 2 24 25
M  V30 25 1 25 26
M  V30 26 2 15 27
M  V30 27 1 27 28
M  V30 28 1 28 29
M  V30 29 1 29 30
M  V30 30 1 30 31
M  V30 31 1 30 32
M  V30 32 1 9 33
M  V30 33 1 33 34
M  V30 34 1 33 35
M  V30 35 1 35 6
M  V30 36 1 30 12
M  V30 37 2 29 14
M  V30 38 1 25 19
M  V30 39 1 1 36
M  V30 40 1 1 37
M  V30 41 1 1 38
M  V30 42 1 3 39
M  V30 43 1 3 40
M  V30 44 1 4 41
M  V30 45 1 4 42
M  V30 46 1 5 43
M  V30 47 1 5 44
M  V30 48 1 7 45
M  V30 49 1 7 46
M  V30 50 1 8 47
M  V30 51 1 8 48
M  V30 52 1 13 49
M  V30 53 1 13 50
M  V30 54 1 16 51
M  V30 55 1 20 52
M  V30 56 1 21 53
M  V30 57 1 24 54
M  V30 58 1 28 55
M  V30 59 1 31 56
M  V30 60 1 31 57
M  V30 61 1 31 58
M  V30 62 1 32 59
M  V30 63 1 32 60
M  V30 64 1 32 61
M  V30 65 1 33 62 CFG=3
M  V30 66 1 34 63
M  V30 67 1 34 64
M  V30 68 1 34 65
M  V30 69 1 35 66
M  V30 70 1 35 67
M  V30 END BOND
M  V30 END CTAB
M  END
>  <Dataset>  (26) 
ChEMBL_Kinases

>  <Ligand_Instance>  (26) 
nan

>  <PDB_ID>  (26) 
nan

>  <Standardized_SMILES>  (26) 
COCCCN1CCN(C(=O)N2Cc3c(NC(=O)c4ccc(F)cc4F)n[nH]c3C2(C)C)[C@@H](C)C1

>  <Name>  (26) 
nan

>  <Pocket>  (26) 
nan

>  <ATP_Site>  (26) 
nan

>  <Peripheral>  (26) 
nan

>  <Num_H_Atoms_ProtBoundConf>  (26) 
nan

>  <Num_Resolved_Atoms>  (26) 
nan

>  <Num_Not_Resolved_Atoms>  (26) 
nan

$$$$
CHEMBL3940480
     RDKit          3D

  0  0  0  0  0  0  0  0  0  0999 V3000
M  V30 BEGIN CTAB
M  V30 COUNTS 48 52 0 0 0
M  V30 BEGIN ATOM
M  V30 1 O -0.896052 -4.341216 4.138433 0
M  V30 2 C -0.233604 -4.017136 3.094242 0
M  V30 3 C 0.660302 -4.956629 2.366614 0
M  V30 4 N 1.674222 -4.201299 1.690761 0
M  V30 5 C 1.549058 -2.863387 1.240744 0
M  V30 6 C 2.452252 -2.351660 0.332262 0
M  V30 7 C 2.270282 -1.041912 -0.061564 0
M  V30 8 C 1.223382 -0.308053 0.449688 0
M  V30 9 C 1.084274 1.101790 -0.008466 0
M  V30 10 O 2.119246 1.471522 -0.859143 0
M  V30 11 C 1.156873 1.996177 1.179293 0
M  V30 12 C 2.264414 2.059907 1.996826 0
M  V30 13 C 2.258537 2.903858 3.086807 0
M  V30 14 C 1.126934 3.659201 3.314963 0
M  V30 15 C 0.005439 3.602396 2.496885 0
M  V30 16 C 0.029033 2.753978 1.412597 0
M  V30 17 C -0.847074 2.366924 0.314922 0
M  V30 18 O -2.019232 2.859746 0.172607 0
M  V30 19 N -0.212421 1.391454 -0.538332 0
M  V30 20 C -0.840753 0.860789 -1.705621 0
M  V30 21 C -1.638398 -0.337495 -1.459223 0
M  V30 22 C -2.971886 -0.127892 -1.123516 0
M  V30 23 C -3.852804 -1.157628 -0.865976 0
M  V30 24 C -3.425916 -2.468921 -0.935383 0
M  V30 25 C -2.108799 -2.710140 -1.266066 0
M  V30 26 C -1.252966 -1.659653 -1.517774 0
M  V30 27 C 0.316967 -0.797817 1.351722 0
M  V30 28 C 0.501624 -2.124754 1.750453 0
M  V30 29 N -0.443415 -2.646115 2.695928 0
M  V30 30 H 1.179389 -5.648046 3.074758 0
M  V30 31 H 0.002216 -5.517299 1.642511 0
M  V30 32 H 2.607104 -4.660307 1.498883 0
M  V30 33 H 3.272792 -2.931290 -0.066511 0
M  V30 34 H 2.984415 -0.628648 -0.783127 0
M  V30 35 H 1.891509 1.289229 -1.806636 0
M  V30 36 H 3.187530 1.501326 1.885579 0
M  V30 37 H 3.102759 2.998490 3.769845 0
M  V30 38 H 1.098828 4.337186 4.175337 0
M  V30 39 H -0.886932 4.180086 2.653718 0
M  V30 40 H -1.483457 1.668065 -2.147998 0
M  V30 41 H -0.068177 0.601796 -2.462128 0
M  V30 42 H -3.453697 0.847162 -1.029795 0
M  V30 43 H -4.892191 -1.025152 -0.603410 0
M  V30 44 H -4.101822 -3.289354 -0.737034 0
M  V30 45 H -1.728948 -3.732025 -1.332157 0
M  V30 46 H -0.194920 -1.805648 -1.784839 0
M  V30 47 H -0.497788 -0.212338 1.743489 0
M  V30 48 H -1.224104 -2.056481 3.059559 0
M  V30 END ATOM
M  V30 BEGIN BOND
M  V30 1 2 1 2
M  V30 2 1 2 3
M  V30 3 1 3 4
M  V30 4 1 4 5
M  V30 5 2 5 6
M  V30 6 1 6 7
M  V30 7 2 7 8
M  V30 8 1 8 9
M  V30 9 1 9 10
M  V30 10 1 9 11
M  V30 11 2 11 12
M  V30 12 1 12 13
M  V30 13 2 13 14
M  V30 14 1 14 15
M  V30 15 2 15 16
M  V30 16 1 16 17
M  V30 17 2 17 18
M  V30 18 1 17 19
M  V30 19 1 19 20
M  V30 20 1 20 21
M  V30 21 2 21 22
M  V30 22 1 22 23
M  V30 23 2 23 24
M  V30 24 1 24 25
M  V30 25 2 25 26
M  V30 26 1 8 27
M  V30 27 2 27 28
M  V30 28 1 28 29
M  V30 29 1 29 2
M  V30 30 1 28 5
M  V30 31 1 19 9
M  V30 32 1 26 21
M  V30 33 1 16 11
M  V30 34 1 3 30
M  V30 35 1 3 31
M  V30 36 1 4 32
M  V30 37 1 6 33
M  V30 38 1 7 34
M  V30 39 1 10 35
M  V30 40 1 12 36
M  V30 41 1 13 37
M  V30 42 1 14 38
M  V30 43 1 15 39
M  V30 44 1 20 40
M  V30 45 1 20 41
M  V30 46 1 22 42
M  V30 47 1 23 43
M  V30 48 1 24 44
M  V30 49 1 25 45
M  V30 50 1 26 46
M  V30 51 1 27 47
M  V30 52 1 29 48
M  V30 END BOND
M  V30 END CTAB
M  END
>  <Dataset>  (27) 
ChEMBL_Kinases

>  <Ligand_Instance>  (27) 
nan

>  <PDB_ID>  (27) 
nan

>  <Standardized_SMILES>  (27) 
O=C1CNc2ccc(C3(O)c4ccccc4C(=O)N3Cc3ccccc3)cc2N1

>  <Name>  (27) 
nan

>  <Pocket>  (27) 
nan

>  <ATP_Site>  (27) 
nan

>  <Peripheral>  (27) 
nan

>  <Num_H_Atoms_ProtBoundConf>  (27) 
nan

>  <Num_Resolved_Atoms>  (27) 
nan

>  <Num_Not_Resolved_Atoms>  (27) 
nan

$$$$
CHEMBL3940448
     RDKit          3D

  0  0  0  0  0  0  0  0  0  0999 V3000
M  V30 BEGIN CTAB
M  V30 COUNTS 37 39 0 0 0
M  V30 BEGIN ATOM
M  V30 1 O 0.871181 0.047512 5.126397 0
M  V30 2 C 1.274334 0.022621 3.909635 0
M  V30 3 N 2.584409 0.348134 3.515137 0
M  V30 4 C 2.829688 0.257686 2.117863 0
M  V30 5 N 3.981715 0.377563 1.587345 0
M  V30 6 C 4.247042 0.291485 0.188104 0
M  V30 7 C 3.094090 0.291631 -0.714882 0
M  V30 8 C 2.390942 -0.765384 -1.248254 0
M  V30 9 C 1.315382 -0.555841 -2.104785 0
M  V30 10 C 0.916277 0.719467 -2.449144 0
M  V30 11 C 1.594165 1.813932 -1.936220 0
M  V30 12 C 2.654182 1.566772 -1.091215 0
M  V30 13 S 1.251295 -0.040372 1.341884 0
M  V30 14 C 0.344516 -0.361062 2.855186 0
M  V30 15 C -0.862790 -0.827421 2.971414 0
M  V30 16 C -1.667039 -1.165393 1.806195 0
M  V30 17 C -1.734854 -0.520326 0.589769 0
M  V30 18 C -2.550377 -0.971281 -0.423573 0
M  V30 19 C -3.315918 -2.091904 -0.216389 0
M  V30 20 Cl -4.360602 -2.683243 -1.488376 0
M  V30 21 C -3.301621 -2.788989 0.972228 0
M  V30 22 N -4.106693 -3.937326 1.142476 0 CHG=1 VAL=4
M  V30 23 O -3.900492 -4.903730 1.891912 0
M  V30 24 O -5.263269 -4.079768 0.440877 0 CHG=-1 VAL=1
M  V30 25 C -2.470603 -2.300209 1.954740 0
M  V30 26 H 3.324270 0.639182 4.218657 0
M  V30 27 H 4.911960 -0.597341 0.014579 0
M  V30 28 H 4.936258 1.162428 -0.039298 0
M  V30 29 H 2.761147 -1.733829 -0.933095 0
M  V30 30 H 0.800431 -1.426446 -2.493026 0
M  V30 31 H 0.079087 0.896558 -3.117526 0
M  V30 32 H 1.271850 2.790562 -2.213799 0
M  V30 33 H 3.132535 2.484135 -0.731048 0
M  V30 34 H -1.284364 -0.968242 3.963579 0
M  V30 35 H -1.106589 0.352381 0.507440 0
M  V30 36 H -2.562444 -0.422296 -1.363269 0
M  V30 37 H -2.481454 -2.878070 2.891452 0
M  V30 END ATOM
M  V30 BEGIN BOND
M  V30 1 2 1 2
M  V30 2 1 2 3
M  V30 3 1 3 4
M  V30 4 2 4 5
M  V30 5 1 5 6
M  V30 6 1 6 7
M  V30 7 2 7 8
M  V30 8 1 8 9
M  V30 9 2 9 10
M  V30 10 1 10 11
M  V30 11 2 11 12
M  V30 12 1 4 13
M  V30 13 1 13 14
M  V30 14 2 14 15
M  V30 15 1 15 16
M  V30 16 2 16 17
M  V30 17 1 17 18
M  V30 18 2 18 19
M  V30 19 1 19 20
M  V30 20 1 19 21
M  V30 21 1 21 22
M  V30 22 2 22 23
M  V30 23 1 22 24
M  V30 24 2 21 25
M  V30 25 1 14 2
M  V30 26 1 25 16
M  V30 27 1 12 7
M  V30 28 1 3 26
M  V30 29 1 6 27
M  V30 30 1 6 28
M  V30 31 1 8 29
M  V30 32 1 9 30
M  V30 33 1 10 31
M  V30 34 1 11 32
M  V30 35 1 12 33
M  V30 36 1 15 34
M  V30 37 1 17 35
M  V30 38 1 18 36
M  V30 39 1 25 37
M  V30 END BOND
M  V30 END CTAB
M  END
>  <Dataset>  (28) 
ChEMBL_Kinases

>  <Ligand_Instance>  (28) 
nan

>  <PDB_ID>  (28) 
nan

>  <Standardized_SMILES>  (28) 
O=C1N/C(=N/Cc2ccccc2)S/C1=C\c1ccc(Cl)c([N+](=O)[O-])c1

>  <Name>  (28) 
nan

>  <Pocket>  (28) 
nan

>  <ATP_Site>  (28) 
nan

>  <Peripheral>  (28) 
nan

>  <Num_H_Atoms_ProtBoundConf>  (28) 
nan

>  <Num_Resolved_Atoms>  (28) 
nan

>  <Num_Not_Resolved_Atoms>  (28) 
nan

$$$$
CHEMBL4875621
     RDKit          3D

  0  0  0  0  0  0  0  0  0  0999 V3000
M  V30 BEGIN CTAB
M  V30 COUNTS 68 72 0 0 0
M  V30 BEGIN ATOM
M  V30 1 C 2.846924 -1.496505 5.699862 0
M  V30 2 C 3.582427 -0.185486 5.864403 0
M  V30 3 C 5.018415 -0.315772 5.363466 0
M  V30 4 C 2.850655 0.825671 5.027597 0
M  V30 5 C 2.337976 2.013391 5.544362 0
M  V30 6 C 1.669700 2.890128 4.684725 0
M  V30 7 C 1.517401 2.589949 3.347236 0
M  V30 8 C 0.811241 3.550586 2.511065 0
M  V30 9 C 0.586254 3.376811 1.168762 0
M  V30 10 C -0.081782 4.285612 0.387713 0
M  V30 11 N -0.327695 4.121613 -1.000572 0
M  V30 12 C -0.106499 3.012037 -1.857456 0
M  V30 13 C 0.777097 3.189231 -2.919547 0
M  V30 14 C 1.081837 2.176482 -3.836836 0
M  V30 15 N 0.477310 0.976724 -3.663535 0
M  V30 16 C -0.383436 0.756069 -2.654285 0
M  V30 17 C -1.006941 -0.465339 -2.475152 0
M  V30 18 C -1.899546 -0.698973 -1.438896 0
M  V30 19 C -2.578585 -1.963676 -1.206419 0
M  V30 20 C -3.825787 -2.172793 -0.658717 0
M  V30 21 N -4.041203 -3.507582 -0.637787 0
M  V30 22 N -3.004181 -4.143992 -1.139195 0
M  V30 23 C -2.680127 -5.539729 -1.363089 0
M  V30 24 C -3.122711 -6.025031 -2.725746 0
M  V30 25 N -2.789826 -7.420804 -2.933424 0
M  V30 26 C -3.253756 -7.781461 -4.260342 0
M  V30 27 C -1.353083 -7.635745 -2.906111 0
M  V30 28 C -2.060899 -3.228550 -1.510424 0
M  V30 29 C -2.160847 0.337347 -0.567326 0
M  V30 30 C -1.550143 1.562141 -0.728121 0
M  V30 31 C -0.673976 1.759222 -1.760794 0
M  V30 32 C -0.546339 5.429525 0.994744 0
M  V30 33 C -0.318772 5.600552 2.341547 0
M  V30 34 N 0.349977 4.674444 3.087447 0
M  V30 35 C 2.043221 1.402658 2.888000 0
M  V30 36 C 2.712152 0.497371 3.685021 0
M  V30 37 H 3.549355 -2.345255 5.554354 0
M  V30 38 H 2.210047 -1.479344 4.767460 0
M  V30 39 H 2.148287 -1.686673 6.538967 0
M  V30 40 H 3.561328 0.174876 6.902558 0
M  V30 41 H 5.683818 -0.639780 6.214311 0
M  V30 42 H 5.388512 0.628454 4.935396 0
M  V30 43 H 5.088456 -1.085052 4.569052 0
M  V30 44 H 2.495695 2.181510 6.605124 0
M  V30 45 H 1.298988 3.791620 5.156013 0
M  V30 46 H 0.942943 2.486492 0.675369 0
M  V30 47 H -0.737197 4.889846 -1.569869 0
M  V30 48 H 1.294371 4.119991 -3.116971 0
M  V30 49 H 1.769163 2.336595 -4.651666 0
M  V30 50 H -0.801827 -1.282691 -3.161593 0
M  V30 51 H -4.516971 -1.420529 -0.305996 0
M  V30 52 H -1.643887 -5.793004 -1.136287 0
M  V30 53 H -3.295741 -6.126099 -0.625545 0
M  V30 54 H -4.208198 -5.935504 -2.866913 0
M  V30 55 H -2.559919 -5.439245 -3.480335 0
M  V30 56 H -3.363591 -8.871485 -4.405047 0
M  V30 57 H -2.473402 -7.360114 -4.958827 0
M  V30 58 H -4.177529 -7.233032 -4.518636 0
M  V30 59 H -1.028786 -8.507739 -3.508507 0
M  V30 60 H -1.094771 -7.890939 -1.839792 0
M  V30 61 H -0.777889 -6.762755 -3.259824 0
M  V30 62 H -1.069811 -3.347839 -1.962166 0
M  V30 63 H -2.858005 0.186799 0.258116 0
M  V30 64 H -1.799713 2.336181 -0.017092 0
M  V30 65 H -1.088831 6.216143 0.466658 0
M  V30 66 H -0.682038 6.500111 2.826493 0
M  V30 67 H 1.934732 1.148106 1.844219 0
M  V30 68 H 3.098739 -0.416632 3.253568 0
M  V30 END ATOM
M  V30 BEGIN BOND
M  V30 1 1 1 2
M  V30 2 1 2 3
M  V30 3 1 2 4
M  V30 4 2 4 5
M  V30 5 1 5 6
M  V30 6 2 6 7
M  V30 7 1 7 8
M  V30 8 2 8 9
M  V30 9 1 9 10
M  V30 10 1 10 11
M  V30 11 1 11 12
M  V30 12 2 12 13
M  V30 13 1 13 14
M  V30 14 2 14 15
M  V30 15 1 15 16
M  V30 16 2 16 17
M  V30 17 1 17 18
M  V30 18 1 18 19
M  V30 19 1 19 20
M  V30 20 2 20 21
M  V30 21 1 21 22
M  V30 22 1 22 23
M  V30 23 1 23 24
M  V30 24 1 24 25
M  V30 25 1 25 26
M  V30 26 1 25 27
M  V30 27 1 22 28
M  V30 28 2 18 29
M  V30 29 1 29 30
M  V30 30 2 30 31
M  V30 31 2 10 32
M  V30 32 1 32 33
M  V30 33 2 33 34
M  V30 34 1 7 35
M  V30 35 2 35 36
M  V30 36 1 36 4
M  V30 37 1 34 8
M  V30 38 1 31 12
M  V30 39 1 31 16
M  V30 40 2 28 19
M  V30 41 1 1 37
M  V30 42 1 1 38
M  V30 43 1 1 39
M  V30 44 1 2 40
M  V30 45 1 3 41
M  V30 46 1 3 42
M  V30 47 1 3 43
M  V30 48 1 5 44
M  V30 49 1 6 45
M  V30 50 1 9 46
M  V30 51 1 11 47
M  V30 52 1 13 48
M  V30 53 1 14 49
M  V30 54 1 17 50
M  V30 55 1 20 51
M  V30 56 1 23 52
M  V30 57 1 23 53
M  V30 58 1 24 54
M  V30 59 1 24 55
M  V30 60 1 26 56
M  V30 61 1 26 57
M  V30 62 1 26 58
M  V30 63 1 27 59
M  V30 64 1 27 60
M  V30 65 1 27 61
M  V30 66 1 28 62
M  V30 67 1 29 63
M  V30 68 1 30 64
M  V30 69 1 32 65
M  V30 70 1 33 66
M  V30 71 1 35 67
M  V30 72 1 36 68
M  V30 END BOND
M  V30 END CTAB
M  END
>  <Dataset>  (29) 
ChEMBL_Kinases

>  <Ligand_Instance>  (29) 
nan

>  <PDB_ID>  (29) 
nan

>  <Standardized_SMILES>  (29) 
CC(C)c1ccc(-c2cc(Nc3ccnc4cc(-c5cnn(CCN(C)C)c5)ccc34)ccn2)cc1

>  <Name>  (29) 
nan

>  <Pocket>  (29) 
nan

>  <ATP_Site>  (29) 
nan

>  <Peripheral>  (29) 
nan

>  <Num_H_Atoms_ProtBoundConf>  (29) 
nan

>  <Num_Resolved_Atoms>  (29) 
nan

>  <Num_Not_Resolved_Atoms>  (29) 
nan

$$$$
CHEMBL4875628
     RDKit          3D

  0  0  0  0  0  0  0  0  0  0999 V3000
M  V30 BEGIN CTAB
M  V30 COUNTS 43 44 0 0 0
M  V30 BEGIN ATOM
M  V30 1 C -2.157930 -4.116672 2.463658 0
M  V30 2 O -1.614464 -3.106347 3.266409 0
M  V30 3 C -0.625097 -2.222598 2.882252 0
M  V30 4 C 0.012778 -2.155943 1.662820 0
M  V30 5 C 0.991711 -1.220049 1.401416 0
M  V30 6 N 1.579873 -1.258196 0.084773 0
M  V30 7 C 0.942991 -0.449231 -0.942472 0
M  V30 8 O 0.029904 0.002262 -0.151927 0
M  V30 9 C 1.525177 -0.477905 -2.273316 0 CFG=2
M  V30 10 N 2.560776 -1.543281 -2.289346 0
M  V30 11 C 2.233002 0.752797 -2.644168 0
M  V30 12 C 1.586343 2.053922 -2.716686 0
M  V30 13 C 0.995008 2.550114 -1.425858 0
M  V30 14 C 0.545239 2.226244 -3.785235 0
M  V30 15 C 1.332032 -0.331259 2.398754 0
M  V30 16 C 0.695045 -0.393110 3.625586 0
M  V30 17 C -0.296314 -1.351789 3.869263 0
M  V30 18 C -0.770314 -1.173848 5.214784 0
M  V30 19 C -1.724848 -1.928493 5.774695 0
M  V30 20 N -2.330185 -1.987048 6.941041 0
M  V30 21 C -1.649715 -0.846236 7.706261 0
M  V30 22 S -0.385494 -0.073730 6.526308 0
M  V30 23 H -2.305428 -3.815220 1.404189 0
M  V30 24 H -1.529189 -5.016375 2.478137 0
M  V30 25 H -3.187575 -4.321652 2.874628 0
M  V30 26 H -0.358727 -2.923060 0.966379 0
M  V30 27 H 2.446204 -1.882984 -0.037625 0
M  V30 28 H 0.814425 -0.848864 -3.059042 0
M  V30 29 H 2.186786 -2.451460 -2.001744 0
M  V30 30 H 3.426736 -1.247330 -1.830848 0
M  V30 31 H 2.785848 0.508914 -3.614996 0
M  V30 32 H 3.118378 0.830869 -1.924587 0
M  V30 33 H 2.391952 2.811454 -2.979452 0
M  V30 34 H 1.084357 3.680758 -1.356108 0
M  V30 35 H -0.099290 2.388179 -1.360358 0
M  V30 36 H 1.522498 2.189394 -0.541062 0
M  V30 37 H 0.964397 2.656094 -4.719573 0
M  V30 38 H 0.047216 1.282694 -4.073223 0
M  V30 39 H -0.265802 2.913245 -3.464478 0
M  V30 40 H 2.103706 0.380316 2.142139 0
M  V30 41 H 1.087916 0.386047 4.300108 0
M  V30 42 H -2.338286 -2.781165 5.424316 0
M  V30 43 H -1.396676 -0.068839 8.672979 0
M  V30 END ATOM
M  V30 BEGIN BOND
M  V30 1 1 1 2
M  V30 2 1 2 3
M  V30 3 2 3 4
M  V30 4 1 4 5
M  V30 5 1 5 6
M  V30 6 1 6 7
M  V30 7 2 7 8
M  V30 8 1 7 9
M  V30 9 1 9 10
M  V30 10 1 9 11
M  V30 11 1 11 12
M  V30 12 1 12 13
M  V30 13 1 12 14
M  V30 14 2 5 15
M  V30 15 1 15 16
M  V30 16 2 16 17
M  V30 17 1 17 18
M  V30 18 2 18 19
M  V30 19 1 19 20
M  V30 20 2 20 21
M  V30 21 1 21 22
M  V30 22 1 17 3
M  V30 23 1 22 18
M  V30 24 1 1 23
M  V30 25 1 1 24
M  V30 26 1 1 25
M  V30 27 1 4 26
M  V30 28 1 6 27
M  V30 29 1 9 28 CFG=3
M  V30 30 1 10 29
M  V30 31 1 10 30
M  V30 32 1 11 31
M  V30 33 1 11 32
M  V30 34 1 12 33
M  V30 35 1 13 34
M  V30 36 1 13 35
M  V30 37 1 13 36
M  V30 38 1 14 37
M  V30 39 1 14 38
M  V30 40 1 14 39
M  V30 41 1 15 40
M  V30 42 1 16 41
M  V30 43 1 19 42
M  V30 44 1 21 43
M  V30 END BOND
M  V30 END CTAB
M  END
>  <Dataset>  (30) 
ChEMBL_Kinases

>  <Ligand_Instance>  (30) 
nan

>  <PDB_ID>  (30) 
nan

>  <Standardized_SMILES>  (30) 
COc1cc(NC(=O)[C@H](N)CC(C)C)ccc1-c1cncs1

>  <Name>  (30) 
nan

>  <Pocket>  (30) 
nan

>  <ATP_Site>  (30) 
nan

>  <Peripheral>  (30) 
nan

>  <Num_H_Atoms_ProtBoundConf>  (30) 
nan

>  <Num_Resolved_Atoms>  (30) 
nan

>  <Num_Not_Resolved_Atoms>  (30) 
nan

$$$$
CHEMBL3940297
     RDKit          3D

  0  0  0  0  0  0  0  0  0  0999 V3000
M  V30 BEGIN CTAB
M  V30 COUNTS 41 44 0 0 0
M  V30 BEGIN ATOM
M  V30 1 N 2.806789 -8.668477 0.470372 0
M  V30 2 C 3.040057 -7.361292 0.969546 0
M  V30 3 O 3.958919 -7.294425 1.836631 0
M  V30 4 C 2.222848 -6.279109 0.446720 0
M  V30 5 C 1.265796 -6.437513 -0.575516 0
M  V30 6 C 0.570241 -5.313978 -0.956870 0
M  V30 7 C 0.722865 -4.026841 -0.425921 0
M  V30 8 N 0.178417 -2.824580 -0.621815 0
M  V30 9 C 0.749197 -1.942129 0.225873 0
M  V30 10 C 0.442604 -0.517226 0.330914 0
M  V30 11 C 1.011891 0.297133 1.276928 0
M  V30 12 C 0.729536 1.640674 1.375237 0
M  V30 13 C -0.176372 2.226026 0.478190 0
M  V30 14 C -0.706181 3.573696 0.361135 0
M  V30 15 O -1.140367 4.011923 -0.772137 0
M  V30 16 C -0.859855 4.626848 1.389976 0
M  V30 17 C 0.008941 5.139321 2.365812 0
M  V30 18 C -0.499497 6.118875 3.176778 0
M  V30 19 C -1.758216 6.667923 3.155521 0
M  V30 20 Cl -2.237080 7.912867 4.283632 0
M  V30 21 C -2.635562 6.162364 2.179679 0
M  V30 22 C -2.151033 5.171015 1.345864 0
M  V30 23 Cl -3.402131 4.671608 0.189619 0
M  V30 24 C -0.725697 1.347316 -0.464816 0
M  V30 25 C -0.456728 0.008551 -0.576459 0
M  V30 26 N 1.654151 -2.623157 0.944508 0
M  V30 27 C 1.666534 -3.925769 0.565215 0
M  V30 28 C 2.377352 -5.026990 0.969260 0
M  V30 29 H 2.662490 -9.515549 -0.107845 0
M  V30 30 H 2.628955 -9.508189 1.082333 0
M  V30 31 H 1.129037 -7.419845 -0.998774 0
M  V30 32 H -0.175575 -5.449792 -1.754894 0
M  V30 33 H -0.570216 -2.647152 -1.338358 0
M  V30 34 H 1.717581 -0.088488 2.005657 0
M  V30 35 H 1.122441 2.342501 2.073175 0
M  V30 36 H 0.962312 4.672379 2.318817 0
M  V30 37 H 0.231813 6.474743 3.923235 0
M  V30 38 H -3.611441 6.614192 2.184055 0
M  V30 39 H -1.444934 1.682111 -1.225580 0
M  V30 40 H -0.898421 -0.641976 -1.312908 0
M  V30 41 H 3.141374 -4.945639 1.762293 0
M  V30 END ATOM
M  V30 BEGIN BOND
M  V30 1 1 1 2
M  V30 2 2 2 3
M  V30 3 1 2 4
M  V30 4 2 4 5
M  V30 5 1 5 6
M  V30 6 2 6 7
M  V30 7 1 7 8
M  V30 8 1 8 9
M  V30 9 1 9 10
M  V30 10 2 10 11
M  V30 11 1 11 12
M  V30 12 2 12 13
M  V30 13 1 13 14
M  V30 14 2 14 15
M  V30 15 1 14 16
M  V30 16 2 16 17
M  V30 17 1 17 18
M  V30 18 2 18 19
M  V30 19 1 19 20
M  V30 20 1 19 21
M  V30 21 2 21 22
M  V30 22 1 22 23
M  V30 23 1 13 24
M  V30 24 2 24 25
M  V30 25 2 9 26
M  V30 26 1 26 27
M  V30 27 2 27 28
M  V30 28 1 28 4
M  V30 29 1 27 7
M  V30 30 1 25 10
M  V30 31 1 22 16
M  V30 32 1 1 29
M  V30 33 1 1 30
M  V30 34 1 5 31
M  V30 35 1 6 32
M  V30 36 1 8 33
M  V30 37 1 11 34
M  V30 38 1 12 35
M  V30 39 1 17 36
M  V30 40 1 18 37
M  V30 41 1 21 38
M  V30 42 1 24 39
M  V30 43 1 25 40
M  V30 44 1 28 41
M  V30 END BOND
M  V30 END CTAB
M  END
>  <Dataset>  (31) 
ChEMBL_Kinases

>  <Ligand_Instance>  (31) 
nan

>  <PDB_ID>  (31) 
nan

>  <Standardized_SMILES>  (31) 
NC(=O)c1ccc2[nH]c(-c3ccc(C(=O)c4ccc(Cl)cc4Cl)cc3)nc2c1

>  <Name>  (31) 
nan

>  <Pocket>  (31) 
nan

>  <ATP_Site>  (31) 
nan

>  <Peripheral>  (31) 
nan

>  <Num_H_Atoms_ProtBoundConf>  (31) 
nan

>  <Num_Resolved_Atoms>  (31) 
nan

>  <Num_Not_Resolved_Atoms>  (31) 
nan

$$$$
CHEMBL3940165
     RDKit          3D

  0  0  0  0  0  0  0  0  0  0999 V3000
M  V30 BEGIN CTAB
M  V30 COUNTS 60 64 0 0 0
M  V30 BEGIN ATOM
M  V30 1 C 2.314431 5.355900 2.777337 0
M  V30 2 C 2.709591 4.342459 3.812358 0
M  V30 3 C 1.579004 4.101882 4.772446 0
M  V30 4 C 3.282096 3.057761 3.253211 0
M  V30 5 N 2.460275 2.318905 2.381842 0
M  V30 6 C 1.646137 1.588084 1.517432 0
M  V30 7 C 1.190009 1.888436 0.255439 0
M  V30 8 C 0.386956 1.017756 -0.433202 0
M  V30 9 C -0.063287 1.387143 -1.763691 0
M  V30 10 C 0.751443 2.168536 -2.589737 0
M  V30 11 C 0.349252 2.536515 -3.846859 0
M  V30 12 C -0.884104 2.138861 -4.331531 0
M  V30 13 C -1.700375 1.370643 -3.538123 0
M  V30 14 C -1.310968 0.985817 -2.256299 0
M  V30 15 C 0.070954 -0.146446 0.197568 0
M  V30 16 C 0.466925 -0.566731 1.468299 0
M  V30 17 C 1.289330 0.369343 2.121739 0
M  V30 18 N 1.560691 -0.202868 3.326183 0
M  V30 19 C 0.927900 -1.373423 3.328823 0
M  V30 20 N 0.238291 -1.673677 2.239463 0
M  V30 21 C -0.589333 -2.684170 1.672992 0
M  V30 22 C 0.103859 -3.617026 0.926075 0
M  V30 23 C -0.624130 -4.619013 0.313135 0
M  V30 24 C -1.995522 -4.654021 0.465220 0
M  V30 25 C -2.813608 -5.678235 -0.209174 0
M  V30 26 O -4.065353 -5.761419 0.064373 0
M  V30 27 N -2.288672 -6.586314 -1.157794 0
M  V30 28 C -3.034008 -7.593480 -1.853104 0
M  V30 29 C -2.546256 -8.098006 -3.171255 0
M  V30 30 C -2.344723 -8.949909 -1.998937 0
M  V30 31 C -2.623346 -3.697903 1.222465 0
M  V30 32 C -1.980545 -2.666646 1.866498 0
M  V30 33 H 1.660094 4.915849 2.026626 0
M  V30 34 H 3.223857 5.863772 2.354370 0
M  V30 35 H 1.701003 6.132127 3.329193 0
M  V30 36 H 3.544766 4.851410 4.403622 0
M  V30 37 H 0.732336 4.806583 4.632596 0
M  V30 38 H 1.216071 3.035335 4.755855 0
M  V30 39 H 1.939411 4.258975 5.833812 0
M  V30 40 H 3.475764 2.450725 4.221404 0
M  V30 41 H 4.345779 3.225100 2.920223 0
M  V30 42 H 2.620692 3.187210 1.771854 0
M  V30 43 H 1.490999 2.837442 -0.161166 0
M  V30 44 H 1.720690 2.478062 -2.206865 0
M  V30 45 H 0.967674 3.148501 -4.521965 0
M  V30 46 H -1.170606 2.456822 -5.345152 0
M  V30 47 H -2.657433 1.087948 -3.973916 0
M  V30 48 H -1.962582 0.384417 -1.646581 0
M  V30 49 H -0.549608 -0.788818 -0.379070 0
M  V30 50 H 0.895810 -2.132824 4.118829 0
M  V30 51 H 1.172364 -3.602196 0.799425 0
M  V30 52 H -0.106095 -5.354646 -0.270111 0
M  V30 53 H -1.278573 -6.557165 -1.401424 0
M  V30 54 H -4.124245 -7.655586 -1.665933 0
M  V30 55 H -3.317377 -8.374781 -3.904015 0
M  V30 56 H -1.686848 -7.585139 -3.670540 0
M  V30 57 H -2.976343 -9.850108 -1.816098 0
M  V30 58 H -1.312146 -9.042453 -1.606882 0
M  V30 59 H -3.704221 -3.707325 1.352920 0
M  V30 60 H -2.367468 -1.872956 2.480668 0
M  V30 END ATOM
M  V30 BEGIN BOND
M  V30 1 1 1 2
M  V30 2 1 2 3
M  V30 3 1 2 4
M  V30 4 1 4 5
M  V30 5 1 5 6
M  V30 6 2 6 7
M  V30 7 1 7 8
M  V30 8 1 8 9
M  V30 9 2 9 10
M  V30 10 1 10 11
M  V30 11 2 11 12
M  V30 12 1 12 13
M  V30 13 2 13 14
M  V30 14 2 8 15
M  V30 15 1 15 16
M  V30 16 2 16 17
M  V30 17 1 17 18
M  V30 18 2 18 19
M  V30 19 1 19 20
M  V30 20 1 20 21
M  V30 21 2 21 22
M  V30 22 1 22 23
M  V30 23 2 23 24
M  V30 24 1 24 25
M  V30 25 2 25 26
M  V30 26 1 25 27
M  V30 27 1 27 28
M  V30 28 1 28 29
M  V30 29 1 29 30
M  V30 30 1 24 31
M  V30 31 2 31 32
M  V30 32 1 17 6
M  V30 33 1 32 21
M  V30 34 1 14 9
M  V30 35 1 20 16
M  V30 36 1 30 28
M  V30 37 1 1 33
M  V30 38 1 1 34
M  V30 39 1 1 35
M  V30 40 1 2 36
M  V30 41 1 3 37
M  V30 42 1 3 38
M  V30 43 1 3 39
M  V30 44 1 4 40
M  V30 45 1 4 41
M  V30 46 1 5 42
M  V30 47 1 7 43
M  V30 48 1 10 44
M  V30 49 1 11 45
M  V30 50 1 12 46
M  V30 51 1 13 47
M  V30 52 1 14 48
M  V30 53 1 15 49
M  V30 54 1 19 50
M  V30 55 1 22 51
M  V30 56 1 23 52
M  V30 57 1 27 53
M  V30 58 1 28 54
M  V30 59 1 29 55
M  V30 60 1 29 56
M  V30 61 1 30 57
M  V30 62 1 30 58
M  V30 63 1 31 59
M  V30 64 1 32 60
M  V30 END BOND
M  V30 END CTAB
M  END
>  <Dataset>  (32) 
ChEMBL_Kinases

>  <Ligand_Instance>  (32) 
nan

>  <PDB_ID>  (32) 
nan

>  <Standardized_SMILES>  (32) 
CC(C)CNc1cc(-c2ccccc2)cc2c1ncn2-c1ccc(C(=O)NC2CC2)cc1

>  <Name>  (32) 
nan

>  <Pocket>  (32) 
nan

>  <ATP_Site>  (32) 
nan

>  <Peripheral>  (32) 
nan

>  <Num_H_Atoms_ProtBoundConf>  (32) 
nan

>  <Num_Resolved_Atoms>  (32) 
nan

>  <Num_Not_Resolved_Atoms>  (32) 
nan

$$$$
CHEMBL4875632
     RDKit          3D

  0  0  0  0  0  0  0  0  0  0999 V3000
M  V30 BEGIN CTAB
M  V30 COUNTS 54 57 0 0 0
M  V30 BEGIN ATOM
M  V30 1 C -0.163300 -5.076113 4.188838 0
M  V30 2 N 0.821254 -4.416836 3.399883 0
M  V30 3 C 0.345348 -3.364630 2.584844 0
M  V30 4 C 1.114962 -3.346602 1.284571 0
M  V30 5 N 2.521169 -3.245541 1.632484 0
M  V30 6 C 3.430274 -2.158332 1.525134 0
M  V30 7 O 4.645680 -2.271886 1.889324 0
M  V30 8 C 2.960842 -0.887890 0.987645 0
M  V30 9 C 2.969349 0.261656 1.747744 0
M  V30 10 C 2.523151 1.470418 1.243555 0
M  V30 11 C 2.044141 1.593526 -0.050397 0
M  V30 12 C 1.593411 2.893528 -0.521853 0
M  V30 13 C 0.156714 3.237420 -0.271150 0
M  V30 14 N -0.790254 2.330407 -0.881951 0
M  V30 15 C -2.192457 2.507457 -0.735982 0
M  V30 16 N -2.710521 3.524969 -0.029104 0
M  V30 17 C -4.053049 3.691553 0.105298 0
M  V30 18 N -4.948856 2.858243 -0.453745 0
M  V30 19 C -4.461664 1.821768 -1.172777 0
M  V30 20 C -5.387001 0.969653 -1.742138 0
M  V30 21 C -4.960843 -0.111154 -2.488334 0
M  V30 22 C -3.605121 -0.297290 -2.636563 0
M  V30 23 C -3.137497 -1.427909 -3.416147 0
M  V30 24 N -2.752441 -2.327173 -4.027453 0
M  V30 25 C -2.719868 0.580655 -2.049155 0
M  V30 26 C -3.101677 1.650713 -1.310673 0
M  V30 27 C 2.053678 0.400768 -0.786916 0
M  V30 28 C 2.492699 -0.817655 -0.308729 0
M  V30 29 C 2.950701 -4.534310 2.172770 0
M  V30 30 C 1.884596 -5.217883 2.942723 0
M  V30 31 H 0.268125 -6.011453 4.603783 0
M  V30 32 H -0.964774 -5.423939 3.481712 0
M  V30 33 H -0.641272 -4.418300 4.920637 0
M  V30 34 H -0.753058 -3.535218 2.424496 0
M  V30 35 H 0.510490 -2.388584 3.111557 0
M  V30 36 H 0.795056 -2.521513 0.617291 0
M  V30 37 H 0.867992 -4.298045 0.750847 0
M  V30 38 H 3.327703 0.214035 2.742954 0
M  V30 39 H 2.544132 2.346856 1.862582 0
M  V30 40 H 2.267859 3.679526 -0.127753 0
M  V30 41 H 1.726812 2.944334 -1.647129 0
M  V30 42 H -0.007511 4.229429 -0.781878 0
M  V30 43 H -0.112261 3.337089 0.780579 0
M  V30 44 H -0.338768 1.569075 -1.418081 0
M  V30 45 H -4.428890 4.528151 0.687052 0
M  V30 46 H -6.464931 1.064777 -1.659938 0
M  V30 47 H -5.621209 -0.828113 -2.967822 0
M  V30 48 H -1.687026 0.358379 -2.217607 0
M  V30 49 H 1.697475 0.437632 -1.805409 0
M  V30 50 H 2.462331 -1.682312 -0.950659 0
M  V30 51 H 3.921969 -4.471677 2.686707 0
M  V30 52 H 3.159880 -5.150292 1.249038 0
M  V30 53 H 2.367110 -5.687697 3.850867 0
M  V30 54 H 1.470305 -6.107124 2.393126 0
M  V30 END ATOM
M  V30 BEGIN BOND
M  V30 1 1 1 2
M  V30 2 1 2 3
M  V30 3 1 3 4
M  V30 4 1 4 5
M  V30 5 1 5 6
M  V30 6 2 6 7
M  V30 7 1 6 8
M  V30 8 2 8 9
M  V30 9 1 9 10
M  V30 10 2 10 11
M  V30 11 1 11 12
M  V30 12 1 12 13
M  V30 13 1 13 14
M  V30 14 1 14 15
M  V30 15 2 15 16
M  V30 16 1 16 17
M  V30 17 2 17 18
M  V30 18 1 18 19
M  V30 19 2 19 20
M  V30 20 1 20 21
M  V30 21 2 21 22
M  V30 22 1 22 23
M  V30 23 3 23 24
M  V30 24 1 22 25
M  V30 25 2 25 26
M  V30 26 1 11 27
M  V30 27 2 27 28
M  V30 28 1 5 29
M  V30 29 1 29 30
M  V30 30 1 30 2
M  V30 31 1 28 8
M  V30 32 1 26 15
M  V30 33 1 26 19
M  V30 34 1 1 31
M  V30 35 1 1 32
M  V30 36 1 1 33
M  V30 37 1 3 34
M  V30 38 1 3 35
M  V30 39 1 4 36
M  V30 40 1 4 37
M  V30 41 1 9 38
M  V30 42 1 10 39
M  V30 43 1 12 40
M  V30 44 1 12 41
M  V30 45 1 13 42
M  V30 46 1 13 43
M  V30 47 1 14 44
M  V30 48 1 17 45
M  V30 49 1 20 46
M  V30 50 1 21 47
M  V30 51 1 25 48
M  V30 52 1 27 49
M  V30 53 1 28 50
M  V30 54 1 29 51
M  V30 55 1 29 52
M  V30 56 1 30 53
M  V30 57 1 30 54
M  V30 END BOND
M  V30 END CTAB
M  END
>  <Dataset>  (33) 
ChEMBL_Kinases

>  <Ligand_Instance>  (33) 
nan

>  <PDB_ID>  (33) 
nan

>  <Standardized_SMILES>  (33) 
CN1CCN(C(=O)c2ccc(CCNc3ncnc4ccc(C#N)cc34)cc2)CC1

>  <Name>  (33) 
nan

>  <Pocket>  (33) 
nan

>  <ATP_Site>  (33) 
nan

>  <Peripheral>  (33) 
nan

>  <Num_H_Atoms_ProtBoundConf>  (33) 
nan

>  <Num_Resolved_Atoms>  (33) 
nan

>  <Num_Not_Resolved_Atoms>  (33) 
nan

$$$$
CHEMBL3940088
     RDKit          3D

  0  0  0  0  0  0  0  0  0  0999 V3000
M  V30 BEGIN CTAB
M  V30 COUNTS 118 120 0 0 0
M  V30 BEGIN ATOM
M  V30 1 C -2.850103 -3.400090 -2.693107 0
M  V30 2 C -3.217679 -4.229691 -1.507751 0
M  V30 3 O -3.517228 -3.500045 -0.496560 0
M  V30 4 N -3.173972 -5.655593 -1.699784 0
M  V30 5 C -2.818662 -6.439058 -2.871724 0
M  V30 6 C -3.371906 -7.796114 -2.422673 0
M  V30 7 C -3.360156 -7.805942 -0.920751 0
M  V30 8 C -3.557908 -6.365797 -0.532361 0 CFG=1
M  V30 9 C -2.851318 -6.002871 0.709879 0
M  V30 10 O -3.484455 -6.416611 1.751826 0
M  V30 11 N -1.616668 -5.286164 0.857209 0
M  V30 12 C -1.176992 -5.060043 2.189686 0 CFG=1
M  V30 13 C -0.035787 -5.912509 2.662823 0
M  V30 14 C 1.236515 -5.782916 1.886001 0
M  V30 15 C 2.247681 -6.729520 2.547133 0
M  V30 16 C 1.159545 -6.175425 0.449908 0
M  V30 17 C -0.718907 -3.660221 2.324085 0
M  V30 18 O -0.377553 -3.193066 3.438195 0
M  V30 19 N -0.599645 -2.713027 1.284872 0
M  V30 20 C -0.264862 -1.387085 0.829452 0 CFG=1
M  V30 21 C 0.406135 -0.519385 1.872956 0
M  V30 22 C -0.585183 -0.254701 2.978276 0
M  V30 23 C -1.951365 -0.572912 3.078337 0
M  V30 24 N -2.369741 -0.010582 4.222821 0
M  V30 25 C -1.320714 0.600696 4.769556 0
M  V30 26 N -0.168293 0.483584 4.036745 0
M  V30 27 C 1.100923 0.953709 4.429210 0
M  V30 28 C 1.693511 2.155964 3.840185 0
M  V30 29 C 1.038149 3.464461 3.873950 0
M  V30 30 C -0.255281 3.634912 3.137401 0
M  V30 31 C -0.737362 5.100713 3.246752 0
M  V30 32 O -1.945990 5.174323 2.510845 0
M  V30 33 N -2.402107 6.369361 2.051954 0
M  V30 34 C -3.599981 6.694552 1.771199 0
M  V30 35 C -4.151872 7.956929 1.275426 0
M  V30 36 C -5.518315 8.100648 1.027439 0
M  V30 37 C -5.957031 9.329810 0.550760 0
M  V30 38 C -5.149608 10.413432 0.305465 0
M  V30 39 C -3.780737 10.281407 0.550439 0
M  V30 40 C -3.328911 9.056196 1.027692 0
M  V30 41 C 0.335977 -1.415833 -0.483208 0
M  V30 42 O 0.474148 -2.514206 -1.074864 0
M  V30 43 N 0.729613 -0.165102 -1.006716 0
M  V30 44 C 1.343390 -0.051581 -2.316437 0 CFG=1
M  V30 45 C 0.428341 0.818911 -3.168388 0
M  V30 46 O 0.926811 0.983732 -4.449305 0
M  V30 47 C 2.654853 0.631180 -2.242696 0
M  V30 48 O 3.125689 1.056848 -1.128163 0
M  V30 49 N 3.458890 0.856983 -3.358411 0
M  V30 50 C 4.744101 1.483013 -3.562786 0 CFG=2
M  V30 51 C 4.684404 2.570630 -4.544777 0
M  V30 52 N 6.001408 3.134681 -4.671575 0
M  V30 53 O 3.987053 3.244955 -5.340714 0
M  V30 54 C 5.675549 0.345149 -4.000453 0 CFG=1
M  V30 55 C 5.537585 -0.734270 -2.928600 0
M  V30 56 O 5.172334 -0.225522 -5.167313 0
M  V30 57 P 6.288724 -0.308729 -6.408599 0
M  V30 58 O 7.152029 0.908579 -6.554280 0
M  V30 59 O 5.378586 -0.486283 -7.851623 0
M  V30 60 O 7.308638 -1.640889 -6.277530 0
M  V30 61 H -2.191256 -3.967865 -3.346480 0
M  V30 62 H -2.414418 -2.434345 -2.370072 0
M  V30 63 H -3.783472 -3.192130 -3.292314 0
M  V30 64 H -3.360682 -6.052017 -3.760290 0
M  V30 65 H -1.766261 -6.457008 -3.127882 0
M  V30 66 H -4.383861 -7.881347 -2.864038 0
M  V30 67 H -2.748995 -8.603592 -2.862324 0
M  V30 68 H -4.221023 -8.441174 -0.610151 0
M  V30 69 H -2.390785 -8.237075 -0.604840 0
M  V30 70 H -4.649247 -6.216184 -0.400909 0
M  V30 71 H -1.307515 -5.088696 -0.120925 0
M  V30 72 H -2.001412 -5.240309 2.888420 0
M  V30 73 H 0.179080 -5.552173 3.692499 0
M  V30 74 H -0.254023 -6.984519 2.764959 0
M  V30 75 H 1.712915 -4.782512 1.927383 0
M  V30 76 H 2.179871 -6.576585 3.651611 0
M  V30 77 H 3.269960 -6.532153 2.224928 0
M  V30 78 H 1.907379 -7.788841 2.377211 0
M  V30 79 H 1.059521 -5.308227 -0.236068 0
M  V30 80 H 2.122220 -6.653877 0.162742 0
M  V30 81 H 0.370677 -6.949487 0.314333 0
M  V30 82 H -0.926060 -3.207866 0.390364 0
M  V30 83 H -1.304695 -0.872687 0.726598 0
M  V30 84 H 1.248543 -1.010884 2.367661 0
M  V30 85 H 0.748743 0.430665 1.442661 0
M  V30 86 H -2.479125 -1.155986 2.341371 0
M  V30 87 H -1.394241 1.139949 5.716329 0
M  V30 88 H 1.025465 1.165420 5.556272 0
M  V30 89 H 1.840620 0.079984 4.423849 0
M  V30 90 H 2.704328 2.307068 4.379608 0
M  V30 91 H 1.982797 1.968768 2.747857 0
M  V30 92 H 1.746028 4.242897 3.457839 0
M  V30 93 H 0.910331 3.824565 4.946281 0
M  V30 94 H -1.071638 3.020884 3.528792 0
M  V30 95 H -0.143620 3.406365 2.056249 0
M  V30 96 H -0.984506 5.311567 4.304361 0
M  V30 97 H 0.011554 5.796074 2.842852 0
M  V30 98 H -4.311726 5.874630 1.941329 0
M  V30 99 H -6.166838 7.264486 1.214466 0
M  V30 100 H -7.023950 9.438190 0.357660 0
M  V30 101 H -5.562262 11.350793 -0.070216 0
M  V30 102 H -3.105008 11.099509 0.374901 0
M  V30 103 H -2.260123 9.014948 1.197581 0
M  V30 104 H 0.603692 0.727169 -0.488229 0
M  V30 105 H 1.405517 -1.028197 -2.834655 0
M  V30 106 H -0.526124 0.239078 -3.258231 0
M  V30 107 H 0.228709 1.791267 -2.668886 0
M  V30 108 H 0.592537 0.254195 -5.033425 0
M  V30 109 H 3.186840 0.556060 -4.327000 0
M  V30 110 H 5.183182 1.867941 -2.595282 0
M  V30 111 H 6.967472 3.478549 -4.433102 0
M  V30 112 H 6.607279 3.543563 -5.434505 0
M  V30 113 H 6.715201 0.665517 -4.099774 0
M  V30 114 H 6.094971 -0.516713 -2.019958 0
M  V30 115 H 4.482115 -0.925339 -2.683246 0
M  V30 116 H 5.956010 -1.693389 -3.324927 0
M  V30 117 H 5.096504 -1.437725 -7.953609 0
M  V30 118 H 6.793296 -2.497772 -6.115102 0
M  V30 END ATOM
M  V30 BEGIN BOND
M  V30 1 1 1 2
M  V30 2 2 2 3
M  V30 3 1 2 4
M  V30 4 1 4 5
M  V30 5 1 5 6
M  V30 6 1 6 7
M  V30 7 1 7 8
M  V30 8 1 8 9
M  V30 9 2 9 10
M  V30 10 1 9 11
M  V30 11 1 11 12
M  V30 12 1 12 13
M  V30 13 1 13 14
M  V30 14 1 14 15
M  V30 15 1 14 16
M  V30 16 1 12 17
M  V30 17 2 17 18
M  V30 18 1 17 19
M  V30 19 1 19 20
M  V30 20 1 20 21
M  V30 21 1 21 22
M  V30 22 2 22 23
M  V30 23 1 23 24
M  V30 24 2 24 25
M  V30 25 1 25 26
M  V30 26 1 26 27
M  V30 27 1 27 28
M  V30 28 1 28 29
M  V30 29 1 29 30
M  V30 30 1 30 31
M  V30 31 1 31 32
M  V30 32 1 32 33
M  V30 33 2 33 34
M  V30 34 1 34 35
M  V30 35 2 35 36
M  V30 36 1 36 37
M  V30 37 2 37 38
M  V30 38 1 38 39
M  V30 39 2 39 40
M  V30 40 1 20 41
M  V30 41 2 41 42
M  V30 42 1 41 43
M  V30 43 1 43 44
M  V30 44 1 44 45
M  V30 45 1 45 46
M  V30 46 1 44 47
M  V30 47 2 47 48
M  V30 48 1 47 49
M  V30 49 1 49 50
M  V30 50 1 50 51
M  V30 51 1 51 52
M  V30 52 2 51 53
M  V30 53 1 50 54
M  V30 54 1 54 55
M  V30 55 1 54 56
M  V30 56 1 56 57
M  V30 57 2 57 58
M  V30 58 1 57 59
M  V30 59 1 57 60
M  V30 60 1 8 4
M  V30 61 1 26 22
M  V30 62 1 40 35
M  V30 63 1 1 61
M  V30 64 1 1 62
M  V30 65 1 1 63
M  V30 66 1 5 64
M  V30 67 1 5 65
M  V30 68 1 6 66
M  V30 69 1 6 67
M  V30 70 1 7 68
M  V30 71 1 7 69
M  V30 72 1 8 70 CFG=1
M  V30 73 1 11 71
M  V30 74 1 12 72 CFG=1
M  V30 75 1 13 73
M  V30 76 1 13 74
M  V30 77 1 14 75
M  V30 78 1 15 76
M  V30 79 1 15 77
M  V30 80 1 15 78
M  V30 81 1 16 79
M  V30 82 1 16 80
M  V30 83 1 16 81
M  V30 84 1 19 82
M  V30 85 1 20 83 CFG=3
M  V30 86 1 21 84
M  V30 87 1 21 85
M  V30 88 1 23 86
M  V30 89 1 25 87
M  V30 90 1 27 88
M  V30 91 1 27 89
M  V30 92 1 28 90
M  V30 93 1 28 91
M  V30 94 1 29 92
M  V30 95 1 29 93
M  V30 96 1 30 94
M  V30 97 1 30 95
M  V30 98 1 31 96
M  V30 99 1 31 97
M  V30 100 1 34 98
M  V30 101 1 36 99
M  V30 102 1 37 100
M  V30 103 1 38 101
M  V30 104 1 39 102
M  V30 105 1 40 103
M  V30 106 1 43 104
M  V30 107 1 44 105 CFG=3
M  V30 108 1 45 106
M  V30 109 1 45 107
M  V30 110 1 46 108
M  V30 111 1 49 109
M  V30 112 1 50 110 CFG=1
M  V30 113 1 52 111
M  V30 114 1 52 112
M  V30 115 1 54 113 CFG=3
M  V30 116 1 55 114
M  V30 117 1 55 115
M  V30 118 1 55 116
M  V30 119 1 59 117
M  V30 120 1 60 118
M  V30 END BOND
M  V30 END CTAB
M  END
>  <Dataset>  (34) 
ChEMBL_Kinases

>  <Ligand_Instance>  (34) 
nan

>  <PDB_ID>  (34) 
nan

>  <Standardized_SMILES>  (34) 
CC(=O)N1CCC[C@H]1C(=O)N[C@@H](CC(C)C)C(=O)N[C@@H](Cc1cncn1CCCCCO/N=C/c1ccccc1)C(=O)N[C@@H](CO)C(=O)N[C@H](C(N)=O)[C@@H](C)OP(=O)(O)O

>  <Name>  (34) 
nan

>  <Pocket>  (34) 
nan

>  <ATP_Site>  (34) 
nan

>  <Peripheral>  (34) 
nan

>  <Num_H_Atoms_ProtBoundConf>  (34) 
nan

>  <Num_Resolved_Atoms>  (34) 
nan

>  <Num_Not_Resolved_Atoms>  (34) 
nan

$$$$
CHEMBL4875614
     RDKit          3D

  0  0  0  0  0  0  0  0  0  0999 V3000
M  V30 BEGIN CTAB
M  V30 COUNTS 63 67 0 0 0
M  V30 BEGIN ATOM
M  V30 1 C 1.703667 -3.497279 3.565835 0
M  V30 2 C 2.945506 -2.664319 3.333067 0
M  V30 3 C 3.971079 -3.384106 2.536224 0
M  V30 4 N 2.589863 -1.361120 2.848194 0
M  V30 5 C 2.579036 -0.184623 3.542673 0
M  V30 6 O 2.894574 -0.073645 4.744463 0
M  V30 7 C 2.175335 0.822128 2.722374 0
M  V30 8 C 2.004422 2.169027 2.967903 0
M  V30 9 N 1.581376 2.971121 1.971847 0
M  V30 10 C 1.336130 2.418942 0.749650 0
M  V30 11 N 0.866695 2.989079 -0.476991 0
M  V30 12 C -0.538511 2.871339 -0.663361 0
M  V30 13 C -1.193031 3.373688 -1.789547 0
M  V30 14 C -2.550518 3.257254 -1.978848 0
M  V30 15 C -3.332881 2.628931 -1.048009 0
M  V30 16 C -2.748340 2.110926 0.086884 0
M  V30 17 C -1.392637 2.246469 0.240382 0
M  V30 18 C -3.605337 1.430415 1.089489 0
M  V30 19 C -4.622950 0.548430 0.418471 0
M  V30 20 N -5.107541 1.035807 -0.835148 0
M  V30 21 C -4.817870 2.417243 -1.103785 0
M  V30 22 N 1.510931 1.094878 0.529874 0
M  V30 23 C 1.937514 0.250504 1.512449 0
M  V30 24 N 2.197570 -1.069994 1.621606 0
M  V30 25 C 2.016352 -1.881167 0.469886 0
M  V30 26 C 2.964769 -2.392480 -0.389639 0
M  V30 27 C 2.636461 -3.168212 -1.476017 0
M  V30 28 C 1.277813 -3.428372 -1.686630 0
M  V30 29 F 0.973446 -4.192811 -2.758450 0
M  V30 30 C 0.321435 -2.922204 -0.834044 0
M  V30 31 C -1.127463 -3.215257 -1.085499 0
M  V30 32 C -1.590895 -2.710878 -2.405745 0
M  V30 33 C -1.317315 -4.702971 -0.913611 0
M  V30 34 O -1.856794 -2.582761 -0.080487 0
M  V30 35 N 0.717968 -2.170881 0.208647 0
M  V30 36 H 1.111702 -2.963259 4.357309 0
M  V30 37 H 1.079294 -3.451969 2.657891 0
M  V30 38 H 1.923494 -4.508124 3.903776 0
M  V30 39 H 3.380657 -2.520639 4.367931 0
M  V30 40 H 4.571502 -4.040874 3.233085 0
M  V30 41 H 4.705374 -2.744848 2.051632 0
M  V30 42 H 3.463425 -4.122147 1.868347 0
M  V30 43 H 2.180290 2.665036 3.907609 0
M  V30 44 H 1.390959 3.468586 -1.239815 0
M  V30 45 H -0.620287 3.878489 -2.554166 0
M  V30 46 H -3.076215 3.639117 -2.842682 0
M  V30 47 H -0.926136 1.842049 1.129363 0
M  V30 48 H -4.135097 2.206576 1.683821 0
M  V30 49 H -3.006950 0.831001 1.805471 0
M  V30 50 H -5.498798 0.344933 1.078963 0
M  V30 51 H -4.192643 -0.472289 0.205356 0
M  V30 52 H -4.924657 0.415376 -1.635524 0
M  V30 53 H -5.286978 3.021596 -0.283866 0
M  V30 54 H -5.209796 2.661002 -2.094274 0
M  V30 55 H 3.976056 -2.130619 -0.137446 0
M  V30 56 H 3.436576 -3.529712 -2.099317 0
M  V30 57 H -2.604957 -2.277462 -2.289424 0
M  V30 58 H -1.696272 -3.484346 -3.193216 0
M  V30 59 H -0.936504 -1.862598 -2.697628 0
M  V30 60 H -1.337838 -4.891551 0.199305 0
M  V30 61 H -2.297639 -5.028507 -1.349695 0
M  V30 62 H -0.465789 -5.261135 -1.313799 0
M  V30 63 H -2.058098 -1.649351 -0.332821 0
M  V30 END ATOM
M  V30 BEGIN BOND
M  V30 1 1 1 2
M  V30 2 1 2 3
M  V30 3 1 2 4
M  V30 4 1 4 5
M  V30 5 2 5 6
M  V30 6 1 5 7
M  V30 7 2 7 8
M  V30 8 1 8 9
M  V30 9 2 9 10
M  V30 10 1 10 11
M  V30 11 1 11 12
M  V30 12 2 12 13
M  V30 13 1 13 14
M  V30 14 2 14 15
M  V30 15 1 15 16
M  V30 16 2 16 17
M  V30 17 1 16 18
M  V30 18 1 18 19
M  V30 19 1 19 20
M  V30 20 1 20 21
M  V30 21 1 10 22
M  V30 22 2 22 23
M  V30 23 1 23 24
M  V30 24 1 24 25
M  V30 25 2 25 26
M  V30 26 1 26 27
M  V30 27 2 27 28
M  V30 28 1 28 29
M  V30 29 1 28 30
M  V30 30 1 30 31
M  V30 31 1 31 32
M  V30 32 1 31 33
M  V30 33 1 31 34
M  V30 34 2 30 35
M  V30 35 1 24 4
M  V30 36 1 35 25
M  V30 37 1 23 7
M  V30 38 1 17 12
M  V30 39 1 21 15
M  V30 40 1 1 36
M  V30 41 1 1 37
M  V30 42 1 1 38
M  V30 43 1 2 39
M  V30 44 1 3 40
M  V30 45 1 3 41
M  V30 46 1 3 42
M  V30 47 1 8 43
M  V30 48 1 11 44
M  V30 49 1 13 45
M  V30 50 1 14 46
M  V30 51 1 17 47
M  V30 52 1 18 48
M  V30 53 1 18 49
M  V30 54 1 19 50
M  V30 55 1 19 51
M  V30 56 1 20 52
M  V30 57 1 21 53
M  V30 58 1 21 54
M  V30 59 1 26 55
M  V30 60 1 27 56
M  V30 61 1 32 57
M  V30 62 1 32 58
M  V30 63 1 32 59
M  V30 64 1 33 60
M  V30 65 1 33 61
M  V30 66 1 33 62
M  V30 67 1 34 63
M  V30 END BOND
M  V30 END CTAB
M  END
>  <Dataset>  (35) 
ChEMBL_Kinases

>  <Ligand_Instance>  (35) 
nan

>  <PDB_ID>  (35) 
nan

>  <Standardized_SMILES>  (35) 
CC(C)n1c(=O)c2cnc(Nc3ccc4c(c3)CCNC4)nc2n1-c1ccc(F)c(C(C)(C)O)n1

>  <Name>  (35) 
nan

>  <Pocket>  (35) 
nan

>  <ATP_Site>  (35) 
nan

>  <Peripheral>  (35) 
nan

>  <Num_H_Atoms_ProtBoundConf>  (35) 
nan

>  <Num_Resolved_Atoms>  (35) 
nan

>  <Num_Not_Resolved_Atoms>  (35) 
nan

$$$$
CHEMBL4876446
     RDKit          3D

  0  0  0  0  0  0  0  0  0  0999 V3000
M  V30 BEGIN CTAB
M  V30 COUNTS 50 53 0 0 0
M  V30 BEGIN ATOM
M  V30 1 N 4.838195 -4.512969 2.419053 0
M  V30 2 C 4.792787 -3.214348 2.989245 0
M  V30 3 O 5.741088 -3.759416 3.560188 0
M  V30 4 C 3.850716 -2.173772 2.656238 0
M  V30 5 C 3.923272 -0.953151 3.285116 0
M  V30 6 C 3.001970 -0.001015 2.928654 0
M  V30 7 C 2.079321 -0.336781 1.974463 0
M  V30 8 C 1.969802 -1.526933 1.327201 0
M  V30 9 C 1.021787 -1.874765 0.357598 0
M  V30 10 N 0.136349 -0.799768 0.043397 0
M  V30 11 C -0.830502 0.109272 -0.404299 0 CFG=2
M  V30 12 C -0.592056 1.540771 0.106277 0
M  V30 13 N 0.693645 2.043721 -0.340516 0
M  V30 14 C 0.867589 3.388809 0.168738 0
M  V30 15 C 0.291219 3.913961 -1.119522 0
M  V30 16 C 0.709321 2.592958 -1.680145 0
M  V30 17 C -2.251243 -0.205587 -0.049768 0
M  V30 18 C -3.150751 0.647960 0.548409 0
M  V30 19 C -4.453621 0.338095 0.855614 0
M  V30 20 C -4.921796 -0.917728 0.552339 0
M  V30 21 C -4.088739 -1.836098 -0.047530 0
M  V30 22 C -4.600424 -3.202362 -0.373839 0
M  V30 23 F -4.081040 -3.648750 -1.578267 0
M  V30 24 F -5.974721 -3.123334 -0.434230 0
M  V30 25 F -4.278275 -4.062258 0.676032 0
M  V30 26 C -2.776919 -1.455331 -0.332157 0
M  V30 27 N 1.106253 -3.121381 -0.133353 0
M  V30 28 C 2.001231 -4.038109 0.217586 0
M  V30 29 N 2.874119 -3.658063 1.136204 0
M  V30 30 C 2.901668 -2.459381 1.702162 0
M  V30 31 H 4.308252 -5.323779 2.032331 0
M  V30 32 H 4.313538 -5.326142 2.031582 0
M  V30 33 H 4.707422 -0.837334 4.018544 0
M  V30 34 H 3.051940 0.946681 3.408260 0
M  V30 35 H 1.390450 0.447372 1.758435 0
M  V30 36 H -0.402121 -1.426050 -0.635478 0
M  V30 37 H -0.838538 0.278836 -1.530262 0
M  V30 38 H -1.364786 2.145134 -0.378773 0
M  V30 39 H -0.699508 1.555694 1.196347 0
M  V30 40 H 0.203493 3.621830 1.052823 0
M  V30 41 H 1.927568 3.655353 0.351269 0
M  V30 42 H 0.800566 4.822763 -1.519304 0
M  V30 43 H -0.820813 3.984453 -1.054623 0
M  V30 44 H -0.054867 2.168451 -2.364736 0
M  V30 45 H 1.737947 2.643589 -2.084756 0
M  V30 46 H -2.839281 1.643174 0.817434 0
M  V30 47 H -5.103574 1.059805 1.325696 0
M  V30 48 H -5.951785 -1.146478 0.801013 0
M  V30 49 H -2.212663 -2.245538 -0.802237 0
M  V30 50 H 1.948034 -5.003499 -0.265187 0
M  V30 END ATOM
M  V30 BEGIN BOND
M  V30 1 1 1 2
M  V30 2 2 2 3
M  V30 3 1 2 4
M  V30 4 2 4 5
M  V30 5 1 5 6
M  V30 6 2 6 7
M  V30 7 1 7 8
M  V30 8 2 8 9
M  V30 9 1 9 10
M  V30 10 1 10 11
M  V30 11 1 11 12
M  V30 12 1 12 13
M  V30 13 1 13 14
M  V30 14 1 14 15
M  V30 15 1 15 16
M  V30 16 1 11 17
M  V30 17 2 17 18
M  V30 18 1 18 19
M  V30 19 2 19 20
M  V30 20 1 20 21
M  V30 21 1 21 22
M  V30 22 1 22 23
M  V30 23 1 22 24
M  V30 24 1 22 25
M  V30 25 2 21 26
M  V30 26 1 9 27
M  V30 27 2 27 28
M  V30 28 1 28 29
M  V30 29 2 29 30
M  V30 30 1 30 4
M  V30 31 1 30 8
M  V30 32 1 16 13
M  V30 33 1 26 17
M  V30 34 1 1 31
M  V30 35 1 1 32
M  V30 36 1 5 33
M  V30 37 1 6 34
M  V30 38 1 7 35
M  V30 39 1 10 36
M  V30 40 1 11 37 CFG=3
M  V30 41 1 12 38
M  V30 42 1 12 39
M  V30 43 1 14 40
M  V30 44 1 14 41
M  V30 45 1 15 42
M  V30 46 1 15 43
M  V30 47 1 16 44
M  V30 48 1 16 45
M  V30 49 1 18 46
M  V30 50 1 19 47
M  V30 51 1 20 48
M  V30 52 1 26 49
M  V30 53 1 28 50
M  V30 END BOND
M  V30 END CTAB
M  END
>  <Dataset>  (36) 
ChEMBL_Kinases

>  <Ligand_Instance>  (36) 
nan

>  <PDB_ID>  (36) 
nan

>  <Standardized_SMILES>  (36) 
NC(=O)c1cccc2c(N[C@H](CN3CCC3)c3cccc(C(F)(F)F)c3)ncnc12

>  <Name>  (36) 
nan

>  <Pocket>  (36) 
nan

>  <ATP_Site>  (36) 
nan

>  <Peripheral>  (36) 
nan

>  <Num_H_Atoms_ProtBoundConf>  (36) 
nan

>  <Num_Resolved_Atoms>  (36) 
nan

>  <Num_Not_Resolved_Atoms>  (36) 
nan

$$$$
CHEMBL3702185
     RDKit          3D

  0  0  0  0  0  0  0  0  0  0999 V3000
M  V30 BEGIN CTAB
M  V30 COUNTS 73 78 0 0 0
M  V30 BEGIN ATOM
M  V30 1 C 5.731325 1.741265 3.507949 0
M  V30 2 C 6.533331 1.436925 2.265955 0
M  V30 3 N 5.765795 0.518929 1.385337 0
M  V30 4 C 5.701634 -0.721802 2.063655 0
M  V30 5 C 4.778363 -1.754045 1.478971 0
M  V30 6 C 6.363594 0.618456 0.119432 0
M  V30 7 C 5.960829 1.964475 -0.514189 0
M  V30 8 C 4.452540 2.013142 -0.608082 0
M  V30 9 N 3.962364 0.740121 -1.130143 0
M  V30 10 C 2.593726 0.446695 -0.939815 0
M  V30 11 C 1.977232 -0.760530 -1.243870 0
M  V30 12 C 0.630805 -0.928176 -1.017161 0
M  V30 13 C -0.204045 0.028903 -0.493714 0
M  V30 14 N -1.589453 -0.104811 -0.246772 0
M  V30 15 C -2.386725 -1.248842 -0.488339 0
M  V30 16 N -2.009825 -2.435740 -0.978694 0
M  V30 17 C -2.806074 -3.488522 -1.193743 0
M  V30 18 C -4.143091 -3.356584 -0.887375 0
M  V30 19 C -5.220852 -4.209009 -0.979980 0
M  V30 20 C -5.319615 -5.500538 -1.417026 0
M  V30 21 C -6.601436 -6.057122 -1.367014 0
M  V30 22 N -7.640217 -5.335028 -0.912585 0
M  V30 23 C -7.556517 -4.064232 -0.480365 0
M  V30 24 O -8.656238 -3.353052 -0.018421 0
M  V30 25 C -6.301625 -3.487335 -0.517660 0
M  V30 26 N -5.933636 -2.247290 -0.152177 0
M  V30 27 C -6.660922 -1.114497 0.384809 0
M  V30 28 C -6.444573 0.136350 -0.415994 0
M  V30 29 C -6.838438 1.224864 0.537148 0
M  V30 30 C -6.451354 0.686305 1.907530 0
M  V30 31 C -6.057250 -0.754729 1.725085 0
M  V30 32 C -4.588991 -2.156888 -0.379296 0
M  V30 33 N -3.694279 -1.182736 -0.211084 0
M  V30 34 N 0.429675 1.185056 -0.211831 0
M  V30 35 C 1.728260 1.379211 -0.418422 0
M  V30 36 C 4.932171 -0.092442 -1.795953 0
M  V30 37 C 6.134411 -0.418750 -0.911601 0
M  V30 38 H 5.842230 2.812053 3.788711 0
M  V30 39 H 6.089283 1.149055 4.386603 0
M  V30 40 H 4.657862 1.522529 3.325605 0
M  V30 41 H 7.452498 0.887872 2.605863 0
M  V30 42 H 6.857346 2.339686 1.794811 0
M  V30 43 H 6.711289 -1.156394 2.293339 0
M  V30 44 H 5.301283 -0.488570 3.102091 0
M  V30 45 H 4.039543 -2.117726 2.256218 0
M  V30 46 H 4.135786 -1.385578 0.661751 0
M  V30 47 H 5.321866 -2.698375 1.181245 0
M  V30 48 H 7.495336 0.755894 0.250732 0
M  V30 49 H 6.354042 2.008257 -1.561443 0
M  V30 50 H 6.307179 2.836414 0.046310 0
M  V30 51 H 4.007830 2.186645 0.369932 0
M  V30 52 H 4.172396 2.778220 -1.365113 0
M  V30 53 H 2.568981 -1.561645 -1.659178 0
M  V30 54 H 0.229152 -1.888308 -1.277484 0
M  V30 55 H -2.062243 0.745580 0.158324 0
M  V30 56 H -2.403509 -4.403286 -1.592074 0
M  V30 57 H -4.492591 -6.082529 -1.781290 0
M  V30 58 H -6.792351 -7.072292 -1.690271 0
M  V30 59 H -9.041107 -3.433250 0.906276 0
M  V30 60 H -7.733801 -1.291382 0.491135 0
M  V30 61 H -5.465987 0.255926 -0.867563 0
M  V30 62 H -7.194064 0.123814 -1.243298 0
M  V30 63 H -6.337417 2.182310 0.399239 0
M  V30 64 H -7.946830 1.429981 0.486125 0
M  V30 65 H -7.252153 0.829062 2.657811 0
M  V30 66 H -5.572694 1.252685 2.312718 0
M  V30 67 H -6.528176 -1.407917 2.522856 0
M  V30 68 H -4.960884 -0.839610 1.761002 0
M  V30 69 H 2.051219 2.377744 -0.129366 0
M  V30 70 H 5.308242 0.375682 -2.736404 0
M  V30 71 H 4.445660 -1.034903 -2.092049 0
M  V30 72 H 7.030057 -0.387574 -1.624580 0
M  V30 73 H 6.074564 -1.453696 -0.620025 0
M  V30 END ATOM
M  V30 BEGIN BOND
M  V30 1 1 1 2
M  V30 2 1 2 3
M  V30 3 1 3 4
M  V30 4 1 4 5
M  V30 5 1 3 6
M  V30 6 1 6 7
M  V30 7 1 7 8
M  V30 8 1 8 9
M  V30 9 1 9 10
M  V30 10 2 10 11
M  V30 11 1 11 12
M  V30 12 2 12 13
M  V30 13 1 13 14
M  V30 14 1 14 15
M  V30 15 2 15 16
M  V30 16 1 16 17
M  V30 17 2 17 18
M  V30 18 1 18 19
M  V30 19 2 19 20
M  V30 20 1 20 21
M  V30 21 2 21 22
M  V30 22 1 22 23
M  V30 23 1 23 24
M  V30 24 2 23 25
M  V30 25 1 25 26
M  V30 26 1 26 27
M  V30 27 1 27 28
M  V30 28 1 28 29
M  V30 29 1 29 30
M  V30 30 1 30 31
M  V30 31 1 26 32
M  V30 32 2 32 33
M  V30 33 1 13 34
M  V30 34 2 34 35
M  V30 35 1 9 36
M  V30 36 1 36 37
M  V30 37 1 37 6
M  V30 38 1 35 10
M  V30 39 1 33 15
M  V30 40 1 32 18
M  V30 41 1 25 19
M  V30 42 1 31 27
M  V30 43 1 1 38
M  V30 44 1 1 39
M  V30 45 1 1 40
M  V30 46 1 2 41
M  V30 47 1 2 42
M  V30 48 1 4 43
M  V30 49 1 4 44
M  V30 50 1 5 45
M  V30 51 1 5 46
M  V30 52 1 5 47
M  V30 53 1 6 48
M  V30 54 1 7 49
M  V30 55 1 7 50
M  V30 56 1 8 51
M  V30 57 1 8 52
M  V30 58 1 11 53
M  V30 59 1 12 54
M  V30 60 1 14 55
M  V30 61 1 17 56
M  V30 62 1 20 57
M  V30 63 1 21 58
M  V30 64 1 24 59
M  V30 65 1 27 60
M  V30 66 1 28 61
M  V30 67 1 28 62
M  V30 68 1 29 63
M  V30 69 1 29 64
M  V30 70 1 30 65
M  V30 71 1 30 66
M  V30 72 1 31 67
M  V30 73 1 31 68
M  V30 74 1 35 69
M  V30 75 1 36 70
M  V30 76 1 36 71
M  V30 77 1 37 72
M  V30 78 1 37 73
M  V30 END BOND
M  V30 END CTAB
M  END
>  <Dataset>  (37) 
ChEMBL_Kinases

>  <Ligand_Instance>  (37) 
nan

>  <PDB_ID>  (37) 
nan

>  <Standardized_SMILES>  (37) 
CCN(CC)C1CCN(c2ccc(Nc3ncc4c5ccnc(O)c5n(C5CCCC5)c4n3)nc2)CC1

>  <Name>  (37) 
nan

>  <Pocket>  (37) 
nan

>  <ATP_Site>  (37) 
nan

>  <Peripheral>  (37) 
nan

>  <Num_H_Atoms_ProtBoundConf>  (37) 
nan

>  <Num_Resolved_Atoms>  (37) 
nan

>  <Num_Not_Resolved_Atoms>  (37) 
nan

$$$$
CHEMBL3922168
     RDKit          3D

  0  0  0  0  0  0  0  0  0  0999 V3000
M  V30 BEGIN CTAB
M  V30 COUNTS 49 52 0 0 0
M  V30 BEGIN ATOM
M  V30 1 C 0.708745 -6.219671 4.949745 0
M  V30 2 C 1.730971 -6.292996 3.835392 0
M  V30 3 C 2.134989 -4.943657 3.374466 0
M  V30 4 C 3.211269 -4.326958 3.988572 0
M  V30 5 C 3.634910 -3.054340 3.593203 0
M  V30 6 C 2.951247 -2.424581 2.571211 0
M  V30 7 C 3.432126 -1.069073 2.177523 0
M  V30 8 O 3.686174 -0.275163 3.301094 0
M  V30 9 C 2.374511 -0.438248 1.346273 0
M  V30 10 C 2.391912 -0.291265 -0.036360 0
M  V30 11 C 1.323404 0.321945 -0.662538 0
M  V30 12 C 0.259214 0.777363 0.091969 0
M  V30 13 C -0.878281 1.428121 -0.556593 0
M  V30 14 N -1.014019 1.647368 -1.890428 0
M  V30 15 C -2.187786 2.269987 -2.125748 0
M  V30 16 C -2.826833 2.723020 -3.265812 0
M  V30 17 C -4.072014 3.345369 -3.176744 0
M  V30 18 C -4.784398 3.840244 -4.357545 0
M  V30 19 N -4.156763 3.663503 -5.619302 0
M  V30 20 O -5.901915 4.405407 -4.334998 0
M  V30 21 C -4.696900 3.527479 -1.976658 0
M  V30 22 C -4.060879 3.074209 -0.820854 0
M  V30 23 C -2.823326 2.456181 -0.913878 0
M  V30 24 N -2.000688 1.932371 0.027016 0
M  V30 25 C 0.231007 0.636719 1.467058 0
M  V30 26 C 1.308876 0.017503 2.104322 0
M  V30 27 C 1.874977 -3.061776 1.969793 0
M  V30 28 C 1.447496 -4.316211 2.350363 0
M  V30 29 H 1.081946 -6.814006 5.813063 0
M  V30 30 H 0.626971 -5.156037 5.288575 0
M  V30 31 H -0.287153 -6.569576 4.597465 0
M  V30 32 H 1.289455 -6.880183 3.015510 0
M  V30 33 H 2.642326 -6.835719 4.159602 0
M  V30 34 H 3.725697 -4.850603 4.788368 0
M  V30 35 H 4.493453 -2.662699 4.145109 0
M  V30 36 H 4.391476 -1.206714 1.655232 0
M  V30 37 H 4.484881 -0.604033 3.776447 0
M  V30 38 H 3.258406 -0.675302 -0.533350 0
M  V30 39 H 1.357597 0.426113 -1.740908 0
M  V30 40 H -2.361101 2.596205 -4.239373 0
M  V30 41 H -3.701511 2.778363 -5.903124 0
M  V30 42 H -3.949099 4.169215 -6.507414 0
M  V30 43 H -5.666362 4.012108 -1.908020 0
M  V30 44 H -4.483067 3.178635 0.155152 0
M  V30 45 H -2.203563 1.919068 1.059300 0
M  V30 46 H -0.635495 1.014652 2.018267 0
M  V30 47 H 1.222463 -0.059449 3.176514 0
M  V30 48 H 1.401966 -2.474083 1.168683 0
M  V30 49 H 0.605585 -4.766254 1.849963 0
M  V30 END ATOM
M  V30 BEGIN BOND
M  V30 1 1 1 2
M  V30 2 1 2 3
M  V30 3 2 3 4
M  V30 4 1 4 5
M  V30 5 2 5 6
M  V30 6 1 6 7
M  V30 7 1 7 8
M  V30 8 1 7 9
M  V30 9 2 9 10
M  V30 10 1 10 11
M  V30 11 2 11 12
M  V30 12 1 12 13
M  V30 13 2 13 14
M  V30 14 1 14 15
M  V30 15 2 15 16
M  V30 16 1 16 17
M  V30 17 1 17 18
M  V30 18 1 18 19
M  V30 19 2 18 20
M  V30 20 2 17 21
M  V30 21 1 21 22
M  V30 22 2 22 23
M  V30 23 1 23 24
M  V30 24 1 12 25
M  V30 25 2 25 26
M  V30 26 1 6 27
M  V30 27 2 27 28
M  V30 28 1 28 3
M  V30 29 1 26 9
M  V30 30 1 24 13
M  V30 31 1 23 15
M  V30 32 1 1 29
M  V30 33 1 1 30
M  V30 34 1 1 31
M  V30 35 1 2 32
M  V30 36 1 2 33
M  V30 37 1 4 34
M  V30 38 1 5 35
M  V30 39 1 7 36
M  V30 40 1 8 37
M  V30 41 1 10 38
M  V30 42 1 11 39
M  V30 43 1 16 40
M  V30 44 1 19 41
M  V30 45 1 19 42
M  V30 46 1 21 43
M  V30 47 1 22 44
M  V30 48 1 24 45
M  V30 49 1 25 46
M  V30 50 1 26 47
M  V30 51 1 27 48
M  V30 52 1 28 49
M  V30 END BOND
M  V30 END CTAB
M  END
>  <Dataset>  (38) 
ChEMBL_Kinases

>  <Ligand_Instance>  (38) 
nan

>  <PDB_ID>  (38) 
nan

>  <Standardized_SMILES>  (38) 
CCc1ccc(C(O)c2ccc(-c3nc4cc(C(N)=O)ccc4[nH]3)cc2)cc1

>  <Name>  (38) 
nan

>  <Pocket>  (38) 
nan

>  <ATP_Site>  (38) 
nan

>  <Peripheral>  (38) 
nan

>  <Num_H_Atoms_ProtBoundConf>  (38) 
nan

>  <Num_Resolved_Atoms>  (38) 
nan

>  <Num_Not_Resolved_Atoms>  (38) 
nan

$$$$
CHEMBL3922103
     RDKit          3D

  0  0  0  0  0  0  0  0  0  0999 V3000
M  V30 BEGIN CTAB
M  V30 COUNTS 54 57 0 0 0
M  V30 BEGIN ATOM
M  V30 1 C 3.099808 -2.649262 4.922760 0
M  V30 2 C 2.029428 -1.614074 5.029701 0
M  V30 3 O 2.185128 -0.579376 4.079399 0
M  V30 4 C 3.311380 0.227288 4.023723 0
M  V30 5 N 4.333323 0.058390 4.893046 0
M  V30 6 C 5.447725 0.810420 4.885079 0
M  V30 7 N 5.544683 1.787148 3.953850 0
M  V30 8 C 4.534269 1.987976 3.059789 0
M  V30 9 C 4.654191 2.988603 2.119796 0
M  V30 10 C 3.612273 3.172027 1.221972 0
M  V30 11 C 2.481504 2.395899 1.243423 0
M  V30 12 C 1.452156 2.649584 0.282385 0
M  V30 13 C 0.593948 2.857668 -0.546337 0
M  V30 14 C -0.430463 3.105293 -1.569748 0
M  V30 15 N -1.252901 1.948750 -1.808874 0
M  V30 16 C -1.990893 1.424143 -0.738970 0
M  V30 17 O -1.783654 2.113883 0.319031 0
M  V30 18 C -2.881429 0.275145 -0.740198 0
M  V30 19 C -3.491978 -0.023980 0.483779 0
M  V30 20 N -4.326903 -1.039769 0.637227 0
M  V30 21 C -4.649921 -1.860851 -0.375882 0
M  V30 22 N -4.081103 -1.602035 -1.565971 0
M  V30 23 C -4.395344 -2.457171 -2.692543 0
M  V30 24 C -3.449635 -3.596681 -2.782446 0
M  V30 25 C -3.847693 -4.727803 -2.074544 0
M  V30 26 C -3.078345 -5.868803 -2.058523 0
M  V30 27 C -1.897421 -5.843579 -2.773062 0
M  V30 28 F -1.075897 -6.937612 -2.807593 0
M  V30 29 C -1.455784 -4.734508 -3.497777 0
M  V30 30 F -0.297791 -4.726678 -4.191256 0
M  V30 31 C -2.263466 -3.614336 -3.482289 0
M  V30 32 C -3.231277 -0.580187 -1.752504 0
M  V30 33 O -2.691873 -0.325138 -2.857100 0
M  V30 34 C 2.347049 1.382225 2.186855 0
M  V30 35 C 3.395407 1.218836 3.068571 0
M  V30 36 H 3.870915 -2.275767 4.191214 0
M  V30 37 H 2.636928 -3.606573 4.565013 0
M  V30 38 H 3.535679 -2.873979 5.900047 0
M  V30 39 H 2.150890 -1.101488 6.026627 0
M  V30 40 H 1.025229 -2.038028 5.041984 0
M  V30 41 H 6.254545 0.654718 5.594189 0
M  V30 42 H 5.541692 3.621599 2.078617 0
M  V30 43 H 3.731033 3.968641 0.489587 0
M  V30 44 H -1.049174 3.997793 -1.334186 0
M  V30 45 H 0.125508 3.326584 -2.510368 0
M  V30 46 H -1.322263 1.493477 -2.724749 0
M  V30 47 H -3.328322 0.550428 1.394682 0
M  V30 48 H -5.314393 -2.689212 -0.303981 0
M  V30 49 H -5.446534 -2.810551 -2.667384 0
M  V30 50 H -4.277033 -1.853401 -3.614716 0
M  V30 51 H -4.776276 -4.793312 -1.493696 0
M  V30 52 H -3.363533 -6.757054 -1.518903 0
M  V30 53 H -2.005932 -2.726325 -4.005408 0
M  V30 54 H 1.453496 0.767563 2.205363 0
M  V30 END ATOM
M  V30 BEGIN BOND
M  V30 1 1 1 2
M  V30 2 1 2 3
M  V30 3 1 3 4
M  V30 4 2 4 5
M  V30 5 1 5 6
M  V30 6 2 6 7
M  V30 7 1 7 8
M  V30 8 2 8 9
M  V30 9 1 9 10
M  V30 10 2 10 11
M  V30 11 1 11 12
M  V30 12 3 12 13
M  V30 13 1 13 14
M  V30 14 1 14 15
M  V30 15 1 15 16
M  V30 16 2 16 17
M  V30 17 1 16 18
M  V30 18 2 18 19
M  V30 19 1 19 20
M  V30 20 2 20 21
M  V30 21 1 21 22
M  V30 22 1 22 23
M  V30 23 1 23 24
M  V30 24 2 24 25
M  V30 25 1 25 26
M  V30 26 2 26 27
M  V30 27 1 27 28
M  V30 28 1 27 29
M  V30 29 1 29 30
M  V30 30 2 29 31
M  V30 31 1 22 32
M  V30 32 2 32 33
M  V30 33 1 11 34
M  V30 34 2 34 35
M  V30 35 1 35 4
M  V30 36 1 35 8
M  V30 37 1 32 18
M  V30 38 1 31 24
M  V30 39 1 1 36
M  V30 40 1 1 37
M  V30 41 1 1 38
M  V30 42 1 2 39
M  V30 43 1 2 40
M  V30 44 1 6 41
M  V30 45 1 9 42
M  V30 46 1 10 43
M  V30 47 1 14 44
M  V30 48 1 14 45
M  V30 49 1 15 46
M  V30 50 1 19 47
M  V30 51 1 21 48
M  V30 52 1 23 49
M  V30 53 1 23 50
M  V30 54 1 25 51
M  V30 55 1 26 52
M  V30 56 1 31 53
M  V30 57 1 34 54
M  V30 END BOND
M  V30 END CTAB
M  END
>  <Dataset>  (39) 
ChEMBL_Kinases

>  <Ligand_Instance>  (39) 
nan

>  <PDB_ID>  (39) 
nan

>  <Standardized_SMILES>  (39) 
CCOc1ncnc2ccc(C#CCNC(=O)c3cncn(Cc4ccc(F)c(F)c4)c3=O)cc12

>  <Name>  (39) 
nan

>  <Pocket>  (39) 
nan

>  <ATP_Site>  (39) 
nan

>  <Peripheral>  (39) 
nan

>  <Num_H_Atoms_ProtBoundConf>  (39) 
nan

>  <Num_Resolved_Atoms>  (39) 
nan

>  <Num_Not_Resolved_Atoms>  (39) 
nan

$$$$
CHEMBL3922085
     RDKit          3D

  0  0  0  0  0  0  0  0  0  0999 V3000
M  V30 BEGIN CTAB
M  V30 COUNTS 51 55 0 0 0
M  V30 BEGIN ATOM
M  V30 1 C 5.039038 -3.008000 6.319816 0
M  V30 2 O 5.136212 -2.342301 5.207594 0
M  V30 3 C 5.554950 -1.695281 4.160281 0
M  V30 4 O 6.804190 -1.659325 4.278676 0
M  V30 5 C 4.317892 -1.340461 3.366344 0
M  V30 6 O 5.486856 -0.990236 2.917783 0
M  V30 7 N 4.912872 -0.654847 2.269257 0
M  V30 8 C 3.684196 -0.310840 1.384932 0
M  V30 9 N 3.471570 0.185487 0.106972 0
M  V30 10 C 2.186347 0.308760 -0.191548 0
M  V30 11 C 1.618788 0.744845 -1.344057 0
M  V30 12 C 0.228838 0.757095 -1.375201 0
M  V30 13 C -0.540128 0.351570 -0.306980 0
M  V30 14 C -1.999902 0.314712 -0.271565 0
M  V30 15 O -2.472592 0.120483 1.056052 0
M  V30 16 C -2.691708 1.527740 -0.752562 0
M  V30 17 C -2.546892 2.838526 -0.393067 0
M  V30 18 C -3.358027 3.727520 -1.039702 0
M  V30 19 C -4.321608 3.476557 -2.022988 0
M  V30 20 C -4.381122 2.100137 -2.309797 0
M  V30 21 C -3.598503 1.154795 -1.701730 0
M  V30 22 C -3.570544 -0.308704 -1.900314 0
M  V30 23 O -4.226152 -1.066204 -2.660731 0
M  V30 24 N -2.583565 -0.797338 -1.004277 0
M  V30 25 C -2.105321 -2.115665 -0.697238 0
M  V30 26 C -2.832217 -2.607571 0.412729 0
M  V30 27 C -2.560722 -3.873596 0.906003 0
M  V30 28 C -1.583429 -4.643610 0.310237 0
M  V30 29 C -0.857973 -4.166084 -0.788429 0
M  V30 30 Cl 0.389799 -5.054471 -1.623906 0
M  V30 31 C -1.136354 -2.899364 -1.273697 0
M  V30 32 F -0.555648 -2.270963 -2.316984 0
M  V30 33 C 0.087075 -0.087958 0.850432 0
M  V30 34 C 1.452484 -0.095831 0.871264 0
M  V30 35 N 2.354646 -0.454963 1.780230 0
M  V30 36 H 4.434116 -3.965859 6.320508 0
M  V30 37 H 6.020274 -3.365670 6.772038 0
M  V30 38 H 4.505823 -2.416000 7.136175 0
M  V30 39 H 5.278016 -0.210357 1.556330 0
M  V30 40 H 2.239778 1.045807 -2.163217 0
M  V30 41 H -0.263509 1.104713 -2.275211 0
M  V30 42 H -3.150006 0.769628 1.298893 0
M  V30 43 H -1.859052 3.213524 0.342183 0
M  V30 44 H -3.258869 4.789997 -0.761509 0
M  V30 45 H -4.923919 4.250061 -2.473687 0
M  V30 46 H -5.113278 1.801030 -3.069939 0
M  V30 47 H -3.610503 -2.118316 0.983247 0
M  V30 48 H -3.071844 -4.314504 1.759193 0
M  V30 49 H -1.322914 -5.634978 0.640171 0
M  V30 50 H -0.459862 -0.427934 1.724520 0
M  V30 51 H 2.000106 -0.812460 2.711136 0
M  V30 END ATOM
M  V30 BEGIN BOND
M  V30 1 1 1 2
M  V30 2 1 2 3
M  V30 3 2 3 4
M  V30 4 1 3 5
M  V30 5 2 5 6
M  V30 6 1 5 7
M  V30 7 1 7 8
M  V30 8 2 8 9
M  V30 9 1 9 10
M  V30 10 2 10 11
M  V30 11 1 11 12
M  V30 12 2 12 13
M  V30 13 1 13 14
M  V30 14 1 14 15
M  V30 15 1 14 16
M  V30 16 2 16 17
M  V30 17 1 17 18
M  V30 18 2 18 19
M  V30 19 1 19 20
M  V30 20 2 20 21
M  V30 21 1 21 22
M  V30 22 2 22 23
M  V30 23 1 22 24
M  V30 24 1 24 25
M  V30 25 2 25 26
M  V30 26 1 26 27
M  V30 27 2 27 28
M  V30 28 1 28 29
M  V30 29 1 29 30
M  V30 30 2 29 31
M  V30 31 1 31 32
M  V30 32 1 13 33
M  V30 33 2 33 34
M  V30 34 1 34 35
M  V30 35 1 35 8
M  V30 36 1 34 10
M  V30 37 1 24 14
M  V30 38 1 31 25
M  V30 39 1 21 16
M  V30 40 1 1 36
M  V30 41 1 1 37
M  V30 42 1 1 38
M  V30 43 1 7 39
M  V30 44 1 11 40
M  V30 45 1 12 41
M  V30 46 1 15 42
M  V30 47 1 17 43
M  V30 48 1 18 44
M  V30 49 1 19 45
M  V30 50 1 20 46
M  V30 51 1 26 47
M  V30 52 1 27 48
M  V30 53 1 28 49
M  V30 54 1 33 50
M  V30 55 1 35 51
M  V30 END BOND
M  V30 END CTAB
M  END
>  <Dataset>  (40) 
ChEMBL_Kinases

>  <Ligand_Instance>  (40) 
nan

>  <PDB_ID>  (40) 
nan

>  <Standardized_SMILES>  (40) 
COC(=O)C(=O)Nc1nc2ccc(C3(O)c4ccccc4C(=O)N3c3cccc(Cl)c3F)cc2[nH]1

>  <Name>  (40) 
nan

>  <Pocket>  (40) 
nan

>  <ATP_Site>  (40) 
nan

>  <Peripheral>  (40) 
nan

>  <Num_H_Atoms_ProtBoundConf>  (40) 
nan

>  <Num_Resolved_Atoms>  (40) 
nan

>  <Num_Not_Resolved_Atoms>  (40) 
nan

$$$$
CHEMBL3921919
     RDKit          3D

  0  0  0  0  0  0  0  0  0  0999 V3000
M  V30 BEGIN CTAB
M  V30 COUNTS 32 35 0 0 0
M  V30 BEGIN ATOM
M  V30 1 O 2.433461 -5.201502 2.192251 0
M  V30 2 C 1.770476 -4.160050 2.020105 0
M  V30 3 O 0.734046 -3.888584 2.902396 0
M  V30 4 C 2.061854 -3.240248 0.926606 0
M  V30 5 C 3.093360 -3.516724 0.053779 0
M  V30 6 C 3.334318 -2.618687 -0.967101 0
M  V30 7 C 2.568752 -1.479452 -1.112031 0
M  V30 8 N 2.600923 -0.468576 -2.004506 0
M  V30 9 C 1.630325 0.416716 -1.713774 0
M  V30 10 O 1.262098 1.492374 -2.231343 0
M  V30 11 N 0.955161 -0.017860 -0.620060 0
M  V30 12 C -0.155355 0.519737 0.115971 0
M  V30 13 N -0.098304 1.574011 0.965370 0
M  V30 14 C -1.345819 1.790399 1.474405 0
M  V30 15 C -1.813480 2.730361 2.369528 0
M  V30 16 C -3.153353 2.698947 2.699894 0
M  V30 17 C -4.012981 1.752642 2.152351 0
M  V30 18 C -3.509080 0.818384 1.252275 0
M  V30 19 C -2.155116 0.824215 0.897185 0
M  V30 20 N -1.434467 0.045950 0.067419 0
M  V30 21 C 1.521199 -1.183122 -0.238823 0
M  V30 22 C 1.304817 -2.098215 0.770142 0
M  V30 23 H 0.163584 -4.643288 3.311960 0
M  V30 24 H 3.672642 -4.418714 0.197372 0
M  V30 25 H 4.131903 -2.796475 -1.672535 0
M  V30 26 H 3.232064 -0.331158 -2.798757 0
M  V30 27 H -1.093609 3.443761 2.763227 0
M  V30 28 H -3.509682 3.450894 3.411226 0
M  V30 29 H -5.067834 1.764327 2.442312 0
M  V30 30 H -4.168162 0.072727 0.815985 0
M  V30 31 H -1.756945 -0.764203 -0.511232 0
M  V30 32 H 0.501093 -1.912884 1.475779 0
M  V30 END ATOM
M  V30 BEGIN BOND
M  V30 1 2 1 2
M  V30 2 1 2 3
M  V30 3 1 2 4
M  V30 4 2 4 5
M  V30 5 1 5 6
M  V30 6 2 6 7
M  V30 7 1 7 8
M  V30 8 1 8 9
M  V30 9 2 9 10
M  V30 10 1 9 11
M  V30 11 1 11 12
M  V30 12 2 12 13
M  V30 13 1 13 14
M  V30 14 2 14 15
M  V30 15 1 15 16
M  V30 16 2 16 17
M  V30 17 1 17 18
M  V30 18 2 18 19
M  V30 19 1 19 20
M  V30 20 1 11 21
M  V30 21 2 21 22
M  V30 22 1 22 4
M  V30 23 1 21 7
M  V30 24 1 20 12
M  V30 25 1 19 14
M  V30 26 1 3 23
M  V30 27 1 5 24
M  V30 28 1 6 25
M  V30 29 1 8 26
M  V30 30 1 15 27
M  V30 31 1 16 28
M  V30 32 1 17 29
M  V30 33 1 18 30
M  V30 34 1 20 31
M  V30 35 1 22 32
M  V30 END BOND
M  V30 END CTAB
M  END
>  <Dataset>  (41) 
ChEMBL_Kinases

>  <Ligand_Instance>  (41) 
nan

>  <PDB_ID>  (41) 
nan

>  <Standardized_SMILES>  (41) 
O=C(O)c1ccc2[nH]c(=O)n(-c3nc4ccccc4[nH]3)c2c1

>  <Name>  (41) 
nan

>  <Pocket>  (41) 
nan

>  <ATP_Site>  (41) 
nan

>  <Peripheral>  (41) 
nan

>  <Num_H_Atoms_ProtBoundConf>  (41) 
nan

>  <Num_Resolved_Atoms>  (41) 
nan

>  <Num_Not_Resolved_Atoms>  (41) 
nan

$$$$
CHEMBL3702186
     RDKit          3D

  0  0  0  0  0  0  0  0  0  0999 V3000
M  V30 BEGIN CTAB
M  V30 COUNTS 76 81 0 0 0
M  V30 BEGIN ATOM
M  V30 1 C 7.107269 -1.703690 5.541040 0
M  V30 2 C 5.663169 -1.682051 5.103247 0
M  V30 3 N 5.343265 -0.702206 4.116779 0
M  V30 4 C 5.449839 0.603817 4.752468 0
M  V30 5 C 4.301852 0.684889 5.765377 0
M  V30 6 C 6.252218 -0.785437 2.982239 0
M  V30 7 C 6.262162 -2.121327 2.330290 0
M  V30 8 C 5.077846 -2.384003 1.443840 0
M  V30 9 N 4.690221 -1.160634 0.720901 0
M  V30 10 C 3.382034 -0.924673 0.232049 0
M  V30 11 C 2.314878 -1.741504 0.520523 0
M  V30 12 C 1.069600 -1.436221 0.003587 0
M  V30 13 C 0.797071 -0.349513 -0.801479 0
M  V30 14 N -0.464347 0.001036 -1.336315 0
M  V30 15 C -1.693275 -0.673626 -1.136779 0
M  V30 16 N -1.926905 -1.765269 -0.398463 0
M  V30 17 C -3.089727 -2.374969 -0.223552 0
M  V30 18 C -4.162508 -1.840779 -0.858346 0
M  V30 19 C -5.496925 -2.175551 -0.923843 0
M  V30 20 C -6.156313 -3.220489 -0.318715 0
M  V30 21 C -7.507496 -3.405353 -0.498991 0
M  V30 22 N -8.128081 -2.513426 -1.290533 0
M  V30 23 C -7.493113 -1.480514 -1.892120 0
M  V30 24 O -8.196703 -0.598608 -2.695955 0
M  V30 25 C -9.582168 -0.803735 -2.868378 0
M  V30 26 C -6.132248 -1.241195 -1.749507 0
M  V30 27 N -5.206422 -0.358188 -2.176691 0
M  V30 28 C -5.526290 0.743599 -3.057440 0
M  V30 29 C -4.670923 1.946134 -2.918383 0
M  V30 30 C -4.525038 2.563744 -4.291133 0
M  V30 31 C -4.678109 1.414831 -5.235674 0
M  V30 32 C -5.192523 0.247985 -4.461534 0
M  V30 33 C -4.020838 -0.712221 -1.644643 0
M  V30 34 N -2.799342 -0.206093 -1.730853 0
M  V30 35 N 1.873551 0.414282 -1.052032 0
M  V30 36 C 3.095492 0.150907 -0.569140 0
M  V30 37 C 5.835020 -0.280213 0.623192 0
M  V30 38 C 5.981070 0.345503 2.003956 0
M  V30 39 H 7.164076 -2.543944 6.296260 0
M  V30 40 H 7.419719 -0.808070 6.108684 0
M  V30 41 H 7.789684 -2.005438 4.739540 0
M  V30 42 H 5.395029 -2.706555 4.784970 0
M  V30 43 H 5.042916 -1.537429 6.041259 0
M  V30 44 H 6.428802 0.753512 5.267850 0
M  V30 45 H 5.336295 1.455859 4.080796 0
M  V30 46 H 4.576826 0.298621 6.756775 0
M  V30 47 H 3.438384 0.067765 5.404407 0
M  V30 48 H 3.937895 1.749412 5.851217 0
M  V30 49 H 7.268693 -0.585716 3.387761 0
M  V30 50 H 6.300274 -2.916737 3.085889 0
M  V30 51 H 7.195949 -2.276235 1.718928 0
M  V30 52 H 5.302767 -3.153502 0.710232 0
M  V30 53 H 4.235443 -2.709051 2.074730 0
M  V30 54 H 2.437746 -2.607788 1.138740 0
M  V30 55 H 0.269574 -2.110350 0.261380 0
M  V30 56 H -0.480854 0.855157 -1.945475 0
M  V30 57 H -3.159051 -3.271945 0.410872 0
M  V30 58 H -5.602834 -3.911161 0.310872 0
M  V30 59 H -7.976224 -4.229949 -0.009773 0
M  V30 60 H -9.921101 -0.513075 -3.895657 0
M  V30 61 H -10.183150 -0.311561 -2.076252 0
M  V30 62 H -9.777768 -1.885629 -2.779051 0
M  V30 63 H -6.598498 1.035609 -2.986996 0
M  V30 64 H -5.257977 2.700051 -2.312620 0
M  V30 65 H -3.727655 1.839156 -2.389750 0
M  V30 66 H -5.291417 3.337265 -4.465359 0
M  V30 67 H -3.543219 3.045833 -4.433686 0
M  V30 68 H -3.719531 1.189360 -5.769715 0
M  V30 69 H -5.424627 1.635745 -6.036553 0
M  V30 70 H -6.092722 -0.209144 -4.931380 0
M  V30 71 H -4.375014 -0.522636 -4.412524 0
M  V30 72 H 3.840147 0.867937 -0.870882 0
M  V30 73 H 6.763053 -0.839153 0.410160 0
M  V30 74 H 5.691879 0.502824 -0.155154 0
M  V30 75 H 6.730090 1.132573 2.046210 0
M  V30 76 H 4.951745 0.733326 2.261761 0
M  V30 END ATOM
M  V30 BEGIN BOND
M  V30 1 1 1 2
M  V30 2 1 2 3
M  V30 3 1 3 4
M  V30 4 1 4 5
M  V30 5 1 3 6
M  V30 6 1 6 7
M  V30 7 1 7 8
M  V30 8 1 8 9
M  V30 9 1 9 10
M  V30 10 2 10 11
M  V30 11 1 11 12
M  V30 12 2 12 13
M  V30 13 1 13 14
M  V30 14 1 14 15
M  V30 15 2 15 16
M  V30 16 1 16 17
M  V30 17 2 17 18
M  V30 18 1 18 19
M  V30 19 2 19 20
M  V30 20 1 20 21
M  V30 21 2 21 22
M  V30 22 1 22 23
M  V30 23 1 23 24
M  V30 24 1 24 25
M  V30 25 2 23 26
M  V30 26 1 26 27
M  V30 27 1 27 28
M  V30 28 1 28 29
M  V30 29 1 29 30
M  V30 30 1 30 31
M  V30 31 1 31 32
M  V30 32 1 27 33
M  V30 33 2 33 34
M  V30 34 1 13 35
M  V30 35 2 35 36
M  V30 36 1 9 37
M  V30 37 1 37 38
M  V30 38 1 38 6
M  V30 39 1 36 10
M  V30 40 1 34 15
M  V30 41 1 33 18
M  V30 42 1 26 19
M  V30 43 1 32 28
M  V30 44 1 1 39
M  V30 45 1 1 40
M  V30 46 1 1 41
M  V30 47 1 2 42
M  V30 48 1 2 43
M  V30 49 1 4 44
M  V30 50 1 4 45
M  V30 51 1 5 46
M  V30 52 1 5 47
M  V30 53 1 5 48
M  V30 54 1 6 49
M  V30 55 1 7 50
M  V30 56 1 7 51
M  V30 57 1 8 52
M  V30 58 1 8 53
M  V30 59 1 11 54
M  V30 60 1 12 55
M  V30 61 1 14 56
M  V30 62 1 17 57
M  V30 63 1 20 58
M  V30 64 1 21 59
M  V30 65 1 25 60
M  V30 66 1 25 61
M  V30 67 1 25 62
M  V30 68 1 28 63
M  V30 69 1 29 64
M  V30 70 1 29 65
M  V30 71 1 30 66
M  V30 72 1 30 67
M  V30 73 1 31 68
M  V30 74 1 31 69
M  V30 75 1 32 70
M  V30 76 1 32 71
M  V30 77 1 36 72
M  V30 78 1 37 73
M  V30 79 1 37 74
M  V30 80 1 38 75
M  V30 81 1 38 76
M  V30 END BOND
M  V30 END CTAB
M  END
>  <Dataset>  (42) 
ChEMBL_Kinases

>  <Ligand_Instance>  (42) 
nan

>  <PDB_ID>  (42) 
nan

>  <Standardized_SMILES>  (42) 
CCN(CC)C1CCN(c2ccc(Nc3ncc4c5ccnc(OC)c5n(C5CCCC5)c4n3)nc2)CC1

>  <Name>  (42) 
nan

>  <Pocket>  (42) 
nan

>  <ATP_Site>  (42) 
nan

>  <Peripheral>  (42) 
nan

>  <Num_H_Atoms_ProtBoundConf>  (42) 
nan

>  <Num_Resolved_Atoms>  (42) 
nan

>  <Num_Not_Resolved_Atoms>  (42) 
nan

$$$$
CHEMBL3921905
     RDKit          3D

  0  0  0  0  0  0  0  0  0  0999 V3000
M  V30 BEGIN CTAB
M  V30 COUNTS 45 47 0 0 0
M  V30 BEGIN ATOM
M  V30 1 C -0.270217 -3.723146 3.795096 0
M  V30 2 C -0.236524 -3.725404 2.316821 0
M  V30 3 C 0.355155 -2.797585 1.469840 0
M  V30 4 C 0.186189 -3.120299 0.139625 0
M  V30 5 N 0.620853 -2.443546 -1.021332 0
M  V30 6 C 1.285801 -1.187956 -0.992984 0
M  V30 7 C 1.774001 -0.674655 -2.182141 0
M  V30 8 C 2.434432 0.526392 -2.309622 0
M  V30 9 C 2.940274 1.034478 -3.611478 0
M  V30 10 C 2.591509 1.225707 -1.132013 0
M  V30 11 C 3.273674 2.496969 -1.184146 0
M  V30 12 N 3.832934 3.526276 -1.213595 0
M  V30 13 C 2.108914 0.734090 0.085461 0
M  V30 14 N 2.330058 1.504785 1.278951 0
M  V30 15 C 1.842940 1.084494 2.578622 0
M  V30 16 C 0.356468 1.191525 2.691373 0
M  V30 17 O -0.382145 0.447184 1.784315 0
M  V30 18 C -1.770679 0.409314 1.716578 0
M  V30 19 C -2.449841 -0.353321 0.785525 0
M  V30 20 C -3.827204 -0.383201 0.727851 0
M  V30 21 N -4.519535 0.367622 1.623110 0
M  V30 22 C -3.846331 1.111896 2.531842 0
M  V30 23 C -2.474076 1.184531 2.641093 0
M  V30 24 N 1.478391 -0.450022 0.099670 0
M  V30 25 N -0.520215 -4.264523 0.197118 0
M  V30 26 N -0.766059 -4.617653 1.435567 0
M  V30 27 H 0.650066 -3.357824 4.263233 0
M  V30 28 H -0.540015 -4.757912 4.137852 0
M  V30 29 H -1.112686 -3.063336 4.109314 0
M  V30 30 H 0.881778 -1.941944 1.855603 0
M  V30 31 H 0.437551 -2.902343 -1.941149 0
M  V30 32 H 1.636217 -1.249618 -3.104937 0
M  V30 33 H 2.591421 0.325781 -4.394910 0
M  V30 34 H 2.427160 1.995826 -3.792568 0
M  V30 35 H 4.027663 1.217412 -3.627178 0
M  V30 36 H 2.860501 2.397452 1.203967 0
M  V30 37 H 2.183839 0.027848 2.689525 0
M  V30 38 H 2.307532 1.692737 3.360218 0
M  V30 39 H 0.100053 0.820517 3.727785 0
M  V30 40 H 0.079522 2.277743 2.605712 0
M  V30 41 H -1.898285 -0.957460 0.064245 0
M  V30 42 H -4.318036 -0.999398 -0.024441 0
M  V30 43 H -4.504173 1.658289 3.179885 0
M  V30 44 H -2.033611 1.805223 3.396564 0
M  V30 45 H -1.296433 -5.465950 1.760280 0
M  V30 END ATOM
M  V30 BEGIN BOND
M  V30 1 1 1 2
M  V30 2 2 2 3
M  V30 3 1 3 4
M  V30 4 1 4 5
M  V30 5 1 5 6
M  V30 6 2 6 7
M  V30 7 1 7 8
M  V30 8 1 8 9
M  V30 9 2 8 10
M  V30 10 1 10 11
M  V30 11 3 11 12
M  V30 12 1 10 13
M  V30 13 1 13 14
M  V30 14 1 14 15
M  V30 15 1 15 16
M  V30 16 1 16 17
M  V30 17 1 17 18
M  V30 18 2 18 19
M  V30 19 1 19 20
M  V30 20 2 20 21
M  V30 21 1 21 22
M  V30 22 2 22 23
M  V30 23 2 13 24
M  V30 24 2 4 25
M  V30 25 1 25 26
M  V30 26 1 26 2
M  V30 27 1 24 6
M  V30 28 1 23 18
M  V30 29 1 1 27
M  V30 30 1 1 28
M  V30 31 1 1 29
M  V30 32 1 3 30
M  V30 33 1 5 31
M  V30 34 1 7 32
M  V30 35 1 9 33
M  V30 36 1 9 34
M  V30 37 1 9 35
M  V30 38 1 14 36
M  V30 39 1 15 37
M  V30 40 1 15 38
M  V30 41 1 16 39
M  V30 42 1 16 40
M  V30 43 1 19 41
M  V30 44 1 20 42
M  V30 45 1 22 43
M  V30 46 1 23 44
M  V30 47 1 26 45
M  V30 END BOND
M  V30 END CTAB
M  END
>  <Dataset>  (43) 
ChEMBL_Kinases

>  <Ligand_Instance>  (43) 
nan

>  <PDB_ID>  (43) 
nan

>  <Standardized_SMILES>  (43) 
Cc1cc(Nc2cc(C)c(C#N)c(NCCOc3ccncc3)n2)n[nH]1

>  <Name>  (43) 
nan

>  <Pocket>  (43) 
nan

>  <ATP_Site>  (43) 
nan

>  <Peripheral>  (43) 
nan

>  <Num_H_Atoms_ProtBoundConf>  (43) 
nan

>  <Num_Resolved_Atoms>  (43) 
nan

>  <Num_Not_Resolved_Atoms>  (43) 
nan

$$$$
CHEMBL392184
     RDKit          3D

  0  0  0  0  0  0  0  0  0  0999 V3000
M  V30 BEGIN CTAB
M  V30 COUNTS 15 16 0 0 0
M  V30 BEGIN ATOM
M  V30 1 Cl -0.475163 -2.067189 3.583567 0
M  V30 2 C 0.180252 -1.119506 2.244756 0
M  V30 3 C -0.213374 -1.372892 0.957392 0
M  V30 4 C 0.341676 -0.591861 -0.033951 0
M  V30 5 C 1.255339 0.412174 0.199550 0
M  V30 6 C 1.941912 1.309152 -0.568809 0
M  V30 7 N 2.691154 2.033338 0.279505 0
M  V30 8 N 2.491214 1.621437 1.501334 0
M  V30 9 C 1.608400 0.612829 1.530560 0
M  V30 10 C 1.088786 -0.134173 2.563466 0
M  V30 11 H -0.921398 -2.148251 0.758684 0
M  V30 12 H 0.051024 -0.769428 -1.047715 0
M  V30 13 H 1.862394 1.380209 -1.638634 0
M  V30 14 H 2.975402 2.049250 2.315787 0
M  V30 15 H 1.413143 0.083750 3.563828 0
M  V30 END ATOM
M  V30 BEGIN BOND
M  V30 1 1 1 2
M  V30 2 2 2 3
M  V30 3 1 3 4
M  V30 4 2 4 5
M  V30 5 1 5 6
M  V30 6 2 6 7
M  V30 7 1 7 8
M  V30 8 1 8 9
M  V30 9 2 9 10
M  V30 10 1 10 2
M  V30 11 1 9 5
M  V30 12 1 3 11
M  V30 13 1 4 12
M  V30 14 1 6 13
M  V30 15 1 8 14
M  V30 16 1 10 15
M  V30 END BOND
M  V30 END CTAB
M  END
>  <Dataset>  (44) 
ChEMBL_Kinases

>  <Ligand_Instance>  (44) 
nan

>  <PDB_ID>  (44) 
nan

>  <Standardized_SMILES>  (44) 
Clc1ccc2cn[nH]c2c1

>  <Name>  (44) 
nan

>  <Pocket>  (44) 
nan

>  <ATP_Site>  (44) 
nan

>  <Peripheral>  (44) 
nan

>  <Num_H_Atoms_ProtBoundConf>  (44) 
nan

>  <Num_Resolved_Atoms>  (44) 
nan

>  <Num_Not_Resolved_Atoms>  (44) 
nan

$$$$
CHEMBL392167
     RDKit          3D

  0  0  0  0  0  0  0  0  0  0999 V3000
M  V30 BEGIN CTAB
M  V30 COUNTS 71 77 0 0 0
M  V30 BEGIN ATOM
M  V30 1 C 4.848161 2.621421 0.166323 0
M  V30 2 N 4.380808 1.229218 0.336356 0
M  V30 3 C 5.381113 0.188288 0.160438 0
M  V30 4 C 3.076387 0.666822 0.656871 0
M  V30 5 N 2.412309 1.786456 0.787639 0
M  V30 6 C 1.132039 1.987161 1.095242 0
M  V30 7 C 1.220138 0.670451 1.113052 0
M  V30 8 C 1.390776 -0.634916 1.110250 0
M  V30 9 C 2.756043 -0.661908 0.773059 0
M  V30 10 C 3.298179 -2.055262 0.636558 0
M  V30 11 C 2.118489 -2.991896 0.307985 0
M  V30 12 C 1.434285 -2.519718 -0.951390 0
M  V30 13 N 0.110708 -3.087801 -1.143600 0
M  V30 14 C -0.809045 -2.090530 -1.240333 0
M  V30 15 C -2.087176 -2.575659 -1.412904 0
M  V30 16 C -1.899425 -3.960594 -1.416559 0
M  V30 17 C -2.750996 -5.036141 -1.546625 0
M  V30 18 C -2.221968 -6.332919 -1.505556 0
M  V30 19 C -0.870727 -6.566226 -1.338617 0
M  V30 20 C -0.022151 -5.480893 -1.208940 0
M  V30 21 C -0.566799 -4.221167 -1.252511 0
M  V30 22 C -3.260950 -1.731346 -1.553409 0
M  V30 23 C -3.622222 -0.677193 -0.851851 0
M  V30 24 C -4.909099 -0.182316 -1.411055 0
M  V30 25 O -5.679977 0.792497 -1.107843 0
M  V30 26 N -5.320177 -0.996138 -2.502745 0
M  V30 27 C -4.284506 -1.962487 -2.585764 0
M  V30 28 O -4.325343 -2.877293 -3.478767 0
M  V30 29 C -3.105066 0.086484 0.270485 0
M  V30 30 C -2.686846 1.412181 0.094140 0
M  V30 31 N -2.269358 1.956081 1.248555 0
M  V30 32 C -2.408896 0.984945 2.198879 0
M  V30 33 C -2.107041 1.074123 3.539967 0
M  V30 34 C -2.332407 -0.044128 4.313937 0
M  V30 35 C -2.844030 -1.222919 3.775720 0
M  V30 36 C -3.133918 -1.263981 2.408301 0
M  V30 37 C -2.914203 -0.150069 1.614070 0
M  V30 38 C -1.847495 3.316269 1.263747 0
M  V30 39 C -0.606819 3.753238 0.635361 0
M  V30 40 C 0.730527 3.372521 1.151030 0
M  V30 41 H 5.931499 2.602066 0.385003 0
M  V30 42 H 4.676221 2.936462 -0.863159 0
M  V30 43 H 4.341951 3.274670 0.921570 0
M  V30 44 H 6.384194 0.663405 0.210905 0
M  V30 45 H 5.319405 -0.602676 0.902760 0
M  V30 46 H 5.235029 -0.210531 -0.856713 0
M  V30 47 H 0.193540 0.867034 1.363695 0
M  V30 48 H 0.609829 -1.352670 1.324866 0
M  V30 49 H 3.858004 -2.402980 1.493559 0
M  V30 50 H 3.928007 -2.100991 -0.270931 0
M  V30 51 H 2.530728 -4.026022 0.180013 0
M  V30 52 H 1.458064 -3.035151 1.157410 0
M  V30 53 H 2.112608 -2.931815 -1.792728 0
M  V30 54 H 1.484933 -1.447648 -1.100410 0
M  V30 55 H -0.703695 -0.989460 -1.204585 0
M  V30 56 H -3.807629 -4.873239 -1.675310 0
M  V30 57 H -2.938356 -7.139706 -1.613755 0
M  V30 58 H -0.548418 -7.595483 -1.319890 0
M  V30 59 H 1.053143 -5.653233 -1.075653 0
M  V30 60 H -6.173505 -0.934068 -3.122433 0
M  V30 61 H -2.710754 1.914283 -0.883440 0
M  V30 62 H -1.715463 1.938519 4.021929 0
M  V30 63 H -2.118013 -0.040094 5.372213 0
M  V30 64 H -3.007247 -2.081091 4.423122 0
M  V30 65 H -3.531394 -2.168122 1.955398 0
M  V30 66 H -2.687894 3.917686 0.795965 0
M  V30 67 H -1.881113 3.728924 2.339867 0
M  V30 68 H -0.637906 3.430589 -0.454984 0
M  V30 69 H -0.660801 4.886287 0.553476 0
M  V30 70 H 1.513680 4.054456 0.698297 0
M  V30 71 H 0.725301 3.666512 2.254048 0
M  V30 END ATOM
M  V30 BEGIN BOND
M  V30 1 1 1 2
M  V30 2 1 2 3
M  V30 3 1 2 4
M  V30 4 1 4 5
M  V30 5 2 5 6
M  V30 6 1 6 7
M  V30 7 2 7 8
M  V30 8 1 8 9
M  V30 9 1 9 10
M  V30 10 1 10 11
M  V30 11 1 11 12
M  V30 12 1 12 13
M  V30 13 1 13 14
M  V30 14 2 14 15
M  V30 15 1 15 16
M  V30 16 2 16 17
M  V30 17 1 17 18
M  V30 18 2 18 19
M  V30 19 1 19 20
M  V30 20 2 20 21
M  V30 21 1 15 22
M  V30 22 2 22 23
M  V30 23 1 23 24
M  V30 24 2 24 25
M  V30 25 1 24 26
M  V30 26 1 26 27
M  V30 27 2 27 28
M  V30 28 1 23 29
M  V30 29 2 29 30
M  V30 30 1 30 31
M  V30 31 1 31 32
M  V30 32 2 32 33
M  V30 33 1 33 34
M  V30 34 2 34 35
M  V30 35 1 35 36
M  V30 36 2 36 37
M  V30 37 1 31 38
M  V30 38 1 38 39
M  V30 39 1 39 40
M  V30 40 2 9 4
M  V30 41 1 21 13
M  V30 42 1 27 22
M  V30 43 1 37 29
M  V30 44 1 40 6
M  V30 45 1 21 16
M  V30 46 1 37 32
M  V30 47 1 1 41
M  V30 48 1 1 42
M  V30 49 1 1 43
M  V30 50 1 3 44
M  V30 51 1 3 45
M  V30 52 1 3 46
M  V30 53 1 7 47
M  V30 54 1 8 48
M  V30 55 1 10 49
M  V30 56 1 10 50
M  V30 57 1 11 51
M  V30 58 1 11 52
M  V30 59 1 12 53
M  V30 60 1 12 54
M  V30 61 1 14 55
M  V30 62 1 17 56
M  V30 63 1 18 57
M  V30 64 1 19 58
M  V30 65 1 20 59
M  V30 66 1 26 60
M  V30 67 1 30 61
M  V30 68 1 33 62
M  V30 69 1 34 63
M  V30 70 1 35 64
M  V30 71 1 36 65
M  V30 72 1 38 66
M  V30 73 1 38 67
M  V30 74 1 39 68
M  V30 75 1 39 69
M  V30 76 1 40 70
M  V30 77 1 40 71
M  V30 END BOND
M  V30 END CTAB
M  END
>  <Dataset>  (45) 
ChEMBL_Kinases

>  <Ligand_Instance>  (45) 
nan

>  <PDB_ID>  (45) 
nan

>  <Standardized_SMILES>  (45) 
CN(C)c1nc2ccc1CCCn1cc(c3ccccc31)C1=C(C(=O)NC1=O)c1cn(c3ccccc13)CCC2

>  <Name>  (45) 
nan

>  <Pocket>  (45) 
nan

>  <ATP_Site>  (45) 
nan

>  <Peripheral>  (45) 
nan

>  <Num_H_Atoms_ProtBoundConf>  (45) 
nan

>  <Num_Resolved_Atoms>  (45) 
nan

>  <Num_Not_Resolved_Atoms>  (45) 
nan

$$$$
CHEMBL3930663
     RDKit          3D

  0  0  0  0  0  0  0  0  0  0999 V3000
M  V30 BEGIN CTAB
M  V30 COUNTS 55 59 0 0 0
M  V30 BEGIN ATOM
M  V30 1 C 4.290874 -2.716171 0.989088 0
M  V30 2 N 3.621483 -2.218725 2.150401 0
M  V30 3 C 2.312216 -2.747287 2.354587 0
M  V30 4 C 3.767189 -0.813229 2.368949 0
M  V30 5 C 3.210552 -0.085836 1.191473 0
M  V30 6 C 4.071780 0.185396 0.156622 0
M  V30 7 C 3.616210 0.863050 -0.972688 0
M  V30 8 C 2.282180 1.217762 -0.952117 0
M  V30 9 C 1.386435 0.964118 0.066093 0
M  V30 10 N 0.023036 1.376627 -0.012835 0
M  V30 11 C -0.241742 2.683108 0.509863 0
M  V30 12 O 0.483231 3.583459 1.042869 0
M  V30 13 C -1.667702 2.969084 0.363921 0
M  V30 14 C -2.541554 3.998042 0.648851 0
M  V30 15 C -3.891366 3.944644 0.368383 0
M  V30 16 C -4.430891 2.801437 -0.235716 0
M  V30 17 C -3.540975 1.781241 -0.513687 0
M  V30 18 C -2.186907 1.821414 -0.238322 0
M  V30 19 C -1.171548 0.775634 -0.504348 0
M  V30 20 O -1.057969 0.634240 -1.885605 0
M  V30 21 C -1.521738 -0.532835 0.060055 0
M  V30 22 C -1.598280 -0.725791 1.429684 0
M  V30 23 C -1.926704 -1.947504 2.001721 0
M  V30 24 C -2.192967 -3.031913 1.197076 0
M  V30 25 C -2.127061 -2.879949 -0.178847 0
M  V30 26 C -1.797112 -1.649495 -0.709905 0
M  V30 27 N -2.389006 -3.950523 -1.094270 0
M  V30 28 C -2.733005 -5.231215 -0.579430 0
M  V30 29 O -3.379502 -6.033233 -1.334190 0
M  V30 30 C -2.266503 -5.455410 0.827184 0
M  V30 31 O -2.534269 -4.312544 1.633735 0
M  V30 32 C 1.880784 0.281739 1.183386 0
M  V30 33 H 4.112070 -3.820647 0.956608 0
M  V30 34 H 5.376159 -2.533604 0.990742 0
M  V30 35 H 3.820266 -2.270882 0.073359 0
M  V30 36 H 1.783884 -2.763371 1.360076 0
M  V30 37 H 2.320151 -3.792020 2.742745 0
M  V30 38 H 1.729280 -2.060705 2.993846 0
M  V30 39 H 4.811171 -0.527496 2.597913 0
M  V30 40 H 3.148257 -0.551292 3.265081 0
M  V30 41 H 5.108232 -0.110365 0.180890 0
M  V30 42 H 4.221606 1.117903 -1.832032 0
M  V30 43 H 1.908336 1.748681 -1.827102 0
M  V30 44 H -2.109559 4.882376 1.118648 0
M  V30 45 H -4.527921 4.779605 0.613359 0
M  V30 46 H -5.485297 2.733323 -0.466481 0
M  V30 47 H -4.009989 0.915870 -0.982333 0
M  V30 48 H -1.866285 0.974400 -2.318510 0
M  V30 49 H -1.402785 0.077843 2.119782 0
M  V30 50 H -1.988811 -2.107524 3.069533 0
M  V30 51 H -1.738239 -1.502562 -1.800449 0
M  V30 52 H -2.317498 -3.754081 -2.133078 0
M  V30 53 H -1.166569 -5.660970 0.763110 0
M  V30 54 H -2.734819 -6.332154 1.291065 0
M  V30 55 H 1.204274 0.067402 1.998495 0
M  V30 END ATOM
M  V30 BEGIN BOND
M  V30 1 1 1 2
M  V30 2 1 2 3
M  V30 3 1 2 4
M  V30 4 1 4 5
M  V30 5 2 5 6
M  V30 6 1 6 7
M  V30 7 2 7 8
M  V30 8 1 8 9
M  V30 9 1 9 10
M  V30 10 1 10 11
M  V30 11 2 11 12
M  V30 12 1 11 13
M  V30 13 2 13 14
M  V30 14 1 14 15
M  V30 15 2 15 16
M  V30 16 1 16 17
M  V30 17 2 17 18
M  V30 18 1 18 19
M  V30 19 1 19 20
M  V30 20 1 19 21
M  V30 21 2 21 22
M  V30 22 1 22 23
M  V30 23 2 23 24
M  V30 24 1 24 25
M  V30 25 2 25 26
M  V30 26 1 25 27
M  V30 27 1 27 28
M  V30 28 2 28 29
M  V30 29 1 28 30
M  V30 30 1 30 31
M  V30 31 2 9 32
M  V30 32 1 32 5
M  V30 33 1 19 10
M  V30 34 1 26 21
M  V30 35 1 18 13
M  V30 36 1 31 24
M  V30 37 1 1 33
M  V30 38 1 1 34
M  V30 39 1 1 35
M  V30 40 1 3 36
M  V30 41 1 3 37
M  V30 42 1 3 38
M  V30 43 1 4 39
M  V30 44 1 4 40
M  V30 45 1 6 41
M  V30 46 1 7 42
M  V30 47 1 8 43
M  V30 48 1 14 44
M  V30 49 1 15 45
M  V30 50 1 16 46
M  V30 51 1 17 47
M  V30 52 1 20 48
M  V30 53 1 22 49
M  V30 54 1 23 50
M  V30 55 1 26 51
M  V30 56 1 27 52
M  V30 57 1 30 53
M  V30 58 1 30 54
M  V30 59 1 32 55
M  V30 END BOND
M  V30 END CTAB
M  END
>  <Dataset>  (46) 
ChEMBL_Kinases

>  <Ligand_Instance>  (46) 
nan

>  <PDB_ID>  (46) 
nan

>  <Standardized_SMILES>  (46) 
CN(C)Cc1cccc(N2C(=O)c3ccccc3C2(O)c2ccc3c(c2)NC(=O)CO3)c1

>  <Name>  (46) 
nan

>  <Pocket>  (46) 
nan

>  <ATP_Site>  (46) 
nan

>  <Peripheral>  (46) 
nan

>  <Num_H_Atoms_ProtBoundConf>  (46) 
nan

>  <Num_Resolved_Atoms>  (46) 
nan

>  <Num_Not_Resolved_Atoms>  (46) 
nan

$$$$
CHEMBL392154
     RDKit          3D

  0  0  0  0  0  0  0  0  0  0999 V3000
M  V30 BEGIN CTAB
M  V30 COUNTS 29 33 0 0 0
M  V30 BEGIN ATOM
M  V30 1 O 1.766680 1.915796 2.587714 0
M  V30 2 C 1.499771 0.728583 2.667886 0
M  V30 3 N 1.900943 0.093754 3.867933 0
M  V30 4 C 1.529199 -1.295766 3.835487 0
M  V30 5 O 1.688388 -2.216834 4.676939 0
M  V30 6 C 0.879007 -1.413780 2.516561 0
M  V30 7 C 0.860830 -0.224534 1.828734 0
M  V30 8 C 0.288710 -0.192381 0.593914 0
M  V30 9 C 0.146398 0.841933 -0.273491 0
M  V30 10 C 0.432902 2.164838 -0.386070 0
M  V30 11 C 0.118584 2.938333 -1.477084 0
M  V30 12 C -0.539094 2.321385 -2.539623 0
M  V30 13 N -0.840617 1.016184 -2.468661 0
M  V30 14 C -0.499257 0.326520 -1.365874 0
M  V30 15 N -0.747107 -1.001440 -1.168318 0
M  V30 16 C -0.256634 -1.336726 0.058270 0
M  V30 17 C -0.230313 -2.516045 0.758007 0
M  V30 18 C -0.717392 -3.748060 0.394166 0
M  V30 19 C -0.437229 -4.582444 1.445697 0
M  V30 20 C 0.203131 -3.811268 2.387208 0
M  V30 21 N 0.336916 -2.538852 1.977311 0
M  V30 22 H 2.399993 0.437612 4.742030 0
M  V30 23 H 0.932366 2.682537 0.394019 0
M  V30 24 H 0.345825 3.992790 -1.569232 0
M  V30 25 H -0.801651 2.900555 -3.414435 0
M  V30 26 H -1.223752 -1.680217 -1.811938 0
M  V30 27 H -1.222950 -4.040283 -0.521946 0
M  V30 28 H -0.652803 -5.649750 1.569599 0
M  V30 29 H 0.562052 -4.164843 3.343890 0
M  V30 END ATOM
M  V30 BEGIN BOND
M  V30 1 2 1 2
M  V30 2 1 2 3
M  V30 3 1 3 4
M  V30 4 2 4 5
M  V30 5 1 4 6
M  V30 6 2 6 7
M  V30 7 1 7 8
M  V30 8 1 8 9
M  V30 9 2 9 10
M  V30 10 1 10 11
M  V30 11 2 11 12
M  V30 12 1 12 13
M  V30 13 2 13 14
M  V30 14 1 14 15
M  V30 15 1 15 16
M  V30 16 1 16 17
M  V30 17 2 17 18
M  V30 18 1 18 19
M  V30 19 2 19 20
M  V30 20 1 20 21
M  V30 21 1 7 2
M  V30 22 2 16 8
M  V30 23 1 21 17
M  V30 24 1 21 6
M  V30 25 1 14 9
M  V30 26 1 3 22
M  V30 27 1 10 23
M  V30 28 1 11 24
M  V30 29 1 12 25
M  V30 30 1 15 26
M  V30 31 1 18 27
M  V30 32 1 19 28
M  V30 33 1 20 29
M  V30 END BOND
M  V30 END CTAB
M  END
>  <Dataset>  (47) 
ChEMBL_Kinases

>  <Ligand_Instance>  (47) 
nan

>  <PDB_ID>  (47) 
nan

>  <Standardized_SMILES>  (47) 
O=C1NC(=O)c2c1c1c3cccnc3[nH]c1c1cccn21

>  <Name>  (47) 
nan

>  <Pocket>  (47) 
nan

>  <ATP_Site>  (47) 
nan

>  <Peripheral>  (47) 
nan

>  <Num_H_Atoms_ProtBoundConf>  (47) 
nan

>  <Num_Resolved_Atoms>  (47) 
nan

>  <Num_Not_Resolved_Atoms>  (47) 
nan

$$$$
CHEMBL611079
     RDKit          3D

  0  0  0  0  0  0  0  0  0  0999 V3000
M  V30 BEGIN CTAB
M  V30 COUNTS 28 29 0 0 0
M  V30 BEGIN ATOM
M  V30 1 C -0.997585 -4.147378 3.728116 0
M  V30 2 O 0.364528 -4.282377 3.770989 0
M  V30 3 C 1.057277 -3.809183 2.690760 0
M  V30 4 C 0.660990 -4.501166 1.420904 0
M  V30 5 N 1.407879 -3.990237 0.277468 0
M  V30 6 C 1.149296 -2.593580 0.092249 0
M  V30 7 N 0.544077 -1.717776 0.536780 0
M  V30 8 N 0.473264 -0.488289 0.175444 0
M  V30 9 C 1.150366 -0.086065 -0.828780 0
M  V30 10 S 1.711222 1.203551 -2.011305 0
M  V30 11 C 0.942387 2.752745 -1.606585 0
M  V30 12 N 0.961457 3.857916 -2.035575 0
M  V30 13 C 0.286577 4.884446 -1.558243 0
M  V30 14 C -0.518547 4.663673 -0.459276 0
M  V30 15 N -1.351359 5.595214 0.252994 0 CHG=1 VAL=4
M  V30 16 O -1.978698 5.104194 1.226119 0
M  V30 17 O -1.295764 6.856388 -0.279004 0 CHG=-1 VAL=1
M  V30 18 S -0.278430 2.938363 -0.130865 0
M  V30 19 S 2.006696 -1.706240 -1.318032 0
M  V30 20 H -1.515966 -4.651386 2.903063 0
M  V30 21 H -1.337009 -3.085231 3.756371 0
M  V30 22 H -1.421330 -4.594600 4.661334 0
M  V30 23 H 1.061622 -2.699963 2.628923 0
M  V30 24 H 2.141713 -4.079666 2.854673 0
M  V30 25 H 0.955778 -5.575036 1.542247 0
M  V30 26 H -0.435283 -4.415392 1.222273 0
M  V30 27 H 2.048607 -4.536996 -0.339663 0
M  V30 28 H 0.411837 5.851084 -2.070769 0
M  V30 END ATOM
M  V30 BEGIN BOND
M  V30 1 1 1 2
M  V30 2 1 2 3
M  V30 3 1 3 4
M  V30 4 1 4 5
M  V30 5 1 5 6
M  V30 6 2 6 7
M  V30 7 1 7 8
M  V30 8 2 8 9
M  V30 9 1 9 10
M  V30 10 1 10 11
M  V30 11 2 11 12
M  V30 12 1 12 13
M  V30 13 2 13 14
M  V30 14 1 14 15
M  V30 15 2 15 16
M  V30 16 1 15 17
M  V30 17 1 14 18
M  V30 18 1 9 19
M  V30 19 1 19 6
M  V30 20 1 18 11
M  V30 21 1 1 20
M  V30 22 1 1 21
M  V30 23 1 1 22
M  V30 24 1 3 23
M  V30 25 1 3 24
M  V30 26 1 4 25
M  V30 27 1 4 26
M  V30 28 1 5 27
M  V30 29 1 13 28
M  V30 END BOND
M  V30 END CTAB
M  END
>  <Dataset>  (48) 
ChEMBL_Kinases

>  <Ligand_Instance>  (48) 
nan

>  <PDB_ID>  (48) 
nan

>  <Standardized_SMILES>  (48) 
COCCNc1nnc(Sc2ncc([N+](=O)[O-])s2)s1

>  <Name>  (48) 
nan

>  <Pocket>  (48) 
nan

>  <ATP_Site>  (48) 
nan

>  <Peripheral>  (48) 
nan

>  <Num_H_Atoms_ProtBoundConf>  (48) 
nan

>  <Num_Resolved_Atoms>  (48) 
nan

>  <Num_Not_Resolved_Atoms>  (48) 
nan

$$$$
CHEMBL3921492
     RDKit          3D

  0  0  0  0  0  0  0  0  0  0999 V3000
M  V30 BEGIN CTAB
M  V30 COUNTS 41 44 0 0 0
M  V30 BEGIN ATOM
M  V30 1 O 4.055707 -8.038883 -0.568799 0
M  V30 2 C 2.941848 -7.454160 -0.565892 0
M  V30 3 O 1.866265 -8.322879 -0.690777 0
M  V30 4 C 2.868925 -6.006151 -0.440120 0
M  V30 5 C 4.083363 -5.360949 -0.329005 0
M  V30 6 C 4.032924 -3.968283 -0.207153 0
M  V30 7 C 2.822293 -3.265251 -0.197977 0
M  V30 8 N 2.544047 -1.951756 -0.093222 0
M  V30 9 C 1.207246 -1.818652 -0.140386 0
M  V30 10 C 0.479393 -0.550323 -0.059483 0
M  V30 11 C 1.214595 0.612326 0.076639 0
M  V30 12 C 0.470170 1.783148 0.148135 0
M  V30 13 C -0.925243 1.822900 0.090043 0
M  V30 14 S -1.698941 3.409964 0.197378 0
M  V30 15 O -3.014448 3.326181 -0.528671 0
M  V30 16 O -0.805716 4.416623 -0.426182 0
M  V30 17 C -2.018739 3.766742 1.894712 0
M  V30 18 C -1.048722 4.425661 2.627191 0
M  V30 19 C -1.207425 4.748659 3.962399 0
M  V30 20 C -2.400066 4.376077 4.539694 0
M  V30 21 Cl -2.703027 4.740800 6.237829 0
M  V30 22 C -3.387420 3.717194 3.834027 0
M  V30 23 C -3.209209 3.400959 2.491629 0
M  V30 24 C -1.607989 0.630466 -0.046419 0
M  V30 25 C -0.902144 -0.553244 -0.120767 0
M  V30 26 N 0.655807 -3.046931 -0.274181 0
M  V30 27 C 1.634455 -3.994870 -0.315437 0
M  V30 28 C 1.643537 -5.376088 -0.438097 0
M  V30 29 H 1.757076 -9.130842 -0.076170 0
M  V30 30 H 5.034528 -5.875110 -0.332818 0
M  V30 31 H 4.946532 -3.385850 -0.114916 0
M  V30 32 H 3.221562 -1.178561 0.005591 0
M  V30 33 H 2.279293 0.628663 0.125124 0
M  V30 34 H 1.007230 2.714629 0.254894 0
M  V30 35 H -0.122242 4.698139 2.121483 0
M  V30 36 H -0.442324 5.261631 4.517327 0
M  V30 37 H -4.307112 3.443155 4.324028 0
M  V30 38 H -3.953825 2.890004 1.911979 0
M  V30 39 H -2.689995 0.738970 -0.084541 0
M  V30 40 H -1.474952 -1.463739 -0.227240 0
M  V30 41 H 0.705579 -5.906417 -0.526769 0
M  V30 END ATOM
M  V30 BEGIN BOND
M  V30 1 2 1 2
M  V30 2 1 2 3
M  V30 3 1 2 4
M  V30 4 2 4 5
M  V30 5 1 5 6
M  V30 6 2 6 7
M  V30 7 1 7 8
M  V30 8 1 8 9
M  V30 9 1 9 10
M  V30 10 2 10 11
M  V30 11 1 11 12
M  V30 12 2 12 13
M  V30 13 1 13 14
M  V30 14 2 14 15
M  V30 15 2 14 16
M  V30 16 1 14 17
M  V30 17 2 17 18
M  V30 18 1 18 19
M  V30 19 2 19 20
M  V30 20 1 20 21
M  V30 21 1 20 22
M  V30 22 2 22 23
M  V30 23 1 13 24
M  V30 24 2 24 25
M  V30 25 2 9 26
M  V30 26 1 26 27
M  V30 27 2 27 28
M  V30 28 1 28 4
M  V30 29 1 27 7
M  V30 30 1 25 10
M  V30 31 1 23 17
M  V30 32 1 3 29
M  V30 33 1 5 30
M  V30 34 1 6 31
M  V30 35 1 8 32
M  V30 36 1 11 33
M  V30 37 1 12 34
M  V30 38 1 18 35
M  V30 39 1 19 36
M  V30 40 1 22 37
M  V30 41 1 23 38
M  V30 42 1 24 39
M  V30 43 1 25 40
M  V30 44 1 28 41
M  V30 END BOND
M  V30 END CTAB
M  END
>  <Dataset>  (49) 
ChEMBL_Kinases

>  <Ligand_Instance>  (49) 
nan

>  <PDB_ID>  (49) 
nan

>  <Standardized_SMILES>  (49) 
O=C(O)c1ccc2[nH]c(-c3ccc(S(=O)(=O)c4ccc(Cl)cc4)cc3)nc2c1

>  <Name>  (49) 
nan

>  <Pocket>  (49) 
nan

>  <ATP_Site>  (49) 
nan

>  <Peripheral>  (49) 
nan

>  <Num_H_Atoms_ProtBoundConf>  (49) 
nan

>  <Num_Resolved_Atoms>  (49) 
nan

>  <Num_Not_Resolved_Atoms>  (49) 
nan

$$$$
CHEMBL3921291
     RDKit          3D

  0  0  0  0  0  0  0  0  0  0999 V3000
M  V30 BEGIN CTAB
M  V30 COUNTS 51 54 0 0 0
M  V30 BEGIN ATOM
M  V30 1 C 2.873406 -5.773301 5.107432 0
M  V30 2 O 3.966913 -5.202316 4.372215 0
M  V30 3 C 3.752037 -4.220329 3.452700 0
M  V30 4 O 2.492013 -4.057825 3.499727 0
M  V30 5 N 4.495407 -3.421647 2.552479 0
M  V30 6 C 3.799221 -2.489311 1.737488 0
M  V30 7 N 3.409046 -1.200789 1.830476 0
M  V30 8 C 2.758856 -0.842121 0.708277 0
M  V30 9 C 2.144510 0.288888 0.212554 0
M  V30 10 C 1.534443 0.370811 -1.025886 0
M  V30 11 C 0.881765 1.587666 -1.506980 0
M  V30 12 O 0.798137 1.727809 -2.779734 0
M  V30 13 C 0.273319 2.739261 -0.848396 0
M  V30 14 C 0.783663 3.984220 -1.243656 0
M  V30 15 C 0.273484 5.113826 -0.595253 0
M  V30 16 C -0.685469 5.028184 0.389066 0
M  V30 17 C -1.164609 3.796270 0.752488 0
M  V30 18 C -0.687222 2.676013 0.137532 0
M  V30 19 C -1.238106 1.393939 0.500310 0
M  V30 20 O -1.004165 0.178895 0.336297 0
M  V30 21 N -2.437247 1.313791 1.300918 0
M  V30 22 N -2.712633 -0.065857 1.477958 0
M  V30 23 C -3.487588 -0.883759 0.635715 0
M  V30 24 C -4.090245 -0.396082 -0.503378 0
M  V30 25 C -4.844210 -1.256399 -1.303908 0
M  V30 26 C -4.983685 -2.598288 -0.950712 0
M  V30 27 C -4.372835 -3.049927 0.186557 0
M  V30 28 C -3.621311 -2.205927 0.991214 0
M  V30 29 C 1.521500 -0.738077 -1.847478 0
M  V30 30 C 2.138451 -1.876847 -1.351896 0
M  V30 31 C 2.744828 -1.954306 -0.115737 0
M  V30 32 N 3.382182 -2.954556 0.520335 0
M  V30 33 H 3.184821 -6.719631 5.560520 0
M  V30 34 H 2.577615 -5.054099 5.894689 0
M  V30 35 H 1.976500 -5.918126 4.452624 0
M  V30 36 H 5.487635 -3.710218 2.676799 0
M  V30 37 H 2.166055 1.156370 0.883068 0
M  V30 38 H 1.532116 4.148010 -1.997712 0
M  V30 39 H 0.653497 6.082598 -0.885567 0
M  V30 40 H -1.034770 5.950709 0.852426 0
M  V30 41 H -1.910326 3.834834 1.530633 0
M  V30 42 H -2.985195 2.147977 1.667813 0
M  V30 43 H -2.248128 -0.403160 2.344985 0
M  V30 44 H -4.005051 0.633138 -0.800634 0
M  V30 45 H -5.350443 -0.973573 -2.204858 0
M  V30 46 H -5.550135 -3.332925 -1.515120 0
M  V30 47 H -4.461561 -4.084935 0.490643 0
M  V30 48 H -3.135184 -2.582006 1.905811 0
M  V30 49 H 1.053770 -0.674094 -2.800060 0
M  V30 50 H 2.118460 -2.732284 -2.010879 0
M  V30 51 H 3.484171 -3.907201 0.050753 0
M  V30 END ATOM
M  V30 BEGIN BOND
M  V30 1 1 1 2
M  V30 2 1 2 3
M  V30 3 2 3 4
M  V30 4 1 3 5
M  V30 5 1 5 6
M  V30 6 2 6 7
M  V30 7 1 7 8
M  V30 8 2 8 9
M  V30 9 1 9 10
M  V30 10 1 10 11
M  V30 11 2 11 12
M  V30 12 1 11 13
M  V30 13 2 13 14
M  V30 14 1 14 15
M  V30 15 2 15 16
M  V30 16 1 16 17
M  V30 17 2 17 18
M  V30 18 1 18 19
M  V30 19 2 19 20
M  V30 20 1 19 21
M  V30 21 1 21 22
M  V30 22 1 22 23
M  V30 23 2 23 24
M  V30 24 1 24 25
M  V30 25 2 25 26
M  V30 26 1 26 27
M  V30 27 2 27 28
M  V30 28 2 10 29
M  V30 29 1 29 30
M  V30 30 2 30 31
M  V30 31 1 31 32
M  V30 32 1 32 6
M  V30 33 1 31 8
M  V30 34 1 18 13
M  V30 35 1 28 23
M  V30 36 1 1 33
M  V30 37 1 1 34
M  V30 38 1 1 35
M  V30 39 1 5 36
M  V30 40 1 9 37
M  V30 41 1 14 38
M  V30 42 1 15 39
M  V30 43 1 16 40
M  V30 44 1 17 41
M  V30 45 1 21 42
M  V30 46 1 22 43
M  V30 47 1 24 44
M  V30 48 1 25 45
M  V30 49 1 26 46
M  V30 50 1 27 47
M  V30 51 1 28 48
M  V30 52 1 29 49
M  V30 53 1 30 50
M  V30 54 1 32 51
M  V30 END BOND
M  V30 END CTAB
M  END
>  <Dataset>  (50) 
ChEMBL_Kinases

>  <Ligand_Instance>  (50) 
nan

>  <PDB_ID>  (50) 
nan

>  <Standardized_SMILES>  (50) 
COC(=O)Nc1nc2cc(C(=O)c3ccccc3C(=O)NNc3ccccc3)ccc2[nH]1

>  <Name>  (50) 
nan

>  <Pocket>  (50) 
nan

>  <ATP_Site>  (50) 
nan

>  <Peripheral>  (50) 
nan

>  <Num_H_Atoms_ProtBoundConf>  (50) 
nan

>  <Num_Resolved_Atoms>  (50) 
nan

>  <Num_Not_Resolved_Atoms>  (50) 
nan

$$$$
CHEMBL3921258
     RDKit          3D

  0  0  0  0  0  0  0  0  0  0999 V3000
M  V30 BEGIN CTAB
M  V30 COUNTS 51 54 0 0 0
M  V30 BEGIN ATOM
M  V30 1 C 4.187203 -6.825047 1.583959 0
M  V30 2 C 3.251292 -5.674394 1.887155 0
M  V30 3 C 2.174978 -6.103469 2.845513 0
M  V30 4 N 2.595671 -5.199828 0.672117 0
M  V30 5 C 1.975263 -4.011686 0.565128 0
M  V30 6 C 1.485087 -3.939235 -0.741375 0
M  V30 7 C 0.738387 -2.830110 -1.318774 0
M  V30 8 C 0.432405 -1.707493 -0.610283 0
M  V30 9 C -0.291018 -0.684288 -1.236254 0
M  V30 10 C -0.655605 0.547307 -0.544198 0
M  V30 11 C 0.122686 1.118531 0.441003 0
M  V30 12 C -0.240154 2.282334 1.086253 0
M  V30 13 C -1.405238 2.938283 0.778479 0
M  V30 14 N -1.762457 4.134577 1.450879 0
M  V30 15 C -0.966528 4.770716 2.469405 0
M  V30 16 C -1.882496 4.960339 3.662843 0
M  V30 17 O -3.046560 4.236789 3.553381 0
M  V30 18 C -3.834924 4.574929 2.462330 0
M  V30 19 C -2.968480 4.914901 1.240776 0
M  V30 20 C -2.189307 2.378983 -0.201738 0
M  V30 21 C -1.831176 1.205421 -0.857835 0
M  V30 22 C -0.687031 -0.827145 -2.570746 0
M  V30 23 N -0.370881 -1.958790 -3.263509 0
M  V30 24 C 0.327597 -2.927726 -2.632456 0
M  V30 25 N 0.647369 -4.109776 -3.388984 0
M  V30 26 N 1.830777 -5.077725 -1.354505 0
M  V30 27 N 2.495195 -5.824225 -0.497749 0
M  V30 28 H 4.840403 -6.545107 0.722341 0
M  V30 29 H 3.619292 -7.769539 1.404932 0
M  V30 30 H 4.830238 -6.988824 2.474551 0
M  V30 31 H 3.820753 -4.841219 2.323345 0
M  V30 32 H 1.259178 -5.498029 2.630180 0
M  V30 33 H 1.914205 -7.159279 2.623219 0
M  V30 34 H 2.458892 -5.949883 3.913676 0
M  V30 35 H 1.840671 -3.232227 1.277819 0
M  V30 36 H 0.737119 -1.591574 0.424653 0
M  V30 37 H 1.038305 0.577689 0.663008 0
M  V30 38 H 0.458746 2.594384 1.815553 0
M  V30 39 H -0.729878 5.804393 2.075091 0
M  V30 40 H -0.020090 4.319462 2.713420 0
M  V30 41 H -1.348211 4.600502 4.561147 0
M  V30 42 H -2.117854 6.032022 3.826177 0
M  V30 43 H -4.368711 3.625780 2.186297 0
M  V30 44 H -4.604703 5.323759 2.656190 0
M  V30 45 H -2.755235 6.006101 1.216617 0
M  V30 46 H -3.503080 4.568930 0.352164 0
M  V30 47 H -3.124479 2.809431 -0.522126 0
M  V30 48 H -2.473843 0.776597 -1.637847 0
M  V30 49 H -1.252343 -0.055573 -3.099725 0
M  V30 50 H 0.270766 -5.057067 -3.217044 0
M  V30 51 H 1.325508 -3.839610 -4.139792 0
M  V30 END ATOM
M  V30 BEGIN BOND
M  V30 1 1 1 2
M  V30 2 1 2 3
M  V30 3 1 2 4
M  V30 4 1 4 5
M  V30 5 2 5 6
M  V30 6 1 6 7
M  V30 7 2 7 8
M  V30 8 1 8 9
M  V30 9 1 9 10
M  V30 10 2 10 11
M  V30 11 1 11 12
M  V30 12 2 12 13
M  V30 13 1 13 14
M  V30 14 1 14 15
M  V30 15 1 15 16
M  V30 16 1 16 17
M  V30 17 1 17 18
M  V30 18 1 18 19
M  V30 19 1 13 20
M  V30 20 2 20 21
M  V30 21 2 9 22
M  V30 22 1 22 23
M  V30 23 2 23 24
M  V30 24 1 24 25
M  V30 25 1 6 26
M  V30 26 2 26 27
M  V30 27 1 27 4
M  V30 28 1 24 7
M  V30 29 1 21 10
M  V30 30 1 19 14
M  V30 31 1 1 28
M  V30 32 1 1 29
M  V30 33 1 1 30
M  V30 34 1 2 31
M  V30 35 1 3 32
M  V30 36 1 3 33
M  V30 37 1 3 34
M  V30 38 1 5 35
M  V30 39 1 8 36
M  V30 40 1 11 37
M  V30 41 1 12 38
M  V30 42 1 15 39
M  V30 43 1 15 40
M  V30 44 1 16 41
M  V30 45 1 16 42
M  V30 46 1 18 43
M  V30 47 1 18 44
M  V30 48 1 19 45
M  V30 49 1 19 46
M  V30 50 1 20 47
M  V30 51 1 21 48
M  V30 52 1 22 49
M  V30 53 1 25 50
M  V30 54 1 25 51
M  V30 END BOND
M  V30 END CTAB
M  END
>  <Dataset>  (51) 
ChEMBL_Kinases

>  <Ligand_Instance>  (51) 
nan

>  <PDB_ID>  (51) 
nan

>  <Standardized_SMILES>  (51) 
CC(C)n1cc(-c2cc(-c3ccc(N4CCOCC4)cc3)cnc2N)nn1

>  <Name>  (51) 
nan

>  <Pocket>  (51) 
nan

>  <ATP_Site>  (51) 
nan

>  <Peripheral>  (51) 
nan

>  <Num_H_Atoms_ProtBoundConf>  (51) 
nan

>  <Num_Resolved_Atoms>  (51) 
nan

>  <Num_Not_Resolved_Atoms>  (51) 
nan

$$$$
CHEMBL610876
     RDKit          3D

  0  0  0  0  0  0  0  0  0  0999 V3000
M  V30 BEGIN CTAB
M  V30 COUNTS 194 196 0 0 0
M  V30 BEGIN ATOM
M  V30 1 N -5.373194 3.204613 4.763492 0
M  V30 2 C -4.655661 3.642350 3.765578 0
M  V30 3 N -4.641875 5.083337 3.639108 0
M  V30 4 N -3.971949 2.712904 2.903672 0
M  V30 5 C -3.611156 1.461807 3.594202 0
M  V30 6 C -2.545034 1.810342 4.612432 0
M  V30 7 C -1.317850 2.379649 3.918632 0
M  V30 8 C -0.692524 1.408574 2.981844 0 CFG=1
M  V30 9 N 0.474361 2.039553 2.358142 0
M  V30 10 C 0.667642 1.604696 0.994459 0
M  V30 11 O -0.091411 0.783370 0.441268 0
M  V30 12 C 1.844217 2.194891 0.261541 0 CFG=1
M  V30 13 C 3.106807 2.097210 1.045076 0
M  V30 14 C 4.241987 2.777697 0.346121 0
M  V30 15 C 3.969771 4.269836 0.152353 0
M  V30 16 N 5.130547 4.888793 -0.489545 0
M  V30 17 C 6.373389 5.008895 0.231585 0
M  V30 18 N 6.202708 5.061726 1.467606 0
M  V30 19 N 7.664087 5.053008 -0.351710 0
M  V30 20 N 1.954077 1.473773 -1.019979 0
M  V30 21 C 2.908515 0.515544 -1.376835 0
M  V30 22 O 3.893996 -0.060315 -0.886990 0
M  V30 23 C 3.365362 -0.371290 -2.421056 0 CFG=1
M  V30 24 C 3.683590 0.213066 -3.753939 0
M  V30 25 C 2.548586 0.884377 -4.426158 0
M  V30 26 C 1.337441 0.101617 -4.737306 0
M  V30 27 N 0.588409 -0.439991 -3.647042 0
M  V30 28 C -0.499442 -1.182893 -4.242780 0
M  V30 29 N -1.034668 -1.310587 -5.430914 0
M  V30 30 N -1.450323 -2.116661 -3.693167 0
M  V30 31 N 4.546452 -1.160519 -1.950765 0
M  V30 32 C 4.281318 -2.489217 -1.566858 0
M  V30 33 O 3.468129 -3.432553 -1.387162 0
M  V30 34 C 5.189406 -3.630509 -1.086654 0 CFG=1
M  V30 35 C 5.908428 -3.165390 0.122824 0
M  V30 36 C 6.909553 -4.087317 0.709308 0
M  V30 37 C 6.509134 -5.411740 1.188724 0
M  V30 38 N 5.576255 -5.494709 2.259548 0
M  V30 39 C 5.323597 -6.875719 2.585190 0
M  V30 40 N 5.586693 -7.873337 1.782307 0
M  V30 41 N 4.743900 -7.299750 3.846235 0
M  V30 42 N 4.242079 -4.706358 -0.718057 0
M  V30 43 C 3.961196 -5.850662 -1.498133 0
M  V30 44 O 4.625471 -5.907877 -2.586085 0
M  V30 45 C 2.985523 -6.942555 -1.161398 0 CFG=1
M  V30 46 C 3.526744 -8.307789 -1.264233 0
M  V30 47 C 4.036358 -8.736862 -2.606241 0
M  V30 48 C 2.983143 -8.729024 -3.680600 0
M  V30 49 N 1.887452 -9.629875 -3.366101 0
M  V30 50 C 0.802857 -9.758155 -4.269831 0
M  V30 51 N 0.724752 -9.125885 -5.384181 0
M  V30 52 N -0.210641 -10.643904 -3.873472 0
M  V30 53 N 2.336710 -6.750728 0.101930 0
M  V30 54 C 1.111926 -6.002232 0.226745 0
M  V30 55 O 0.359679 -5.383512 -0.558867 0
M  V30 56 C 0.211900 -5.644906 1.321579 0 CFG=1
M  V30 57 C 0.744862 -4.918340 2.494953 0
M  V30 58 C 1.805683 -5.486721 3.344451 0
M  V30 59 C 2.012468 -4.427316 4.459528 0
M  V30 60 N 3.010938 -4.792701 5.402698 0
M  V30 61 C 3.122687 -3.767965 6.418775 0
M  V30 62 N 2.172981 -2.947384 6.739740 0
M  V30 63 N 4.304655 -3.528690 7.211209 0
M  V30 64 N -0.800705 -4.707579 0.764451 0
M  V30 65 C -2.176821 -4.474594 0.453549 0
M  V30 66 O -2.878826 -5.468004 0.733031 0
M  V30 67 C -2.315344 -3.111553 -0.087387 0
M  V30 68 C -3.734976 -2.563697 -0.027540 0
M  V30 69 C -3.599310 -1.124357 -0.486845 0
M  V30 70 C -4.863250 -0.317787 -0.409957 0
M  V30 71 C -4.452200 1.081925 -0.825780 0
M  V30 72 C -5.522684 2.125164 -0.718315 0
M  V30 73 C -4.814072 3.421949 -1.141303 0
M  V30 74 N -5.568551 4.602197 -1.029979 0
M  V30 75 C -6.624746 5.549765 -1.254227 0
M  V30 76 O -7.354868 4.914482 -2.104491 0
M  V30 77 C -6.690082 6.891269 -0.576936 0 CFG=1
M  V30 78 O -5.596063 7.056156 0.279698 0
M  V30 79 C -4.651255 7.730092 -0.506629 0
M  V30 80 N -3.436163 8.028348 0.117166 0
M  V30 81 C -2.212744 7.876193 -0.478232 0
M  V30 82 N -1.210828 8.214580 0.315441 0
M  V30 83 C -1.751245 8.610947 1.484048 0
M  V30 84 C -1.139451 9.062812 2.631766 0
M  V30 85 N 0.288601 9.156601 2.692168 0
M  V30 86 N -1.968826 9.387011 3.634081 0
M  V30 87 C -3.306634 9.270483 3.500055 0
M  V30 88 N -3.901949 8.830122 2.379087 0
M  V30 89 C -3.132454 8.488253 1.341279 0
M  V30 90 C -5.489055 8.842780 -1.042790 0 CFG=2
M  V30 91 O -6.059469 9.615676 -0.001158 0
M  V30 92 C -6.670047 8.033029 -1.556983 0 CFG=2
M  V30 93 O -7.848857 8.761131 -1.570575 0
M  V30 94 C -0.233893 0.177847 3.713907 0
M  V30 95 O 0.966857 0.347011 3.393784 0
M  V30 96 O -0.377991 -0.954776 4.485083 0
M  V30 97 H -5.873416 3.889143 5.383877 0
M  V30 98 H -3.990529 5.432524 4.393772 0
M  V30 99 H -5.304668 5.061837 2.836036 0
M  V30 100 H -3.858402 3.114265 1.927846 0
M  V30 101 H -3.287276 0.709756 2.860767 0
M  V30 102 H -4.504415 1.136575 4.147989 0
M  V30 103 H -2.331770 0.952444 5.255704 0
M  V30 104 H -2.952326 2.615707 5.249448 0
M  V30 105 H -0.638162 2.803693 4.664330 0
M  V30 106 H -1.733042 3.224104 3.290573 0
M  V30 107 H -1.362906 1.049783 2.213773 0
M  V30 108 H 1.102429 2.720251 2.829303 0
M  V30 109 H 1.651928 3.235198 0.023491 0
M  V30 110 H 2.983180 2.605473 2.024257 0
M  V30 111 H 3.406265 1.029111 1.170861 0
M  V30 112 H 5.194442 2.663074 0.911791 0
M  V30 113 H 4.438390 2.381079 -0.654483 0
M  V30 114 H 3.728753 4.759987 1.109520 0
M  V30 115 H 3.126284 4.393366 -0.557581 0
M  V30 116 H 5.136758 5.266282 -1.485230 0
M  V30 117 H 6.849788 5.146512 2.215430 0
M  V30 118 H 8.461321 4.693277 0.243534 0
M  V30 119 H 8.172557 5.325817 -1.210429 0
M  V30 120 H 1.341037 1.554553 -1.849930 0
M  V30 121 H 2.557668 -1.153475 -2.579804 0
M  V30 122 H 3.971298 -0.667238 -4.410954 0
M  V30 123 H 4.587946 0.883250 -3.688548 0
M  V30 124 H 2.952262 1.221995 -5.437990 0
M  V30 125 H 2.305176 1.879332 -3.951637 0
M  V30 126 H 0.659552 0.762187 -5.341995 0
M  V30 127 H 1.645195 -0.732038 -5.427413 0
M  V30 128 H 0.335475 -0.625789 -2.634916 0
M  V30 129 H -0.663584 -0.788383 -6.248684 0
M  V30 130 H -2.445586 -2.044267 -3.458541 0
M  V30 131 H -1.030707 -3.062616 -3.499021 0
M  V30 132 H 5.545913 -0.953382 -1.837958 0
M  V30 133 H 5.809446 -3.951790 -1.939055 0
M  V30 134 H 5.168048 -2.858612 0.934340 0
M  V30 135 H 6.441091 -2.181633 -0.061736 0
M  V30 136 H 7.706907 -4.252233 -0.086810 0
M  V30 137 H 7.487181 -3.529615 1.513645 0
M  V30 138 H 7.467606 -5.921267 1.529600 0
M  V30 139 H 6.209531 -6.049793 0.315101 0
M  V30 140 H 5.071256 -4.780419 2.822876 0
M  V30 141 H 5.400355 -8.847044 2.030910 0
M  V30 142 H 3.756776 -7.605946 3.598477 0
M  V30 143 H 4.558990 -7.534238 4.819650 0
M  V30 144 H 3.728943 -4.634179 0.186933 0
M  V30 145 H 2.213155 -6.795768 -1.993983 0
M  V30 146 H 2.713449 -9.009278 -0.970551 0
M  V30 147 H 4.328014 -8.456993 -0.541279 0
M  V30 148 H 4.380618 -9.788505 -2.484741 0
M  V30 149 H 4.939673 -8.191166 -2.938828 0
M  V30 150 H 3.397660 -9.075150 -4.649258 0
M  V30 151 H 2.610802 -7.708886 -3.823016 0
M  V30 152 H 1.946287 -10.146996 -2.489633 0
M  V30 153 H -0.062768 -9.214511 -6.048185 0
M  V30 154 H -0.898639 -11.371091 -3.575190 0
M  V30 155 H -1.129729 -10.110981 -3.818646 0
M  V30 156 H 2.494110 -7.027942 1.085783 0
M  V30 157 H -0.350782 -6.554685 1.695761 0
M  V30 158 H 1.084821 -3.910437 2.107561 0
M  V30 159 H -0.091964 -4.612419 3.207344 0
M  V30 160 H 1.539847 -6.428165 3.818226 0
M  V30 161 H 2.803936 -5.503160 2.838954 0
M  V30 162 H 1.026216 -4.302869 4.992293 0
M  V30 163 H 2.264647 -3.484866 3.940384 0
M  V30 164 H 3.719395 -5.505572 5.680938 0
M  V30 165 H 2.203644 -2.207215 7.451211 0
M  V30 166 H 4.819450 -3.812524 8.070861 0
M  V30 167 H 5.050300 -2.821613 6.981278 0
M  V30 168 H -0.093206 -3.926272 0.535401 0
M  V30 169 H -1.633142 -2.357276 0.412025 0
M  V30 170 H -1.973015 -3.142775 -1.143701 0
M  V30 171 H -4.298623 -3.093712 -0.832541 0
M  V30 172 H -4.218463 -2.682586 0.934832 0
M  V30 173 H -3.102686 -1.047672 -1.462210 0
M  V30 174 H -2.867722 -0.623741 0.228034 0
M  V30 175 H -5.225928 -0.355997 0.637870 0
M  V30 176 H -5.613517 -0.708924 -1.131017 0
M  V30 177 H -4.122085 0.990017 -1.904141 0
M  V30 178 H -3.513302 1.395499 -0.298111 0
M  V30 179 H -5.945594 2.185744 0.285316 0
M  V30 180 H -6.306826 1.866008 -1.456216 0
M  V30 181 H -3.827347 3.478112 -0.671283 0
M  V30 182 H -4.588047 3.224899 -2.255975 0
M  V30 183 H -4.970741 5.082216 -0.287500 0
M  V30 184 H -7.603503 6.973334 0.035512 0
M  V30 185 H -4.474307 7.057273 -1.406746 0
M  V30 186 H -1.962605 7.527835 -1.473273 0
M  V30 187 H 0.345617 10.152778 2.350513 0
M  V30 188 H 0.918424 8.366854 3.004952 0
M  V30 189 H -3.891302 9.562517 4.384254 0
M  V30 190 H -5.023834 9.484218 -1.795773 0
M  V30 191 H -6.815524 10.085833 -0.440799 0
M  V30 192 H -6.395929 7.635088 -2.551580 0
M  V30 193 H -8.405537 8.402583 -0.821144 0
M  V30 194 H -0.272225 -1.868336 4.040780 0
M  V30 END ATOM
M  V30 BEGIN BOND
M  V30 1 2 1 2 CFG=2
M  V30 2 1 2 3
M  V30 3 1 2 4
M  V30 4 1 4 5
M  V30 5 1 5 6
M  V30 6 1 6 7
M  V30 7 1 7 8
M  V30 8 1 8 9
M  V30 9 1 9 10
M  V30 10 2 10 11
M  V30 11 1 10 12
M  V30 12 1 12 13
M  V30 13 1 13 14
M  V30 14 1 14 15
M  V30 15 1 15 16
M  V30 16 1 16 17
M  V30 17 2 17 18 CFG=2
M  V30 18 1 17 19
M  V30 19 1 12 20
M  V30 20 1 20 21
M  V30 21 2 21 22
M  V30 22 1 21 23
M  V30 23 1 23 24
M  V30 24 1 24 25
M  V30 25 1 25 26
M  V30 26 1 26 27
M  V30 27 1 27 28
M  V30 28 2 28 29 CFG=2
M  V30 29 1 28 30
M  V30 30 1 23 31
M  V30 31 1 31 32
M  V30 32 2 32 33
M  V30 33 1 32 34
M  V30 34 1 34 35
M  V30 35 1 35 36
M  V30 36 1 36 37
M  V30 37 1 37 38
M  V30 38 1 38 39
M  V30 39 2 39 40 CFG=2
M  V30 40 1 39 41
M  V30 41 1 34 42
M  V30 42 1 42 43
M  V30 43 2 43 44
M  V30 44 1 43 45
M  V30 45 1 45 46
M  V30 46 1 46 47
M  V30 47 1 47 48
M  V30 48 1 48 49
M  V30 49 1 49 50
M  V30 50 2 50 51 CFG=2
M  V30 51 1 50 52
M  V30 52 1 45 53
M  V30 53 1 53 54
M  V30 54 2 54 55
M  V30 55 1 54 56
M  V30 56 1 56 57
M  V30 57 1 57 58
M  V30 58 1 58 59
M  V30 59 1 59 60
M  V30 60 1 60 61
M  V30 61 2 61 62 CFG=2
M  V30 62 1 61 63
M  V30 63 1 56 64
M  V30 64 1 64 65
M  V30 65 2 65 66
M  V30 66 1 65 67
M  V30 67 1 67 68
M  V30 68 1 68 69
M  V30 69 1 69 70
M  V30 70 1 70 71
M  V30 71 1 71 72
M  V30 72 1 72 73
M  V30 73 1 73 74
M  V30 74 1 74 75
M  V30 75 2 75 76
M  V30 76 1 75 77
M  V30 77 1 77 78
M  V30 78 1 78 79
M  V30 79 1 79 80
M  V30 80 1 80 81
M  V30 81 2 81 82
M  V30 82 1 82 83
M  V30 83 2 83 84
M  V30 84 1 84 85
M  V30 85 1 84 86
M  V30 86 2 86 87
M  V30 87 1 87 88
M  V30 88 2 88 89
M  V30 89 1 79 90
M  V30 90 1 90 91
M  V30 91 1 90 92
M  V30 92 1 92 93
M  V30 93 1 8 94
M  V30 94 2 94 95
M  V30 95 1 94 96
M  V30 96 1 92 77
M  V30 97 1 89 80
M  V30 98 1 89 83
M  V30 99 1 1 97
M  V30 100 1 3 98
M  V30 101 1 3 99
M  V30 102 1 4 100
M  V30 103 1 5 101
M  V30 104 1 5 102
M  V30 105 1 6 103
M  V30 106 1 6 104
M  V30 107 1 7 105
M  V30 108 1 7 106
M  V30 109 1 8 107 CFG=3
M  V30 110 1 9 108
M  V30 111 1 12 109 CFG=3
M  V30 112 1 13 110
M  V30 113 1 13 111
M  V30 114 1 14 112
M  V30 115 1 14 113
M  V30 116 1 15 114
M  V30 117 1 15 115
M  V30 118 1 16 116
M  V30 119 1 18 117
M  V30 120 1 19 118
M  V30 121 1 19 119
M  V30 122 1 20 120
M  V30 123 1 23 121 CFG=3
M  V30 124 1 24 122
M  V30 125 1 24 123
M  V30 126 1 25 124
M  V30 127 1 25 125
M  V30 128 1 26 126
M  V30 129 1 26 127
M  V30 130 1 27 128
M  V30 131 1 29 129
M  V30 132 1 30 130
M  V30 133 1 30 131
M  V30 134 1 31 132
M  V30 135 1 34 133 CFG=3
M  V30 136 1 35 134
M  V30 137 1 35 135
M  V30 138 1 36 136
M  V30 139 1 36 137
M  V30 140 1 37 138
M  V30 141 1 37 139
M  V30 142 1 38 140
M  V30 143 1 40 141
M  V30 144 1 41 142
M  V30 145 1 41 143
M  V30 146 1 42 144
M  V30 147 1 45 145 CFG=3
M  V30 148 1 46 146
M  V30 149 1 46 147
M  V30 150 1 47 148
M  V30 151 1 47 149
M  V30 152 1 48 150
M  V30 153 1 48 151
M  V30 154 1 49 152
M  V30 155 1 51 153
M  V30 156 1 52 154
M  V30 157 1 52 155
M  V30 158 1 53 156
M  V30 159 1 56 157 CFG=1
M  V30 160 1 57 158
M  V30 161 1 57 159
M  V30 162 1 58 160
M  V30 163 1 58 161
M  V30 164 1 59 162
M  V30 165 1 59 163
M  V30 166 1 60 164
M  V30 167 1 62 165
M  V30 168 1 63 166
M  V30 169 1 63 167
M  V30 170 1 64 168
M  V30 171 1 67 169
M  V30 172 1 67 170
M  V30 173 1 68 171
M  V30 174 1 68 172
M  V30 175 1 69 173
M  V30 176 1 69 174
M  V30 177 1 70 175
M  V30 178 1 70 176
M  V30 179 1 71 177
M  V30 180 1 71 178
M  V30 181 1 72 179
M  V30 182 1 72 180
M  V30 183 1 73 181
M  V30 184 1 73 182
M  V30 185 1 74 183
M  V30 186 1 77 184 CFG=1
M  V30 187 1 79 185
M  V30 188 1 81 186
M  V30 189 1 85 187
M  V30 190 1 85 188
M  V30 191 1 87 189
M  V30 192 1 90 190 CFG=3
M  V30 193 1 91 191
M  V30 194 1 92 192 CFG=3
M  V30 195 1 93 193
M  V30 196 1 96 194
M  V30 END BOND
M  V30 END CTAB
M  END
>  <Dataset>  (52) 
ChEMBL_Kinases

>  <Ligand_Instance>  (52) 
nan

>  <PDB_ID>  (52) 
nan

>  <Standardized_SMILES>  (52) 
N=C(N)NCCC[C@@H](NC(=O)[C@@H](CCCNC(=N)N)NC(=O)[C@@H](CCCNC(=N)N)NC(=O)[C@@H](CCCNC(=N)N)NC(=O)[C@@H](CCCNC(=N)N)NC(=O)[C@@H](CCCNC(=N)N)NC(=O)CCCCCCCNC(=O)[C@H]1OC(n2cnc3c(N)ncnc32)[C@H](O)[C@@H]1O)C(=O)O

>  <Name>  (52) 
nan

>  <Pocket>  (52) 
nan

>  <ATP_Site>  (52) 
nan

>  <Peripheral>  (52) 
nan

>  <Num_H_Atoms_ProtBoundConf>  (52) 
nan

>  <Num_Resolved_Atoms>  (52) 
nan

>  <Num_Not_Resolved_Atoms>  (52) 
nan

$$$$
CHEMBL3921179
     RDKit          3D

  0  0  0  0  0  0  0  0  0  0999 V3000
M  V30 BEGIN CTAB
M  V30 COUNTS 43 46 0 0 0
M  V30 BEGIN ATOM
M  V30 1 C -0.290301 -8.718864 0.905859 0
M  V30 2 C 0.412100 -7.412026 0.982380 0
M  V30 3 C -0.327120 -6.260502 0.973992 0
M  V30 4 C 0.228202 -5.001624 1.041037 0
M  V30 5 C 1.598305 -4.869684 1.121159 0
M  V30 6 O 2.425328 -3.760682 1.197865 0
M  V30 7 C 1.992178 -2.443954 1.138718 0
M  V30 8 C 2.147098 -1.504153 2.139724 0
M  V30 9 C 1.688875 -0.207629 2.008023 0
M  V30 10 C 1.048728 0.199023 0.849179 0
M  V30 11 C 0.537179 1.555899 0.639576 0
M  V30 12 N 0.612883 2.575830 1.519088 0
M  V30 13 C 0.042000 3.688204 1.005816 0
M  V30 14 C -0.140551 4.969863 1.485242 0
M  V30 15 C -0.778839 5.872643 0.674396 0
M  V30 16 C -1.024747 7.243277 1.072880 0
M  V30 17 N -0.710473 7.940558 2.264019 0
M  V30 18 O -1.603427 8.174232 0.417508 0
M  V30 19 C -1.243627 5.563757 -0.587631 0
M  V30 20 C -1.043299 4.255651 -1.045392 0
M  V30 21 C -0.403401 3.328828 -0.247617 0
M  V30 22 N -0.099167 2.036462 -0.460338 0
M  V30 23 C 0.888158 -0.732242 -0.159036 0
M  V30 24 C 1.346208 -2.046726 -0.040635 0
M  V30 25 Cl 1.062854 -3.095609 -1.438597 0
M  V30 26 C 2.386689 -6.027262 1.132270 0
M  V30 27 C 1.793184 -7.293516 1.062995 0
M  V30 28 Cl 2.696267 -8.786222 1.071122 0
M  V30 29 H -1.280353 -8.602176 1.392354 0
M  V30 30 H 0.263349 -9.507028 1.432018 0
M  V30 31 H -0.488779 -8.963465 -0.166653 0
M  V30 32 H -1.410557 -6.263818 0.913322 0
M  V30 33 H -0.260035 -4.046546 1.045869 0
M  V30 34 H 2.647298 -1.826328 3.042049 0
M  V30 35 H 1.821364 0.508488 2.803239 0
M  V30 36 H 0.197017 5.267650 2.452979 0
M  V30 37 H -1.240727 8.058126 3.160138 0
M  V30 38 H 0.111828 8.525966 2.598386 0
M  V30 39 H -1.751106 6.260243 -1.247156 0
M  V30 40 H -1.397942 3.988472 -2.030329 0
M  V30 41 H -0.323933 1.491300 -1.345695 0
M  V30 42 H 0.381213 -0.408852 -1.075696 0
M  V30 43 H 3.465047 -6.104950 1.190365 0
M  V30 END ATOM
M  V30 BEGIN BOND
M  V30 1 1 1 2
M  V30 2 2 2 3
M  V30 3 1 3 4
M  V30 4 2 4 5
M  V30 5 1 5 6
M  V30 6 1 6 7
M  V30 7 2 7 8
M  V30 8 1 8 9
M  V30 9 2 9 10
M  V30 10 1 10 11
M  V30 11 2 11 12
M  V30 12 1 12 13
M  V30 13 2 13 14
M  V30 14 1 14 15
M  V30 15 1 15 16
M  V30 16 1 16 17
M  V30 17 2 16 18
M  V30 18 2 15 19
M  V30 19 1 19 20
M  V30 20 2 20 21
M  V30 21 1 21 22
M  V30 22 1 10 23
M  V30 23 2 23 24
M  V30 24 1 24 25
M  V30 25 1 5 26
M  V30 26 2 26 27
M  V30 27 1 27 28
M  V30 28 1 27 2
M  V30 29 1 24 7
M  V30 30 1 22 11
M  V30 31 1 21 13
M  V30 32 1 1 29
M  V30 33 1 1 30
M  V30 34 1 1 31
M  V30 35 1 3 32
M  V30 36 1 4 33
M  V30 37 1 8 34
M  V30 38 1 9 35
M  V30 39 1 14 36
M  V30 40 1 17 37
M  V30 41 1 17 38
M  V30 42 1 19 39
M  V30 43 1 20 40
M  V30 44 1 22 41
M  V30 45 1 23 42
M  V30 46 1 26 43
M  V30 END BOND
M  V30 END CTAB
M  END
>  <Dataset>  (53) 
ChEMBL_Kinases

>  <Ligand_Instance>  (53) 
nan

>  <PDB_ID>  (53) 
nan

>  <Standardized_SMILES>  (53) 
Cc1ccc(Oc2ccc(-c3nc4cc(C(N)=O)ccc4[nH]3)cc2Cl)cc1Cl

>  <Name>  (53) 
nan

>  <Pocket>  (53) 
nan

>  <ATP_Site>  (53) 
nan

>  <Peripheral>  (53) 
nan

>  <Num_H_Atoms_ProtBoundConf>  (53) 
nan

>  <Num_Resolved_Atoms>  (53) 
nan

>  <Num_Not_Resolved_Atoms>  (53) 
nan

$$$$
CHEMBL3921162
     RDKit          3D

  0  0  0  0  0  0  0  0  0  0999 V3000
M  V30 BEGIN CTAB
M  V30 COUNTS 35 36 0 0 0
M  V30 BEGIN ATOM
M  V30 1 N 0.246357 -4.259730 2.311672 0
M  V30 2 S 1.803673 -3.682826 2.720381 0
M  V30 3 O 1.868052 -3.652378 4.237966 0
M  V30 4 O 2.817707 -4.666592 2.207409 0
M  V30 5 C 2.106965 -2.082552 2.121180 0
M  V30 6 C 2.661347 -1.942598 0.876046 0
M  V30 7 C 2.889463 -0.650787 0.430034 0
M  V30 8 C 2.572180 0.459896 1.206633 0
M  V30 9 N 2.789114 1.800381 0.788841 0
M  V30 10 C 1.618188 2.240318 0.110741 0
M  V30 11 S 1.552949 3.754358 -0.496495 0
M  V30 12 N 0.513234 1.356304 -0.032691 0
M  V30 13 C -0.663560 1.785478 -0.709374 0
M  V30 14 O -0.631789 2.969739 -1.148234 0
M  V30 15 C -1.816124 0.908159 -0.876107 0
M  V30 16 C -1.941597 -0.392340 -0.433667 0
M  V30 17 C -3.064412 -1.138762 -0.637499 0
M  V30 18 C -4.146743 -0.602340 -1.314039 0
M  V30 19 C -4.048135 0.698637 -1.768380 0
M  V30 20 C -2.911127 1.433904 -1.554103 0
M  V30 21 C 2.013742 0.270430 2.458252 0
M  V30 22 I 1.522935 1.938554 3.657202 0
M  V30 23 C 1.773365 -1.007613 2.932711 0
M  V30 24 H -0.528449 -3.650762 2.606801 0
M  V30 25 H 0.173526 -4.604878 1.335444 0
M  V30 26 H 2.916130 -2.791931 0.254799 0
M  V30 27 H 3.328709 -0.483745 -0.553463 0
M  V30 28 H 3.605177 2.443645 0.898456 0
M  V30 29 H 0.554820 0.396233 0.352414 0
M  V30 30 H -1.084397 -0.789380 0.091538 0
M  V30 31 H -3.058080 -2.156155 -0.245845 0
M  V30 32 H -5.030310 -1.209892 -1.466673 0
M  V30 33 H -4.907044 1.088755 -2.291672 0
M  V30 34 H -2.940575 2.438698 -1.951009 0
M  V30 35 H 1.338872 -1.089681 3.910021 0
M  V30 END ATOM
M  V30 BEGIN BOND
M  V30 1 1 1 2
M  V30 2 2 2 3
M  V30 3 2 2 4
M  V30 4 1 2 5
M  V30 5 2 5 6
M  V30 6 1 6 7
M  V30 7 2 7 8
M  V30 8 1 8 9
M  V30 9 1 9 10
M  V30 10 2 10 11
M  V30 11 1 10 12
M  V30 12 1 12 13
M  V30 13 2 13 14
M  V30 14 1 13 15
M  V30 15 2 15 16
M  V30 16 1 16 17
M  V30 17 2 17 18
M  V30 18 1 18 19
M  V30 19 2 19 20
M  V30 20 1 8 21
M  V30 21 1 21 22
M  V30 22 2 21 23
M  V30 23 1 23 5
M  V30 24 1 20 15
M  V30 25 1 1 24
M  V30 26 1 1 25
M  V30 27 1 6 26
M  V30 28 1 7 27
M  V30 29 1 9 28
M  V30 30 1 12 29
M  V30 31 1 16 30
M  V30 32 1 17 31
M  V30 33 1 18 32
M  V30 34 1 19 33
M  V30 35 1 20 34
M  V30 36 1 23 35
M  V30 END BOND
M  V30 END CTAB
M  END
>  <Dataset>  (54) 
ChEMBL_Kinases

>  <Ligand_Instance>  (54) 
nan

>  <PDB_ID>  (54) 
nan

>  <Standardized_SMILES>  (54) 
NS(=O)(=O)c1ccc(NC(=S)NC(=O)c2ccccc2)c(I)c1

>  <Name>  (54) 
nan

>  <Pocket>  (54) 
nan

>  <ATP_Site>  (54) 
nan

>  <Peripheral>  (54) 
nan

>  <Num_H_Atoms_ProtBoundConf>  (54) 
nan

>  <Num_Resolved_Atoms>  (54) 
nan

>  <Num_Not_Resolved_Atoms>  (54) 
nan

$$$$
CHEMBL4876496
     RDKit          3D

  0  0  0  0  0  0  0  0  0  0999 V3000
M  V30 BEGIN CTAB
M  V30 COUNTS 60 62 0 0 0
M  V30 BEGIN ATOM
M  V30 1 C -1.271124 0.365918 3.439053 0
M  V30 2 C -0.174438 -0.473699 2.890023 0
M  V30 3 C 1.160354 -0.231310 3.141799 0
M  V30 4 C 2.141275 -1.064629 2.589995 0
M  V30 5 N 3.449784 -0.638938 2.973811 0
M  V30 6 C 3.969884 0.293661 2.034035 0
M  V30 7 O 3.280563 0.635548 1.021641 0
M  V30 8 C 5.247751 1.014473 1.972508 0 CFG=2
M  V30 9 O 6.052557 0.692049 3.044332 0
M  V30 10 C 5.078072 2.483143 1.930668 0
M  V30 11 C 4.800938 3.200741 3.093945 0
M  V30 12 C 4.644219 4.579761 3.037951 0
M  V30 13 F 4.371725 5.318810 4.157244 0
M  V30 14 C 4.764101 5.231403 1.829031 0
M  V30 15 C 5.040363 4.573603 0.627196 0
M  V30 16 F 5.159150 5.196760 -0.554318 0
M  V30 17 C 5.180513 3.206822 0.775259 0
M  V30 18 C 1.778906 -2.131750 1.792178 0
M  V30 19 C 0.439455 -2.362172 1.548868 0
M  V30 20 C -0.530276 -1.541837 2.091869 0
M  V30 21 C -1.895596 -1.918673 1.741208 0
M  V30 22 C -2.965362 -1.992342 2.605435 0
M  V30 23 N -4.193199 -2.350052 2.190953 0
M  V30 24 C -4.473908 -2.665415 0.893576 0
M  V30 25 N -5.820021 -3.026756 0.597647 0
M  V30 26 C -3.438007 -2.605299 -0.000981 0
M  V30 27 C -3.738585 -2.942417 -1.387806 0
M  V30 28 O -4.918641 -3.265036 -1.678440 0
M  V30 29 N -2.794152 -2.935740 -2.450487 0
M  V30 30 C -3.247729 -3.294988 -3.773631 0
M  V30 31 C -4.322919 -2.334513 -4.194118 0
M  V30 32 C -3.689385 -4.716738 -3.914638 0
M  V30 33 C -2.067614 -3.099797 -4.728114 0
M  V30 34 C -2.171628 -2.240180 0.406846 0
M  V30 35 H -0.875464 1.422833 3.488083 0
M  V30 36 H -2.151746 0.408565 2.791423 0
M  V30 37 H -1.534548 0.116955 4.486738 0
M  V30 38 H 1.340444 0.627043 3.777266 0
M  V30 39 H 4.135861 -0.811305 3.741008 0
M  V30 40 H 5.772582 0.668197 1.058397 0
M  V30 41 H 5.518728 0.849962 3.876460 0
M  V30 42 H 4.701452 2.719543 4.053186 0
M  V30 43 H 4.642581 6.320126 1.771075 0
M  V30 44 H 5.395876 2.625505 -0.111426 0
M  V30 45 H 2.627834 -2.694430 1.430016 0
M  V30 46 H 0.266958 -3.217475 0.916042 0
M  V30 47 H -2.774683 -1.750098 3.632395 0
M  V30 48 H -6.174178 -4.025491 0.580208 0
M  V30 49 H -6.208540 -2.051027 0.440052 0
M  V30 50 H -1.810414 -2.670197 -2.225932 0
M  V30 51 H -4.245309 -2.215713 -5.304737 0
M  V30 52 H -5.335655 -2.713818 -3.912186 0
M  V30 53 H -4.143169 -1.338353 -3.740000 0
M  V30 54 H -3.574434 -4.988425 -4.998795 0
M  V30 55 H -3.000225 -5.387559 -3.362783 0
M  V30 56 H -4.750230 -4.907517 -3.682360 0
M  V30 57 H -1.141948 -3.427378 -4.255264 0
M  V30 58 H -2.217991 -3.661803 -5.655610 0
M  V30 59 H -2.001900 -2.011595 -4.975910 0
M  V30 60 H -1.352232 -2.191922 -0.297017 0
M  V30 END ATOM
M  V30 BEGIN BOND
M  V30 1 1 1 2
M  V30 2 2 2 3
M  V30 3 1 3 4
M  V30 4 1 4 5
M  V30 5 1 5 6
M  V30 6 2 6 7
M  V30 7 1 6 8
M  V30 8 1 8 9
M  V30 9 1 8 10
M  V30 10 2 10 11
M  V30 11 1 11 12
M  V30 12 1 12 13
M  V30 13 2 12 14
M  V30 14 1 14 15
M  V30 15 1 15 16
M  V30 16 2 15 17
M  V30 17 2 4 18
M  V30 18 1 18 19
M  V30 19 2 19 20
M  V30 20 1 20 21
M  V30 21 2 21 22
M  V30 22 1 22 23
M  V30 23 2 23 24
M  V30 24 1 24 25
M  V30 25 1 24 26
M  V30 26 1 26 27
M  V30 27 2 27 28
M  V30 28 1 27 29
M  V30 29 1 29 30
M  V30 30 1 30 31
M  V30 31 1 30 32
M  V30 32 1 30 33
M  V30 33 2 26 34
M  V30 34 1 20 2
M  V30 35 1 34 21
M  V30 36 1 17 10
M  V30 37 1 1 35
M  V30 38 1 1 36
M  V30 39 1 1 37
M  V30 40 1 3 38
M  V30 41 1 5 39
M  V30 42 1 8 40 CFG=3
M  V30 43 1 9 41
M  V30 44 1 11 42
M  V30 45 1 14 43
M  V30 46 1 17 44
M  V30 47 1 18 45
M  V30 48 1 19 46
M  V30 49 1 22 47
M  V30 50 1 25 48
M  V30 51 1 25 49
M  V30 52 1 29 50
M  V30 53 1 31 51
M  V30 54 1 31 52
M  V30 55 1 31 53
M  V30 56 1 32 54
M  V30 57 1 32 55
M  V30 58 1 32 56
M  V30 59 1 33 57
M  V30 60 1 33 58
M  V30 61 1 33 59
M  V30 62 1 34 60
M  V30 END BOND
M  V30 END CTAB
M  END
>  <Dataset>  (55) 
ChEMBL_Kinases

>  <Ligand_Instance>  (55) 
nan

>  <PDB_ID>  (55) 
nan

>  <Standardized_SMILES>  (55) 
Cc1cc(NC(=O)[C@H](O)c2cc(F)cc(F)c2)ccc1-c1cnc(N)c(C(=O)NC(C)(C)C)c1

>  <Name>  (55) 
nan

>  <Pocket>  (55) 
nan

>  <ATP_Site>  (55) 
nan

>  <Peripheral>  (55) 
nan

>  <Num_H_Atoms_ProtBoundConf>  (55) 
nan

>  <Num_Resolved_Atoms>  (55) 
nan

>  <Num_Not_Resolved_Atoms>  (55) 
nan

$$$$
CHEMBL610874
     RDKit          3D

  0  0  0  0  0  0  0  0  0  0999 V3000
M  V30 BEGIN CTAB
M  V30 COUNTS 188 190 0 0 0
M  V30 BEGIN ATOM
M  V30 1 N 9.901928 1.350811 2.413951 0
M  V30 2 C 8.996325 0.772543 1.679677 0
M  V30 3 N 9.167971 0.769971 0.267850 0
M  V30 4 N 7.844878 0.141768 2.242228 0
M  V30 5 C 7.850381 -0.199914 3.665356 0
M  V30 6 C 6.537311 -0.871490 4.001055 0
M  V30 7 C 5.420297 0.075757 3.732376 0
M  V30 8 C 4.057991 -0.537552 4.030962 0 CFG=1
M  V30 9 N 3.816415 -1.701643 3.225379 0
M  V30 10 C 2.852056 -2.042369 2.252473 0
M  V30 11 O 1.883078 -1.443445 1.766015 0
M  V30 12 C 2.957134 -3.405835 1.613975 0 CFG=1
M  V30 13 C 2.423253 -4.453413 2.506200 0
M  V30 14 C 3.094782 -4.539994 3.824349 0
M  V30 15 C 2.515273 -5.675781 4.674452 0
M  V30 16 N 3.233704 -5.669445 5.930468 0
M  V30 17 C 2.854264 -6.661138 6.903698 0
M  V30 18 N 2.038404 -7.617053 6.519914 0
M  V30 19 N 3.453720 -6.448775 8.204863 0
M  V30 20 N 2.078730 -3.374227 0.401784 0
M  V30 21 C 2.559024 -2.908307 -0.825387 0
M  V30 22 O 3.767360 -2.465046 -0.935987 0
M  V30 23 C 2.477928 -2.594263 -2.217526 0 CFG=1
M  V30 24 C 1.174222 -2.166782 -2.817718 0
M  V30 25 C 0.060121 -3.165345 -2.756621 0
M  V30 26 C -1.132796 -2.493769 -3.455057 0
M  V30 27 N -0.809889 -2.164627 -4.817156 0
M  V30 28 C -0.585516 -3.100479 -5.866640 0
M  V30 29 N -1.112539 -4.258382 -5.712500 0
M  V30 30 N 0.204554 -2.667455 -6.988612 0
M  V30 31 N 3.591856 -1.751126 -2.674494 0
M  V30 32 C 3.331167 -0.516644 -2.012787 0
M  V30 33 O 2.444903 -0.071860 -1.208158 0
M  V30 34 C 3.800743 0.892014 -1.810193 0 CFG=1
M  V30 35 C 3.901050 1.525588 -3.187896 0
M  V30 36 C 2.566514 1.528050 -3.888223 0
M  V30 37 C 2.712648 2.153080 -5.248896 0
M  V30 38 N 3.176145 3.505805 -5.091507 0
M  V30 39 C 3.344849 4.249927 -6.319750 0
M  V30 40 N 3.619658 3.588228 -7.381392 0
M  V30 41 N 3.208783 5.686119 -6.357515 0
M  V30 42 N 2.902861 1.584856 -0.927620 0
M  V30 43 C 3.240305 2.143251 0.343856 0
M  V30 44 O 4.486881 1.911394 0.520639 0
M  V30 45 C 2.240939 2.841670 1.212998 0 CFG=1
M  V30 46 C 2.710905 4.215814 1.578191 0
M  V30 47 C 4.004705 4.268267 2.344894 0
M  V30 48 C 4.391041 5.706432 2.660242 0
M  V30 49 N 5.639529 5.695913 3.411113 0
M  V30 50 C 6.793054 5.269378 2.681406 0
M  V30 51 N 6.922114 5.498611 1.404729 0
M  V30 52 N 7.858084 4.567531 3.366295 0
M  V30 53 N 0.907086 2.856755 0.649878 0
M  V30 54 C -0.177629 1.969494 0.979200 0
M  V30 55 O 0.332560 1.204047 1.832264 0
M  V30 56 C -1.482318 2.050649 0.394124 0 CFG=1
M  V30 57 C -2.584366 1.859181 1.416366 0
M  V30 58 C -2.524126 0.507328 2.064802 0
M  V30 59 C -3.688246 0.314210 3.037273 0
M  V30 60 N -3.531871 -1.020107 3.580125 0
M  V30 61 C -4.564229 -1.436031 4.479026 0
M  V30 62 N -5.596382 -0.757492 4.804905 0
M  V30 63 N -4.560862 -2.708343 5.131143 0
M  V30 64 N -1.760545 3.166718 -0.466566 0
M  V30 65 C -2.429961 2.943779 -1.688101 0
M  V30 66 O -2.744141 1.751200 -1.982209 0
M  V30 67 C -2.892359 3.829072 -2.781974 0
M  V30 68 C -3.393274 2.910471 -3.914573 0
M  V30 69 C -2.310870 2.132175 -4.572299 0
M  V30 70 C -2.829701 1.244343 -5.646930 0
M  V30 71 C -3.721697 0.119851 -5.284905 0
M  V30 72 N -4.955543 0.389971 -4.648359 0
M  V30 73 C -5.559977 -0.918682 -4.445029 0
M  V30 74 O -4.867260 -1.916767 -4.888521 0
M  V30 75 C -6.761132 -1.531598 -3.870293 0 CFG=1
M  V30 76 O -7.615582 -0.590018 -3.239828 0
M  V30 77 C -8.575725 -1.525617 -2.769267 0
M  V30 78 N -9.612873 -0.950224 -1.999285 0
M  V30 79 C -10.775611 -1.471924 -1.644501 0
M  V30 80 N -11.436007 -0.572503 -0.898545 0
M  V30 81 C -10.680913 0.532061 -0.781075 0
M  V30 82 C -10.860264 1.741240 -0.137080 0
M  V30 83 N -12.076694 1.930050 0.575357 0
M  V30 84 N -9.871575 2.652725 -0.225056 0
M  V30 85 C -8.741720 2.409377 -0.912246 0
M  V30 86 N -8.564931 1.245071 -1.533715 0
M  V30 87 C -9.517950 0.293423 -1.482170 0
M  V30 88 C -9.027277 -2.163753 -4.050130 0 CFG=2
M  V30 89 O -9.485881 -3.452091 -3.882777 0
M  V30 90 C -7.719261 -2.118098 -4.870153 0 CFG=2
M  V30 91 O -7.382769 -3.386711 -5.312141 0
M  V30 92 C 3.914816 -0.850712 5.463792 0
M  V30 93 O 4.155055 0.229703 6.104300 0
M  V30 94 O 3.640251 -1.763921 6.469897 0
M  V30 95 H 10.714150 1.784069 1.888072 0
M  V30 96 H 9.629804 0.559872 -0.622994 0
M  V30 97 H 8.858875 1.025529 -0.689511 0
M  V30 98 H 7.059267 -0.034936 1.570090 0
M  V30 99 H 8.003040 0.751698 4.223025 0
M  V30 100 H 8.714500 -0.895250 3.827044 0
M  V30 101 H 6.572908 -1.077843 5.095219 0
M  V30 102 H 6.520412 -1.805212 3.403577 0
M  V30 103 H 5.511478 0.952385 4.401080 0
M  V30 104 H 5.455321 0.463510 2.698864 0
M  V30 105 H 3.299425 0.224770 3.775473 0
M  V30 106 H 4.591137 -2.344663 3.493802 0
M  V30 107 H 3.974475 -3.564384 1.261488 0
M  V30 108 H 1.307155 -4.327376 2.616639 0
M  V30 109 H 2.489060 -5.438566 1.941574 0
M  V30 110 H 4.163084 -4.718979 3.714254 0
M  V30 111 H 2.963731 -3.582454 4.405512 0
M  V30 112 H 2.710611 -6.663582 4.218842 0
M  V30 113 H 1.426030 -5.568761 4.814830 0
M  V30 114 H 4.009090 -4.971989 6.135573 0
M  V30 115 H 1.794000 -8.310355 7.263556 0
M  V30 116 H 2.699495 -6.741521 8.833611 0
M  V30 117 H 2.947271 -6.654008 9.100384 0
M  V30 118 H 1.125478 -3.592646 0.080319 0
M  V30 119 H 2.698326 -3.585384 -2.792765 0
M  V30 120 H 1.300184 -1.933956 -3.922781 0
M  V30 121 H 0.839277 -1.172694 -2.409721 0
M  V30 122 H -0.214510 -3.497313 -1.755125 0
M  V30 123 H 0.294226 -4.087639 -3.356575 0
M  V30 124 H -1.378997 -1.600499 -2.886255 0
M  V30 125 H -1.963556 -3.244974 -3.389885 0
M  V30 126 H -0.723822 -1.140978 -5.076165 0
M  V30 127 H -1.000126 -5.016990 -6.439764 0
M  V30 128 H 1.212329 -2.913111 -7.018032 0
M  V30 129 H 0.088620 -2.129675 -7.879971 0
M  V30 130 H 4.455393 -1.487165 -3.177239 0
M  V30 131 H 4.813062 0.856284 -1.380603 0
M  V30 132 H 4.657377 0.953899 -3.759589 0
M  V30 133 H 4.306108 2.547710 -3.046285 0
M  V30 134 H 1.765701 1.968155 -3.287330 0
M  V30 135 H 2.285398 0.454951 -4.061592 0
M  V30 136 H 3.409977 1.529665 -5.889305 0
M  V30 137 H 1.755110 2.144395 -5.818505 0
M  V30 138 H 3.416621 4.054954 -4.215866 0
M  V30 139 H 3.742935 4.111504 -8.272613 0
M  V30 140 H 2.539723 6.504143 -6.388446 0
M  V30 141 H 3.934926 6.438147 -6.365508 0
M  V30 142 H 1.888083 1.716502 -1.221461 0
M  V30 143 H 2.220414 2.223246 2.138361 0
M  V30 144 H 1.936322 4.662427 2.268082 0
M  V30 145 H 2.739531 4.901894 0.690598 0
M  V30 146 H 4.848360 3.747814 1.870904 0
M  V30 147 H 3.835911 3.755498 3.317145 0
M  V30 148 H 4.669930 6.179719 1.669861 0
M  V30 149 H 3.607893 6.244323 3.196186 0
M  V30 150 H 5.749612 5.966080 4.413781 0
M  V30 151 H 7.767569 5.185065 0.868683 0
M  V30 152 H 8.235701 3.669237 3.753793 0
M  V30 153 H 8.807669 4.594443 3.835300 0
M  V30 154 H 0.786844 3.625559 -0.072739 0
M  V30 155 H -1.574141 1.135155 -0.299516 0
M  V30 156 H -2.455222 2.604199 2.258428 0
M  V30 157 H -3.582794 2.102695 1.004614 0
M  V30 158 H -1.590234 0.420023 2.645977 0
M  V30 159 H -2.560130 -0.328703 1.353700 0
M  V30 160 H -4.658928 0.414493 2.516635 0
M  V30 161 H -3.536794 1.061902 3.829972 0
M  V30 162 H -2.753152 -1.682827 3.380902 0
M  V30 163 H -5.728046 0.181109 4.401017 0
M  V30 164 H -4.513984 -3.090119 6.099222 0
M  V30 165 H -4.610785 -3.710015 4.776269 0
M  V30 166 H -1.551162 4.192767 -0.361884 0
M  V30 167 H -2.044748 4.400307 -3.202220 0
M  V30 168 H -3.720943 4.428561 -2.417945 0
M  V30 169 H -4.079467 2.163205 -3.441279 0
M  V30 170 H -3.996247 3.511045 -4.620621 0
M  V30 171 H -1.528611 2.844678 -4.979809 0
M  V30 172 H -1.705371 1.484683 -3.893621 0
M  V30 173 H -3.413217 1.876103 -6.397995 0
M  V30 174 H -1.957057 0.827590 -6.223560 0
M  V30 175 H -3.110857 -0.604834 -4.664030 0
M  V30 176 H -3.869889 -0.464581 -6.252171 0
M  V30 177 H -5.779315 0.894098 -4.203087 0
M  V30 178 H -6.463253 -2.309285 -3.113923 0
M  V30 179 H -8.026440 -2.333583 -2.198463 0
M  V30 180 H -11.172862 -2.444682 -1.882726 0
M  V30 181 H -13.058289 1.816348 0.197682 0
M  V30 182 H -11.891484 2.216934 1.583366 0
M  V30 183 H -7.967087 3.165492 -0.960475 0
M  V30 184 H -9.815638 -1.555065 -4.530939 0
M  V30 185 H -9.048270 -3.939008 -3.139156 0
M  V30 186 H -7.891687 -1.406109 -5.682617 0
M  V30 187 H -6.495944 -3.610100 -4.976758 0
M  V30 188 H 2.812323 -1.609583 7.044640 0
M  V30 END ATOM
M  V30 BEGIN BOND
M  V30 1 2 1 2 CFG=2
M  V30 2 1 2 3
M  V30 3 1 2 4
M  V30 4 1 4 5
M  V30 5 1 5 6
M  V30 6 1 6 7
M  V30 7 1 7 8
M  V30 8 1 8 9
M  V30 9 1 9 10
M  V30 10 2 10 11
M  V30 11 1 10 12
M  V30 12 1 12 13
M  V30 13 1 13 14
M  V30 14 1 14 15
M  V30 15 1 15 16
M  V30 16 1 16 17
M  V30 17 2 17 18 CFG=2
M  V30 18 1 17 19
M  V30 19 1 12 20
M  V30 20 1 20 21
M  V30 21 2 21 22
M  V30 22 1 21 23
M  V30 23 1 23 24
M  V30 24 1 24 25
M  V30 25 1 25 26
M  V30 26 1 26 27
M  V30 27 1 27 28
M  V30 28 2 28 29 CFG=2
M  V30 29 1 28 30
M  V30 30 1 23 31
M  V30 31 1 31 32
M  V30 32 2 32 33
M  V30 33 1 32 34
M  V30 34 1 34 35
M  V30 35 1 35 36
M  V30 36 1 36 37
M  V30 37 1 37 38
M  V30 38 1 38 39
M  V30 39 2 39 40 CFG=2
M  V30 40 1 39 41
M  V30 41 1 34 42
M  V30 42 1 42 43
M  V30 43 2 43 44
M  V30 44 1 43 45
M  V30 45 1 45 46
M  V30 46 1 46 47
M  V30 47 1 47 48
M  V30 48 1 48 49
M  V30 49 1 49 50
M  V30 50 2 50 51 CFG=2
M  V30 51 1 50 52
M  V30 52 1 45 53
M  V30 53 1 53 54
M  V30 54 2 54 55
M  V30 55 1 54 56
M  V30 56 1 56 57
M  V30 57 1 57 58
M  V30 58 1 58 59
M  V30 59 1 59 60
M  V30 60 1 60 61
M  V30 61 2 61 62 CFG=2
M  V30 62 1 61 63
M  V30 63 1 56 64
M  V30 64 1 64 65
M  V30 65 2 65 66
M  V30 66 1 65 67
M  V30 67 1 67 68
M  V30 68 1 68 69
M  V30 69 1 69 70
M  V30 70 1 70 71
M  V30 71 1 71 72
M  V30 72 1 72 73
M  V30 73 2 73 74
M  V30 74 1 73 75
M  V30 75 1 75 76
M  V30 76 1 76 77
M  V30 77 1 77 78
M  V30 78 1 78 79
M  V30 79 2 79 80
M  V30 80 1 80 81
M  V30 81 2 81 82
M  V30 82 1 82 83
M  V30 83 1 82 84
M  V30 84 2 84 85
M  V30 85 1 85 86
M  V30 86 2 86 87
M  V30 87 1 77 88
M  V30 88 1 88 89
M  V30 89 1 88 90
M  V30 90 1 90 91
M  V30 91 1 8 92
M  V30 92 2 92 93
M  V30 93 1 92 94
M  V30 94 1 90 75
M  V30 95 1 87 78
M  V30 96 1 87 81
M  V30 97 1 1 95
M  V30 98 1 3 96
M  V30 99 1 3 97
M  V30 100 1 4 98
M  V30 101 1 5 99
M  V30 102 1 5 100
M  V30 103 1 6 101
M  V30 104 1 6 102
M  V30 105 1 7 103
M  V30 106 1 7 104
M  V30 107 1 8 105 CFG=3
M  V30 108 1 9 106
M  V30 109 1 12 107 CFG=3
M  V30 110 1 13 108
M  V30 111 1 13 109
M  V30 112 1 14 110
M  V30 113 1 14 111
M  V30 114 1 15 112
M  V30 115 1 15 113
M  V30 116 1 16 114
M  V30 117 1 18 115
M  V30 118 1 19 116
M  V30 119 1 19 117
M  V30 120 1 20 118
M  V30 121 1 23 119 CFG=3
M  V30 122 1 24 120
M  V30 123 1 24 121
M  V30 124 1 25 122
M  V30 125 1 25 123
M  V30 126 1 26 124
M  V30 127 1 26 125
M  V30 128 1 27 126
M  V30 129 1 29 127
M  V30 130 1 30 128
M  V30 131 1 30 129
M  V30 132 1 31 130
M  V30 133 1 34 131 CFG=1
M  V30 134 1 35 132
M  V30 135 1 35 133
M  V30 136 1 36 134
M  V30 137 1 36 135
M  V30 138 1 37 136
M  V30 139 1 37 137
M  V30 140 1 38 138
M  V30 141 1 40 139
M  V30 142 1 41 140
M  V30 143 1 41 141
M  V30 144 1 42 142
M  V30 145 1 45 143 CFG=1
M  V30 146 1 46 144
M  V30 147 1 46 145
M  V30 148 1 47 146
M  V30 149 1 47 147
M  V30 150 1 48 148
M  V30 151 1 48 149
M  V30 152 1 49 150
M  V30 153 1 51 151
M  V30 154 1 52 152
M  V30 155 1 52 153
M  V30 156 1 53 154
M  V30 157 1 56 155 CFG=3
M  V30 158 1 57 156
M  V30 159 1 57 157
M  V30 160 1 58 158
M  V30 161 1 58 159
M  V30 162 1 59 160
M  V30 163 1 59 161
M  V30 164 1 60 162
M  V30 165 1 62 163
M  V30 166 1 63 164
M  V30 167 1 63 165
M  V30 168 1 64 166
M  V30 169 1 67 167
M  V30 170 1 67 168
M  V30 171 1 68 169
M  V30 172 1 68 170
M  V30 173 1 69 171
M  V30 174 1 69 172
M  V30 175 1 70 173
M  V30 176 1 70 174
M  V30 177 1 71 175
M  V30 178 1 71 176
M  V30 179 1 72 177
M  V30 180 1 75 178 CFG=1
M  V30 181 1 77 179
M  V30 182 1 79 180
M  V30 183 1 83 181
M  V30 184 1 83 182
M  V30 185 1 85 183
M  V30 186 1 88 184 CFG=3
M  V30 187 1 89 185
M  V30 188 1 90 186 CFG=3
M  V30 189 1 91 187
M  V30 190 1 94 188
M  V30 END BOND
M  V30 END CTAB
M  END
>  <Dataset>  (56) 
ChEMBL_Kinases

>  <Ligand_Instance>  (56) 
nan

>  <PDB_ID>  (56) 
nan

>  <Standardized_SMILES>  (56) 
N=C(N)NCCC[C@@H](NC(=O)[C@@H](CCCNC(=N)N)NC(=O)[C@@H](CCCNC(=N)N)NC(=O)[C@@H](CCCNC(=N)N)NC(=O)[C@@H](CCCNC(=N)N)NC(=O)[C@@H](CCCNC(=N)N)NC(=O)CCCCCNC(=O)[C@H]1OC(n2cnc3c(N)ncnc32)[C@H](O)[C@@H]1O)C(=O)O

>  <Name>  (56) 
nan

>  <Pocket>  (56) 
nan

>  <ATP_Site>  (56) 
nan

>  <Peripheral>  (56) 
nan

>  <Num_H_Atoms_ProtBoundConf>  (56) 
nan

>  <Num_Resolved_Atoms>  (56) 
nan

>  <Num_Not_Resolved_Atoms>  (56) 
nan

$$$$
CHEMBL3921057
     RDKit          3D

  0  0  0  0  0  0  0  0  0  0999 V3000
M  V30 BEGIN CTAB
M  V30 COUNTS 121 123 0 0 0
M  V30 BEGIN ATOM
M  V30 1 C 2.472554 -2.666576 1.808870 0
M  V30 2 C 3.583721 -1.776656 1.488718 0
M  V30 3 O 4.390753 -2.521496 0.866903 0
M  V30 4 N 4.626323 -0.905002 1.198581 0
M  V30 5 C 5.885937 -1.080102 0.513768 0
M  V30 6 C 6.808644 -0.224473 1.372470 0
M  V30 7 C 5.941920 1.013319 1.569920 0
M  V30 8 C 4.511109 0.454809 1.642082 0 CFG=1
M  V30 9 C 3.683115 1.335339 0.824985 0
M  V30 10 O 3.617174 2.435805 1.429012 0
M  V30 11 N 3.016500 1.122175 -0.431612 0
M  V30 12 C 2.284245 2.292063 -0.887188 0 CFG=1
M  V30 13 C 2.838615 2.843076 -2.175487 0
M  V30 14 C 2.114447 4.056758 -2.692566 0
M  V30 15 C 2.730361 4.556421 -3.993112 0
M  V30 16 C 2.164771 5.220369 -1.739695 0
M  V30 17 C 0.872723 1.869572 -1.059456 0
M  V30 18 O -0.035027 2.751038 -1.245025 0
M  V30 19 N 0.404058 0.514573 -1.041086 0
M  V30 20 C -1.046840 0.254106 -1.223477 0 CFG=1
M  V30 21 C -1.198226 -0.138976 -2.652943 0
M  V30 22 C -2.544280 -0.453705 -3.126674 0
M  V30 23 C -3.197859 -1.664822 -3.177219 0
M  V30 24 N -4.436602 -1.582758 -3.705657 0
M  V30 25 C -4.577623 -0.263777 -4.003339 0
M  V30 26 N -3.447794 0.426990 -3.660616 0
M  V30 27 C -3.342680 1.829275 -3.876185 0
M  V30 28 C -3.876552 2.607815 -2.652073 0
M  V30 29 C -3.709539 4.039902 -2.962970 0
M  V30 30 C -4.116425 5.069418 -1.979153 0
M  V30 31 C -3.408477 5.202921 -0.701985 0
M  V30 32 C -3.349784 4.073623 0.248035 0
M  V30 33 O -2.669450 4.498002 1.468252 0
M  V30 34 N -2.493422 3.523365 2.419613 0
M  V30 35 C -1.340367 3.065345 2.752680 0
M  V30 36 C -1.015522 2.050953 3.727842 0
M  V30 37 C -2.115487 1.520573 4.376536 0
M  V30 38 C -1.867936 0.531970 5.336000 0
M  V30 39 C -0.549197 0.132534 5.590701 0
M  V30 40 C 0.510510 0.701563 4.907176 0
M  V30 41 C 0.283564 1.686958 3.949309 0
M  V30 42 C -1.347163 -0.792392 -0.229390 0
M  V30 43 O -0.160013 -0.888581 0.246065 0
M  V30 44 N -2.417394 -1.594911 0.267469 0
M  V30 45 C -2.091475 -2.518492 1.328399 0 CFG=1
M  V30 46 C -3.001144 -2.431810 2.525408 0
M  V30 47 O -2.516256 -3.399574 3.439055 0
M  V30 48 C -2.270947 -3.886271 0.723297 0
M  V30 49 O -2.538946 -3.021100 -0.186021 0
M  V30 50 N -2.234263 -5.277855 0.847953 0
M  V30 51 C -2.570578 -6.103971 -0.303648 0 CFG=2
M  V30 52 C -3.665424 -7.044600 0.048911 0
M  V30 53 N -4.085861 -7.883842 -1.008532 0
M  V30 54 O -4.543604 -7.652825 0.694828 0
M  V30 55 C -1.381127 -6.905923 -0.760547 0 CFG=1
M  V30 56 C -1.770478 -7.613223 -2.056779 0
M  V30 57 O -0.305963 -6.067197 -1.100374 0
M  V30 58 P 1.001577 -6.605516 -0.134258 0
M  V30 59 O 2.327064 -6.205560 -0.715571 0
M  V30 60 O 0.984921 -8.302868 -0.040022 0
M  V30 61 O 0.773973 -6.009430 1.429649 0
M  V30 62 H 1.600439 -2.117354 2.271925 0
M  V30 63 H 2.749262 -3.447341 2.564126 0
M  V30 64 H 2.045998 -3.214349 0.940811 0
M  V30 65 H 6.223173 -2.134973 0.714311 0
M  V30 66 H 5.887546 -0.797112 -0.539002 0
M  V30 67 H 6.981903 -0.717055 2.338365 0
M  V30 68 H 7.694886 -0.046491 0.752936 0
M  V30 69 H 6.218872 1.598001 2.445640 0
M  V30 70 H 6.068271 1.585522 0.602715 0
M  V30 71 H 4.270159 0.448546 2.721612 0
M  V30 72 H 3.178797 0.164876 -0.791629 0
M  V30 73 H 2.277180 3.118906 -0.164764 0
M  V30 74 H 3.935437 3.023390 -2.116162 0
M  V30 75 H 2.748415 2.070428 -2.968288 0
M  V30 76 H 1.058820 3.819102 -2.899627 0
M  V30 77 H 2.512051 3.910448 -4.855124 0
M  V30 78 H 2.245635 5.532530 -4.206649 0
M  V30 79 H 3.807741 4.753270 -3.856193 0
M  V30 80 H 3.237129 5.438173 -1.454265 0
M  V30 81 H 1.610597 5.080601 -0.804841 0
M  V30 82 H 1.768318 6.105270 -2.254522 0
M  V30 83 H 1.174386 -0.157188 -0.897186 0
M  V30 84 H -1.546457 1.226333 -1.002034 0
M  V30 85 H -0.734652 0.700737 -3.254212 0
M  V30 86 H -0.472285 -0.983719 -2.830538 0
M  V30 87 H -2.820481 -2.623458 -2.851113 0
M  V30 88 H -5.516228 0.069493 -4.455800 0
M  V30 89 H -3.972112 2.158161 -4.726557 0
M  V30 90 H -2.320717 2.175553 -4.120838 0
M  V30 91 H -4.993533 2.411475 -2.642283 0
M  V30 92 H -3.510488 2.205241 -1.737311 0
M  V30 93 H -2.606987 4.172605 -3.241444 0
M  V30 94 H -4.227049 4.229592 -3.956523 0
M  V30 95 H -5.248053 4.948503 -1.778746 0
M  V30 96 H -4.087122 6.101386 -2.476486 0
M  V30 97 H -3.720155 6.167676 -0.154889 0
M  V30 98 H -2.323607 5.454521 -0.938240 0
M  V30 99 H -4.321057 3.669147 0.467999 0
M  V30 100 H -2.597332 3.324019 -0.156704 0
M  V30 101 H -0.525962 3.547317 2.192059 0
M  V30 102 H -3.142623 1.833632 4.177072 0
M  V30 103 H -2.688511 0.066266 5.891532 0
M  V30 104 H -0.297503 -0.624009 6.317970 0
M  V30 105 H 1.551263 0.440986 5.052868 0
M  V30 106 H 1.113469 2.150779 3.396360 0
M  V30 107 H -3.218122 -1.273903 -0.310423 0
M  V30 108 H -1.051356 -2.388576 1.686703 0
M  V30 109 H -4.062713 -2.658876 2.284240 0
M  V30 110 H -2.881853 -1.457770 3.062257 0
M  V30 111 H -1.539864 -3.432271 3.448586 0
M  V30 112 H -1.947567 -5.309572 1.830428 0
M  V30 113 H -2.866313 -5.433333 -1.125577 0
M  V30 114 H -4.508906 -8.274526 -1.874473 0
M  V30 115 H -4.430634 -8.430157 -1.816589 0
M  V30 116 H -1.090682 -7.633762 0.004607 0
M  V30 117 H -2.572257 -7.087955 -2.603949 0
M  V30 118 H -2.027056 -8.661526 -1.868024 0
M  V30 119 H -0.894413 -7.641423 -2.755971 0
M  V30 120 H 0.877905 -8.603556 0.889721 0
M  V30 121 H 0.182665 -6.647461 1.891923 0
M  V30 END ATOM
M  V30 BEGIN BOND
M  V30 1 1 1 2
M  V30 2 2 2 3
M  V30 3 1 2 4
M  V30 4 1 4 5
M  V30 5 1 5 6
M  V30 6 1 6 7
M  V30 7 1 7 8
M  V30 8 1 8 9
M  V30 9 2 9 10
M  V30 10 1 9 11
M  V30 11 1 11 12
M  V30 12 1 12 13
M  V30 13 1 13 14
M  V30 14 1 14 15
M  V30 15 1 14 16
M  V30 16 1 12 17
M  V30 17 2 17 18
M  V30 18 1 17 19
M  V30 19 1 19 20
M  V30 20 1 20 21
M  V30 21 1 21 22
M  V30 22 2 22 23
M  V30 23 1 23 24
M  V30 24 2 24 25
M  V30 25 1 25 26
M  V30 26 1 26 27
M  V30 27 1 27 28
M  V30 28 1 28 29
M  V30 29 1 29 30
M  V30 30 1 30 31
M  V30 31 1 31 32
M  V30 32 1 32 33
M  V30 33 1 33 34
M  V30 34 2 34 35
M  V30 35 1 35 36
M  V30 36 2 36 37
M  V30 37 1 37 38
M  V30 38 2 38 39
M  V30 39 1 39 40
M  V30 40 2 40 41
M  V30 41 1 20 42
M  V30 42 2 42 43
M  V30 43 1 42 44
M  V30 44 1 44 45
M  V30 45 1 45 46
M  V30 46 1 46 47
M  V30 47 1 45 48
M  V30 48 2 48 49
M  V30 49 1 48 50
M  V30 50 1 50 51
M  V30 51 1 51 52
M  V30 52 1 52 53
M  V30 53 2 52 54
M  V30 54 1 51 55
M  V30 55 1 55 56
M  V30 56 1 55 57
M  V30 57 1 57 58
M  V30 58 2 58 59
M  V30 59 1 58 60
M  V30 60 1 58 61
M  V30 61 1 8 4
M  V30 62 1 26 22
M  V30 63 1 41 36
M  V30 64 1 1 62
M  V30 65 1 1 63
M  V30 66 1 1 64
M  V30 67 1 5 65
M  V30 68 1 5 66
M  V30 69 1 6 67
M  V30 70 1 6 68
M  V30 71 1 7 69
M  V30 72 1 7 70
M  V30 73 1 8 71 CFG=1
M  V30 74 1 11 72
M  V30 75 1 12 73 CFG=1
M  V30 76 1 13 74
M  V30 77 1 13 75
M  V30 78 1 14 76
M  V30 79 1 15 77
M  V30 80 1 15 78
M  V30 81 1 15 79
M  V30 82 1 16 80
M  V30 83 1 16 81
M  V30 84 1 16 82
M  V30 85 1 19 83
M  V30 86 1 20 84 CFG=1
M  V30 87 1 21 85
M  V30 88 1 21 86
M  V30 89 1 23 87
M  V30 90 1 25 88
M  V30 91 1 27 89
M  V30 92 1 27 90
M  V30 93 1 28 91
M  V30 94 1 28 92
M  V30 95 1 29 93
M  V30 96 1 29 94
M  V30 97 1 30 95
M  V30 98 1 30 96
M  V30 99 1 31 97
M  V30 100 1 31 98
M  V30 101 1 32 99
M  V30 102 1 32 100
M  V30 103 1 35 101
M  V30 104 1 37 102
M  V30 105 1 38 103
M  V30 106 1 39 104
M  V30 107 1 40 105
M  V30 108 1 41 106
M  V30 109 1 44 107
M  V30 110 1 45 108 CFG=1
M  V30 111 1 46 109
M  V30 112 1 46 110
M  V30 113 1 47 111
M  V30 114 1 50 112
M  V30 115 1 51 113 CFG=3
M  V30 116 1 53 114
M  V30 117 1 53 115
M  V30 118 1 55 116 CFG=1
M  V30 119 1 56 117
M  V30 120 1 56 118
M  V30 121 1 56 119
M  V30 122 1 60 120
M  V30 123 1 61 121
M  V30 END BOND
M  V30 END CTAB
M  END
>  <Dataset>  (57) 
ChEMBL_Kinases

>  <Ligand_Instance>  (57) 
nan

>  <PDB_ID>  (57) 
nan

>  <Standardized_SMILES>  (57) 
CC(=O)N1CCC[C@H]1C(=O)N[C@@H](CC(C)C)C(=O)N[C@@H](Cc1cncn1CCCCCCO/N=C/c1ccccc1)C(=O)N[C@@H](CO)C(=O)N[C@H](C(N)=O)[C@@H](C)OP(=O)(O)O

>  <Name>  (57) 
nan

>  <Pocket>  (57) 
nan

>  <ATP_Site>  (57) 
nan

>  <Peripheral>  (57) 
nan

>  <Num_H_Atoms_ProtBoundConf>  (57) 
nan

>  <Num_Resolved_Atoms>  (57) 
nan

>  <Num_Not_Resolved_Atoms>  (57) 
nan

$$$$
CHEMBL3702187
     RDKit          3D

  0  0  0  0  0  0  0  0  0  0999 V3000
M  V30 BEGIN CTAB
M  V30 COUNTS 69 74 0 0 0
M  V30 BEGIN ATOM
M  V30 1 C 4.626585 -3.476357 4.873389 0
M  V30 2 N 5.305313 -3.359799 3.577379 0
M  V30 3 C 5.236264 -4.702243 3.005659 0
M  V30 4 C 4.489876 -2.521066 2.757861 0
M  V30 5 C 4.269266 -1.129821 3.309548 0
M  V30 6 C 3.106552 -0.558855 2.531697 0
M  V30 7 N 3.612581 -0.291521 1.176703 0
M  V30 8 C 2.877548 0.531731 0.276726 0
M  V30 9 C 3.266824 1.038910 -0.939019 0
M  V30 10 C 2.454892 1.815397 -1.736438 0
M  V30 11 C 1.158015 2.107682 -1.287820 0
M  V30 12 N 0.262038 2.900224 -2.100765 0
M  V30 13 C -1.028554 3.086916 -1.495974 0
M  V30 14 N -1.645376 4.157889 -0.942782 0
M  V30 15 C -2.883464 4.040766 -0.412123 0
M  V30 16 C -3.555555 2.856539 -0.410479 0
M  V30 17 C -4.770127 2.392192 0.028588 0
M  V30 18 C -5.794006 3.056061 0.665950 0
M  V30 19 C -6.916260 2.326735 0.998942 0
M  V30 20 N -6.966016 1.014887 0.693026 0
M  V30 21 C -5.967831 0.363350 0.070558 0
M  V30 22 C -4.807779 1.049809 -0.291040 0
M  V30 23 N -3.678680 0.647957 -0.909910 0
M  V30 24 C -3.327635 -0.669299 -1.390761 0 CFG=1
M  V30 25 C -3.076639 -1.586024 -0.244298 0
M  V30 26 C -3.298308 -3.036019 -0.469444 0
M  V30 27 C -3.311048 -3.357681 -1.952896 0 CFG=2
M  V30 28 O -2.136524 -2.909288 -2.523322 0
M  V30 29 C -4.519880 -2.598174 -2.464667 0
M  V30 30 C -4.285331 -1.106925 -2.415673 0
M  V30 31 C -2.921344 1.771575 -0.975120 0
M  V30 32 N -1.710443 1.931977 -1.482954 0
M  V30 33 N 0.800330 1.595635 -0.084907 0
M  V30 34 N 1.605210 0.856225 0.650864 0
M  V30 35 C 4.865050 -0.928147 0.850737 0
M  V30 36 C 4.956525 -2.356748 1.343604 0
M  V30 37 H 4.947191 -4.405076 5.422324 0
M  V30 38 H 3.551162 -3.668667 4.607415 0
M  V30 39 H 4.776519 -2.618465 5.525297 0
M  V30 40 H 5.771652 -4.772778 2.048800 0
M  V30 41 H 5.598919 -5.388604 3.786398 0
M  V30 42 H 4.157697 -4.944813 2.777558 0
M  V30 43 H 3.473095 -3.009123 2.726316 0
M  V30 44 H 3.987257 -1.114888 4.376718 0
M  V30 45 H 5.145769 -0.502198 3.079928 0
M  V30 46 H 2.252929 -1.264403 2.502983 0
M  V30 47 H 2.824893 0.392674 3.038920 0
M  V30 48 H 4.278028 0.775204 -1.223734 0
M  V30 49 H 2.792401 2.189975 -2.670023 0
M  V30 50 H 0.646284 3.237120 -3.006770 0
M  V30 51 H -3.318217 4.909524 0.008500 0
M  V30 52 H -5.684103 4.096766 0.877550 0
M  V30 53 H -7.745516 2.833523 1.504742 0
M  V30 54 H -6.067860 -0.682690 -0.142918 0
M  V30 55 H -2.324770 -0.549854 -1.901096 0
M  V30 56 H -2.020884 -1.467569 0.140871 0
M  V30 57 H -3.705074 -1.284193 0.636288 0
M  V30 58 H -4.237616 -3.420562 -0.008992 0
M  V30 59 H -2.493321 -3.657702 -0.024936 0
M  V30 60 H -3.495211 -4.429980 -2.130000 0
M  V30 61 H -1.505827 -3.669483 -2.560593 0
M  V30 62 H -4.759846 -2.972819 -3.472975 0
M  V30 63 H -5.355280 -2.881036 -1.795450 0
M  V30 64 H -3.922836 -0.860902 -3.459133 0
M  V30 65 H -5.273870 -0.622891 -2.370551 0
M  V30 66 H 4.939763 -1.012270 -0.273212 0
M  V30 67 H 5.720490 -0.294921 1.138241 0
M  V30 68 H 4.357636 -3.009935 0.649776 0
M  V30 69 H 6.005312 -2.689231 1.215242 0
M  V30 END ATOM
M  V30 BEGIN BOND
M  V30 1 1 1 2
M  V30 2 1 2 3
M  V30 3 1 2 4
M  V30 4 1 4 5
M  V30 5 1 5 6
M  V30 6 1 6 7
M  V30 7 1 7 8
M  V30 8 2 8 9
M  V30 9 1 9 10
M  V30 10 2 10 11
M  V30 11 1 11 12
M  V30 12 1 12 13
M  V30 13 2 13 14
M  V30 14 1 14 15
M  V30 15 2 15 16
M  V30 16 1 16 17
M  V30 17 2 17 18
M  V30 18 1 18 19
M  V30 19 2 19 20
M  V30 20 1 20 21
M  V30 21 2 21 22
M  V30 22 1 22 23
M  V30 23 1 23 24
M  V30 24 1 24 25
M  V30 25 1 25 26
M  V30 26 1 26 27
M  V30 27 1 27 28
M  V30 28 1 27 29
M  V30 29 1 29 30
M  V30 30 1 23 31
M  V30 31 2 31 32
M  V30 32 1 11 33
M  V30 33 2 33 34
M  V30 34 1 7 35
M  V30 35 1 35 36
M  V30 36 1 36 4
M  V30 37 1 34 8
M  V30 38 1 32 13
M  V30 39 1 31 16
M  V30 40 1 22 17
M  V30 41 1 30 24
M  V30 42 1 1 37
M  V30 43 1 1 38
M  V30 44 1 1 39
M  V30 45 1 3 40
M  V30 46 1 3 41
M  V30 47 1 3 42
M  V30 48 1 4 43
M  V30 49 1 5 44
M  V30 50 1 5 45
M  V30 51 1 6 46
M  V30 52 1 6 47
M  V30 53 1 9 48
M  V30 54 1 10 49
M  V30 55 1 12 50
M  V30 56 1 15 51
M  V30 57 1 18 52
M  V30 58 1 19 53
M  V30 59 1 21 54
M  V30 60 1 24 55 CFG=3
M  V30 61 1 25 56
M  V30 62 1 25 57
M  V30 63 1 26 58
M  V30 64 1 26 59
M  V30 65 1 27 60 CFG=1
M  V30 66 1 28 61
M  V30 67 1 29 62
M  V30 68 1 29 63
M  V30 69 1 30 64
M  V30 70 1 30 65
M  V30 71 1 35 66
M  V30 72 1 35 67
M  V30 73 1 36 68
M  V30 74 1 36 69
M  V30 END BOND
M  V30 END CTAB
M  END
>  <Dataset>  (58) 
ChEMBL_Kinases

>  <Ligand_Instance>  (58) 
nan

>  <PDB_ID>  (58) 
nan

>  <Standardized_SMILES>  (58) 
CN(C)C1CCN(c2ccc(Nc3ncc4c5ccncc5n([C@H]5CC[C@H](O)CC5)c4n3)nn2)CC1

>  <Name>  (58) 
nan

>  <Pocket>  (58) 
nan

>  <ATP_Site>  (58) 
nan

>  <Peripheral>  (58) 
nan

>  <Num_H_Atoms_ProtBoundConf>  (58) 
nan

>  <Num_Resolved_Atoms>  (58) 
nan

>  <Num_Not_Resolved_Atoms>  (58) 
nan

$$$$
CHEMBL3923888
     RDKit          3D

  0  0  0  0  0  0  0  0  0  0999 V3000
M  V30 BEGIN CTAB
M  V30 COUNTS 52 55 0 0 0
M  V30 BEGIN ATOM
M  V30 1 C -1.885595 -8.290324 -1.346978 0
M  V30 2 O -1.548383 -8.638755 -0.041720 0
M  V30 3 C -1.061980 -7.785464 0.936565 0
M  V30 4 C -0.831294 -6.434602 0.770147 0
M  V30 5 C -0.352391 -5.591720 1.732575 0
M  V30 6 C -0.182417 -4.194534 1.347273 0
M  V30 7 C -0.329717 -3.154833 2.258492 0
M  V30 8 C -0.165555 -1.826972 1.873683 0
M  V30 9 C 0.149352 -1.548109 0.560338 0
M  V30 10 C 0.374645 -0.364970 -0.128497 0
M  V30 11 C 0.330071 0.990962 0.411891 0
M  V30 12 C 0.560520 2.055952 -0.330436 0
M  V30 13 C 0.531219 3.429640 0.147856 0
M  V30 14 C 0.258110 3.757188 1.436179 0
M  V30 15 C 0.254069 5.083906 1.790189 0
M  V30 16 C 0.513198 6.132566 0.912609 0
M  V30 17 O 0.506272 7.466650 1.281284 0
M  V30 18 C 0.238120 7.912738 2.576646 0
M  V30 19 C 0.787640 5.778583 -0.388093 0
M  V30 20 O 1.048188 6.790160 -1.281278 0
M  V30 21 C 1.347515 6.635599 -2.640803 0
M  V30 22 C 0.792142 4.445781 -0.745919 0
M  V30 23 N 0.651693 -0.680858 -1.425802 0
M  V30 24 N 0.608021 -1.999545 -1.569022 0
M  V30 25 C 0.303850 -2.558917 -0.375039 0
M  V30 26 C 0.133649 -3.868541 0.040841 0
M  V30 27 C -0.075296 -6.129820 2.972862 0
M  V30 28 C -0.298905 -7.479300 3.160686 0
M  V30 29 C -0.783138 -8.321484 2.181148 0
M  V30 30 O -0.972966 -9.674213 2.479164 0
M  V30 31 H -1.741345 -9.182414 -2.015272 0
M  V30 32 H -2.948330 -7.946149 -1.375709 0
M  V30 33 H -1.266714 -7.469989 -1.770236 0
M  V30 34 H -1.078949 -6.093734 -0.245958 0
M  V30 35 H -0.578507 -3.383951 3.293940 0
M  V30 36 H -0.282587 -1.008333 2.594997 0
M  V30 37 H 0.100764 1.129488 1.455489 0
M  V30 38 H 0.781841 1.826916 -1.364240 0
M  V30 39 H 0.048236 3.029858 2.177973 0
M  V30 40 H 0.033561 5.342814 2.827359 0
M  V30 41 H 1.104708 8.018541 3.229028 0
M  V30 42 H -0.522287 7.285232 3.110119 0
M  V30 43 H -0.187665 8.947479 2.473630 0
M  V30 44 H 1.838540 5.676330 -2.885765 0
M  V30 45 H 0.443113 6.729562 -3.291917 0
M  V30 46 H 2.017959 7.471509 -2.986008 0
M  V30 47 H 1.012208 4.172297 -1.786312 0
M  V30 48 H 0.781565 -2.517284 -2.462917 0
M  V30 49 H 0.267297 -4.620563 -0.736729 0
M  V30 50 H 0.302995 -5.451421 3.724186 0
M  V30 51 H -0.068585 -7.878905 4.159556 0
M  V30 52 H -1.594118 -9.910590 3.261634 0
M  V30 END ATOM
M  V30 BEGIN BOND
M  V30 1 1 1 2
M  V30 2 1 2 3
M  V30 3 2 3 4
M  V30 4 1 4 5
M  V30 5 1 5 6
M  V30 6 2 6 7
M  V30 7 1 7 8
M  V30 8 2 8 9
M  V30 9 1 9 10
M  V30 10 1 10 11
M  V30 11 2 11 12
M  V30 12 1 12 13
M  V30 13 2 13 14
M  V30 14 1 14 15
M  V30 15 2 15 16
M  V30 16 1 16 17
M  V30 17 1 17 18
M  V30 18 1 16 19
M  V30 19 1 19 20
M  V30 20 1 20 21
M  V30 21 2 19 22
M  V30 22 2 10 23
M  V30 23 1 23 24
M  V30 24 1 24 25
M  V30 25 2 25 26
M  V30 26 2 5 27
M  V30 27 1 27 28
M  V30 28 2 28 29
M  V30 29 1 29 30
M  V30 30 1 29 3
M  V30 31 1 26 6
M  V30 32 1 25 9
M  V30 33 1 22 13
M  V30 34 1 1 31
M  V30 35 1 1 32
M  V30 36 1 1 33
M  V30 37 1 4 34
M  V30 38 1 7 35
M  V30 39 1 8 36
M  V30 40 1 11 37
M  V30 41 1 12 38
M  V30 42 1 14 39
M  V30 43 1 15 40
M  V30 44 1 18 41
M  V30 45 1 18 42
M  V30 46 1 18 43
M  V30 47 1 21 44
M  V30 48 1 21 45
M  V30 49 1 21 46
M  V30 50 1 22 47
M  V30 51 1 24 48
M  V30 52 1 26 49
M  V30 53 1 27 50
M  V30 54 1 28 51
M  V30 55 1 30 52
M  V30 END BOND
M  V30 END CTAB
M  END
>  <Dataset>  (59) 
ChEMBL_Kinases

>  <Ligand_Instance>  (59) 
nan

>  <PDB_ID>  (59) 
nan

>  <Standardized_SMILES>  (59) 
COc1cc(-c2ccc3c(/C=C/c4ccc(OC)c(OC)c4)n[nH]c3c2)ccc1O

>  <Name>  (59) 
nan

>  <Pocket>  (59) 
nan

>  <ATP_Site>  (59) 
nan

>  <Peripheral>  (59) 
nan

>  <Num_H_Atoms_ProtBoundConf>  (59) 
nan

>  <Num_Resolved_Atoms>  (59) 
nan

>  <Num_Not_Resolved_Atoms>  (59) 
nan

$$$$
CHEMBL4876389
     RDKit          3D

  0  0  0  0  0  0  0  0  0  0999 V3000
M  V30 BEGIN CTAB
M  V30 COUNTS 43 45 0 0 0
M  V30 BEGIN ATOM
M  V30 1 N -0.197076 -6.500356 4.952702 0
M  V30 2 C -0.630167 -5.853583 4.099487 0
M  V30 3 C -1.166892 -5.055038 3.013189 0
M  V30 4 C -0.561001 -3.855019 2.714629 0
M  V30 5 C -1.076103 -3.101962 1.681751 0
M  V30 6 C -2.150272 -3.457341 0.925200 0
M  V30 7 N -2.708785 -2.713062 -0.142298 0
M  V30 8 C -2.294217 -1.471069 -0.651935 0
M  V30 9 N -2.936299 -0.896450 -1.675279 0
M  V30 10 C -2.603604 0.280297 -2.214903 0
M  V30 11 C -1.536065 0.992791 -1.723659 0
M  V30 12 C -1.106279 2.296020 -2.263350 0
M  V30 13 F -1.982499 2.601823 -3.312786 0
M  V30 14 F 0.147565 2.211169 -2.866950 0
M  V30 15 F -1.162585 3.325031 -1.365055 0
M  V30 16 C -0.854291 0.429165 -0.670804 0
M  V30 17 N 0.284113 1.075828 -0.064877 0
M  V30 18 C 0.973257 0.466527 1.028079 0
M  V30 19 C 2.137595 1.294810 1.526606 0 CFG=1
M  V30 20 C 2.887026 0.588737 2.615165 0
M  V30 21 N 3.984531 1.394673 3.065113 0
M  V30 22 C 4.745768 1.958427 1.984702 0
M  V30 23 C 4.319562 1.277184 0.710011 0
M  V30 24 O 2.989177 1.407449 0.405218 0
M  V30 25 N -1.273274 -0.754635 -0.207557 0
M  V30 26 C -2.690647 -4.665909 1.291835 0
M  V30 27 N -2.227745 -5.428065 2.282021 0
M  V30 28 H 0.281036 -3.558941 3.294987 0
M  V30 29 H -0.567992 -2.180306 1.492827 0
M  V30 30 H -3.552020 -3.156563 -0.616868 0
M  V30 31 H -3.173941 0.683851 -3.046367 0
M  V30 32 H 0.576876 2.002696 -0.460912 0
M  V30 33 H 1.425657 -0.489309 0.649192 0
M  V30 34 H 0.290347 0.281091 1.864648 0
M  V30 35 H 1.854067 2.297285 1.857724 0
M  V30 36 H 2.220977 0.374430 3.476533 0
M  V30 37 H 3.297756 -0.375221 2.237735 0
M  V30 38 H 3.680221 2.162437 3.698936 0
M  V30 39 H 5.841238 1.787874 2.081372 0
M  V30 40 H 4.486015 3.028396 1.874442 0
M  V30 41 H 4.680407 0.221080 0.665621 0
M  V30 42 H 4.875297 1.802736 -0.116999 0
M  V30 43 H -3.551767 -5.108360 0.799664 0
M  V30 END ATOM
M  V30 BEGIN BOND
M  V30 1 3 1 2
M  V30 2 1 2 3
M  V30 3 2 3 4
M  V30 4 1 4 5
M  V30 5 2 5 6
M  V30 6 1 6 7
M  V30 7 1 7 8
M  V30 8 2 8 9
M  V30 9 1 9 10
M  V30 10 2 10 11
M  V30 11 1 11 12
M  V30 12 1 12 13
M  V30 13 1 12 14
M  V30 14 1 12 15
M  V30 15 1 11 16
M  V30 16 1 16 17
M  V30 17 1 17 18
M  V30 18 1 18 19
M  V30 19 1 19 20
M  V30 20 1 20 21
M  V30 21 1 21 22
M  V30 22 1 22 23
M  V30 23 1 23 24
M  V30 24 2 16 25
M  V30 25 1 6 26
M  V30 26 2 26 27
M  V30 27 1 27 3
M  V30 28 1 25 8
M  V30 29 1 24 19
M  V30 30 1 4 28
M  V30 31 1 5 29
M  V30 32 1 7 30
M  V30 33 1 10 31
M  V30 34 1 17 32
M  V30 35 1 18 33
M  V30 36 1 18 34
M  V30 37 1 19 35 CFG=1
M  V30 38 1 20 36
M  V30 39 1 20 37
M  V30 40 1 21 38
M  V30 41 1 22 39
M  V30 42 1 22 40
M  V30 43 1 23 41
M  V30 44 1 23 42
M  V30 45 1 26 43
M  V30 END BOND
M  V30 END CTAB
M  END
>  <Dataset>  (60) 
ChEMBL_Kinases

>  <Ligand_Instance>  (60) 
nan

>  <PDB_ID>  (60) 
nan

>  <Standardized_SMILES>  (60) 
N#Cc1ccc(Nc2ncc(C(F)(F)F)c(NC[C@H]3CNCCO3)n2)cn1

>  <Name>  (60) 
nan

>  <Pocket>  (60) 
nan

>  <ATP_Site>  (60) 
nan

>  <Peripheral>  (60) 
nan

>  <Num_H_Atoms_ProtBoundConf>  (60) 
nan

>  <Num_Resolved_Atoms>  (60) 
nan

>  <Num_Not_Resolved_Atoms>  (60) 
nan

$$$$
CHEMBL3923758
     RDKit          3D

  0  0  0  0  0  0  0  0  0  0999 V3000
M  V30 BEGIN CTAB
M  V30 COUNTS 65 68 0 0 0
M  V30 BEGIN ATOM
M  V30 1 C 1.753573 -1.201959 4.379676 0
M  V30 2 C 1.956390 0.085123 5.143498 0
M  V30 3 C 1.399528 1.274698 4.404444 0
M  V30 4 C 2.078350 1.440370 3.063425 0
M  V30 5 N 1.565995 2.553626 2.350220 0
M  V30 6 C 0.239046 2.477109 1.865947 0
M  V30 7 C 0.180762 2.215337 0.397718 0
M  V30 8 N 1.390430 1.527267 -0.038941 0
M  V30 9 C 1.796314 0.228048 -0.451554 0
M  V30 10 O 3.049691 0.159792 -0.744249 0
M  V30 11 N 0.998854 -0.958622 -0.569845 0
M  V30 12 C -0.440185 -1.081831 -0.291161 0
M  V30 13 C -0.638766 -2.547502 -0.440404 0
M  V30 14 C -1.660449 -3.472229 -0.287422 0
M  V30 15 N -3.042165 -3.291602 0.088114 0
M  V30 16 C -3.731987 -3.148240 -1.154081 0
M  V30 17 O -2.935286 -3.226775 -2.122091 0
M  V30 18 C -5.202422 -2.939393 -1.202463 0
M  V30 19 C -5.654556 -2.874886 -2.519780 0
M  V30 20 C -6.977078 -2.684815 -2.862896 0
M  V30 21 C -7.875305 -2.555193 -1.801027 0
M  V30 22 C -7.379666 -2.626066 -0.517961 0
M  V30 23 N -6.084192 -2.812450 -0.225715 0
M  V30 24 N -1.098815 -4.650090 -0.584474 0
M  V30 25 N 0.191867 -4.464375 -0.902928 0
M  V30 26 C 0.497282 -3.176019 -0.821291 0
M  V30 27 C 1.598530 -2.206119 -0.996781 0
M  V30 28 C 1.920390 -2.177692 -2.490927 0
M  V30 29 C 2.801741 -2.581792 -0.176634 0
M  V30 30 C 2.352683 2.621646 0.030111 0 CFG=1
M  V30 31 C 2.022581 3.699258 -1.003386 0
M  V30 32 C 2.435110 3.187050 1.427430 0
M  V30 33 H 0.696179 -1.242048 4.022086 0
M  V30 34 H 1.910272 -2.083032 5.036892 0
M  V30 35 H 2.484945 -1.259874 3.548548 0
M  V30 36 H 3.046801 0.239811 5.254196 0
M  V30 37 H 1.533247 0.005061 6.157488 0
M  V30 38 H 0.313738 1.265827 4.338227 0
M  V30 39 H 1.669761 2.191953 5.006970 0
M  V30 40 H 2.029387 0.477498 2.482474 0
M  V30 41 H 3.179759 1.629622 3.203791 0
M  V30 42 H -0.410488 1.764741 2.421597 0
M  V30 43 H -0.236701 3.478519 2.067167 0
M  V30 44 H -0.667982 1.523907 0.177108 0
M  V30 45 H 0.000468 3.174742 -0.126760 0
M  V30 46 H -1.063177 -0.511176 -0.986040 0
M  V30 47 H -0.675367 -0.748969 0.743843 0
M  V30 48 H -3.561665 -3.253293 0.993014 0
M  V30 49 H -5.016603 -2.966447 -3.414081 0
M  V30 50 H -7.343256 -2.632995 -3.872957 0
M  V30 51 H -8.925308 -2.404037 -2.032153 0
M  V30 52 H -8.044178 -2.529466 0.328445 0
M  V30 53 H 0.804467 -5.262081 -1.165992 0
M  V30 54 H 0.977854 -2.081299 -3.048465 0
M  V30 55 H 2.661746 -1.389170 -2.722018 0
M  V30 56 H 2.327261 -3.193896 -2.732766 0
M  V30 57 H 2.900070 -3.700619 -0.176675 0
M  V30 58 H 3.708484 -2.220655 -0.744389 0
M  V30 59 H 2.761669 -2.231429 0.851835 0
M  V30 60 H 3.340239 2.205590 -0.225496 0
M  V30 61 H 1.272538 3.272917 -1.723677 0
M  V30 62 H 1.652706 4.633507 -0.529788 0
M  V30 63 H 2.904521 3.960777 -1.617157 0
M  V30 64 H 3.467834 3.231655 1.804938 0
M  V30 65 H 2.111469 4.254876 1.340010 0
M  V30 END ATOM
M  V30 BEGIN BOND
M  V30 1 1 1 2
M  V30 2 1 2 3
M  V30 3 1 3 4
M  V30 4 1 4 5
M  V30 5 1 5 6
M  V30 6 1 6 7
M  V30 7 1 7 8
M  V30 8 1 8 9
M  V30 9 2 9 10
M  V30 10 1 9 11
M  V30 11 1 11 12
M  V30 12 1 12 13
M  V30 13 1 13 14
M  V30 14 1 14 15
M  V30 15 1 15 16
M  V30 16 2 16 17
M  V30 17 1 16 18
M  V30 18 2 18 19
M  V30 19 1 19 20
M  V30 20 2 20 21
M  V30 21 1 21 22
M  V30 22 2 22 23
M  V30 23 2 14 24
M  V30 24 1 24 25
M  V30 25 1 25 26
M  V30 26 1 26 27
M  V30 27 1 27 28
M  V30 28 1 27 29
M  V30 29 1 8 30
M  V30 30 1 30 31
M  V30 31 1 30 32
M  V30 32 1 32 5
M  V30 33 1 27 11
M  V30 34 2 26 13
M  V30 35 1 23 18
M  V30 36 1 1 33
M  V30 37 1 1 34
M  V30 38 1 1 35
M  V30 39 1 2 36
M  V30 40 1 2 37
M  V30 41 1 3 38
M  V30 42 1 3 39
M  V30 43 1 4 40
M  V30 44 1 4 41
M  V30 45 1 6 42
M  V30 46 1 6 43
M  V30 47 1 7 44
M  V30 48 1 7 45
M  V30 49 1 12 46
M  V30 50 1 12 47
M  V30 51 1 15 48
M  V30 52 1 19 49
M  V30 53 1 20 50
M  V30 54 1 21 51
M  V30 55 1 22 52
M  V30 56 1 25 53
M  V30 57 1 28 54
M  V30 58 1 28 55
M  V30 59 1 28 56
M  V30 60 1 29 57
M  V30 61 1 29 58
M  V30 62 1 29 59
M  V30 63 1 30 60 CFG=3
M  V30 64 1 31 61
M  V30 65 1 31 62
M  V30 66 1 31 63
M  V30 67 1 32 64
M  V30 68 1 32 65
M  V30 END BOND
M  V30 END CTAB
M  END
>  <Dataset>  (61) 
ChEMBL_Kinases

>  <Ligand_Instance>  (61) 
nan

>  <PDB_ID>  (61) 
nan

>  <Standardized_SMILES>  (61) 
CCCCN1CCN(C(=O)N2Cc3c(NC(=O)c4ccccn4)n[nH]c3C2(C)C)[C@@H](C)C1

>  <Name>  (61) 
nan

>  <Pocket>  (61) 
nan

>  <ATP_Site>  (61) 
nan

>  <Peripheral>  (61) 
nan

>  <Num_H_Atoms_ProtBoundConf>  (61) 
nan

>  <Num_Resolved_Atoms>  (61) 
nan

>  <Num_Not_Resolved_Atoms>  (61) 
nan

$$$$
CHEMBL392374
     RDKit          3D

  0  0  0  0  0  0  0  0  0  0999 V3000
M  V30 BEGIN CTAB
M  V30 COUNTS 75 79 0 0 0
M  V30 BEGIN ATOM
M  V30 1 C 4.395156 -2.868631 4.667760 0
M  V30 2 C 3.872918 -1.464216 4.470381 0 CFG=2
M  V30 3 N 2.948725 -1.478440 3.375024 0
M  V30 4 C 2.287764 -0.285959 2.971921 0
M  V30 5 N 2.540650 0.859746 3.648466 0
M  V30 6 C 1.923792 1.993036 3.279920 0
M  V30 7 C 1.021401 2.039497 2.214820 0
M  V30 8 C 0.782352 0.856239 1.542319 0
M  V30 9 C -0.161374 0.920956 0.433293 0
M  V30 10 C 0.148622 1.734551 -0.635674 0
M  V30 11 C 1.228516 2.630015 -1.029357 0
M  V30 12 C 2.494195 2.111455 -1.214003 0
M  V30 13 C 3.500764 2.988399 -1.588537 0
M  V30 14 C 3.214410 4.339500 -1.764641 0
M  V30 15 F 4.234935 5.142123 -2.128989 0
M  V30 16 C 1.926339 4.798833 -1.564650 0
M  V30 17 C 0.900042 3.970676 -1.194415 0
M  V30 18 N -0.882638 1.611078 -1.516266 0
M  V30 19 C -1.792682 0.757935 -1.015242 0
M  V30 20 C -3.004918 0.256346 -1.439940 0
M  V30 21 C -3.768486 -0.650581 -0.693404 0
M  V30 22 C -5.036122 -1.065043 -1.318151 0
M  V30 23 N -4.896205 -2.225289 -2.189850 0
M  V30 24 C -6.190391 -2.532398 -2.802269 0
M  V30 25 C -4.432390 -3.389617 -1.456635 0 CFG=1
M  V30 26 C -5.418727 -3.883378 -0.457841 0
M  V30 27 C -3.932843 -4.402197 -2.408330 0
M  V30 28 O -3.652219 -5.391451 -1.640492 0
M  V30 29 N -3.743878 -4.438370 -3.839535 0
M  V30 30 C -4.011393 -3.383847 -4.830693 0
M  V30 31 C -3.213042 -5.714938 -4.315816 0
M  V30 32 C -3.224487 -1.019957 0.517753 0
M  V30 33 C -2.014489 -0.532039 0.963673 0
M  V30 34 N -1.346436 0.336148 0.181966 0
M  V30 35 N 1.433180 -0.242791 1.962866 0
M  V30 36 C 4.962447 -0.478647 4.298622 0
M  V30 37 C 5.552057 -0.449147 3.043309 0
M  V30 38 C 6.575962 0.447325 2.814020 0
M  V30 39 C 6.989446 1.290626 3.832192 0
M  V30 40 C 6.420259 1.289165 5.106330 0
M  V30 41 C 5.384439 0.371734 5.314021 0
M  V30 42 H 5.273637 -2.912817 5.342411 0
M  V30 43 H 3.581890 -3.419883 5.226515 0
M  V30 44 H 4.541849 -3.436695 3.749108 0
M  V30 45 H 3.316302 -1.188418 5.388841 0
M  V30 46 H 2.728708 -2.350612 2.839419 0
M  V30 47 H 2.187846 2.865686 3.880643 0
M  V30 48 H 0.569804 2.984217 1.982709 0
M  V30 49 H 2.695731 1.058983 -1.072028 0
M  V30 50 H 4.482071 2.585034 -1.731427 0
M  V30 51 H 1.726325 5.844537 -1.705735 0
M  V30 52 H -0.129350 4.312278 -1.030127 0
M  V30 53 H -3.335798 0.614414 -2.404789 0
M  V30 54 H -5.436582 -0.243589 -1.943638 0
M  V30 55 H -5.800379 -1.320331 -0.554137 0
M  V30 56 H -6.302147 -1.982219 -3.744349 0
M  V30 57 H -6.223874 -3.610627 -2.970171 0
M  V30 58 H -7.027386 -2.231852 -2.153397 0
M  V30 59 H -3.534112 -3.053928 -0.879029 0
M  V30 60 H -6.377098 -4.088691 -0.982975 0
M  V30 61 H -5.570073 -3.132197 0.334786 0
M  V30 62 H -5.014883 -4.787573 0.041417 0
M  V30 63 H -5.016123 -3.555317 -5.229471 0
M  V30 64 H -3.306366 -3.571274 -5.668983 0
M  V30 65 H -3.823306 -2.380761 -4.436168 0
M  V30 66 H -3.800736 -6.514337 -3.792186 0
M  V30 67 H -2.129272 -5.774739 -4.118172 0
M  V30 68 H -3.468287 -5.786832 -5.388472 0
M  V30 69 H -3.814911 -1.710953 1.082322 0
M  V30 70 H -1.630341 -0.846673 1.911317 0
M  V30 71 H 5.232558 -1.103231 2.249960 0
M  V30 72 H 7.080123 0.529192 1.870953 0
M  V30 73 H 7.801647 2.002934 3.652590 0
M  V30 74 H 6.766843 1.956339 5.868036 0
M  V30 75 H 4.896156 0.320372 6.291146 0
M  V30 END ATOM
M  V30 BEGIN BOND
M  V30 1 1 1 2
M  V30 2 1 2 3
M  V30 3 1 3 4
M  V30 4 2 4 5
M  V30 5 1 5 6
M  V30 6 2 6 7
M  V30 7 1 7 8
M  V30 8 1 8 9
M  V30 9 2 9 10
M  V30 10 1 10 11
M  V30 11 2 11 12
M  V30 12 1 12 13
M  V30 13 2 13 14
M  V30 14 1 14 15
M  V30 15 1 14 16
M  V30 16 2 16 17
M  V30 17 1 10 18
M  V30 18 2 18 19
M  V30 19 1 19 20
M  V30 20 2 20 21
M  V30 21 1 21 22
M  V30 22 1 22 23
M  V30 23 1 23 24
M  V30 24 1 23 25
M  V30 25 1 25 26
M  V30 26 1 25 27
M  V30 27 2 27 28
M  V30 28 1 27 29
M  V30 29 1 29 30
M  V30 30 1 29 31
M  V30 31 1 21 32
M  V30 32 2 32 33
M  V30 33 1 33 34
M  V30 34 2 8 35
M  V30 35 1 2 36
M  V30 36 2 36 37
M  V30 37 1 37 38
M  V30 38 2 38 39
M  V30 39 1 39 40
M  V30 40 2 40 41
M  V30 41 1 35 4
M  V30 42 1 41 36
M  V30 43 1 34 9
M  V30 44 1 17 11
M  V30 45 1 34 19
M  V30 46 1 1 42
M  V30 47 1 1 43
M  V30 48 1 1 44
M  V30 49 1 2 45 CFG=1
M  V30 50 1 3 46
M  V30 51 1 6 47
M  V30 52 1 7 48
M  V30 53 1 12 49
M  V30 54 1 13 50
M  V30 55 1 16 51
M  V30 56 1 17 52
M  V30 57 1 20 53
M  V30 58 1 22 54
M  V30 59 1 22 55
M  V30 60 1 24 56
M  V30 61 1 24 57
M  V30 62 1 24 58
M  V30 63 1 25 59 CFG=1
M  V30 64 1 26 60
M  V30 65 1 26 61
M  V30 66 1 26 62
M  V30 67 1 30 63
M  V30 68 1 30 64
M  V30 69 1 30 65
M  V30 70 1 31 66
M  V30 71 1 31 67
M  V30 72 1 31 68
M  V30 73 1 32 69
M  V30 74 1 33 70
M  V30 75 1 37 71
M  V30 76 1 38 72
M  V30 77 1 39 73
M  V30 78 1 40 74
M  V30 79 1 41 75
M  V30 END BOND
M  V30 END CTAB
M  END
>  <Dataset>  (62) 
ChEMBL_Kinases

>  <Ligand_Instance>  (62) 
nan

>  <PDB_ID>  (62) 
nan

>  <Standardized_SMILES>  (62) 
C[C@H](Nc1nccc(-c2c(-c3ccc(F)cc3)nc3cc(CN(C)[C@@H](C)C(=O)N(C)C)ccn23)n1)c1ccccc1

>  <Name>  (62) 
nan

>  <Pocket>  (62) 
nan

>  <ATP_Site>  (62) 
nan

>  <Peripheral>  (62) 
nan

>  <Num_H_Atoms_ProtBoundConf>  (62) 
nan

>  <Num_Resolved_Atoms>  (62) 
nan

>  <Num_Not_Resolved_Atoms>  (62) 
nan

$$$$
CHEMBL3923712
     RDKit          3D

  0  0  0  0  0  0  0  0  0  0999 V3000
M  V30 BEGIN CTAB
M  V30 COUNTS 50 54 0 0 0
M  V30 BEGIN ATOM
M  V30 1 N 8.619486 -1.223120 2.033545 0
M  V30 2 C 8.043202 -2.054062 1.034002 0
M  V30 3 O 8.764661 -2.964077 0.562078 0
M  V30 4 C 6.674000 -1.848186 0.585529 0
M  V30 5 C 6.144953 -2.669645 -0.383947 0
M  V30 6 C 4.852643 -2.521312 -0.847882 0
M  V30 7 C 4.085308 -1.507489 -0.305308 0
M  V30 8 N 2.814010 -1.107257 -0.536986 0
M  V30 9 C 2.533040 -0.054644 0.263794 0
M  V30 10 C 1.268435 0.683394 0.333678 0
M  V30 11 C 1.078071 1.751646 1.190007 0
M  V30 12 C -0.109017 2.457197 1.266849 0
M  V30 13 C -1.153959 2.069788 0.443321 0
M  V30 14 S -2.714432 2.871416 0.433118 0
M  V30 15 O -3.291066 2.862448 -0.947246 0
M  V30 16 O -2.511811 4.288467 0.842888 0
M  V30 17 N -3.788833 2.133730 1.580775 0
M  V30 18 C -4.131532 0.757131 1.399906 0
M  V30 19 C -4.073672 0.020475 2.572705 0
M  V30 20 C -4.384946 -1.322204 2.517150 0
M  V30 21 C -4.751252 -1.948878 1.328024 0
M  V30 22 C -5.067392 -3.272830 1.224804 0
M  V30 23 C -5.425426 -3.858377 0.030756 0
M  V30 24 C -5.470829 -3.092586 -1.110828 0
M  V30 25 C -5.160792 -1.745184 -1.067363 0
M  V30 26 C -4.801893 -1.183651 0.159545 0
M  V30 27 C -4.490919 0.158584 0.214042 0
M  V30 28 C -0.975820 1.000914 -0.419185 0
M  V30 29 C 0.225647 0.290067 -0.494085 0
M  V30 30 N 3.634511 0.196818 0.993153 0
M  V30 31 C 4.622292 -0.672097 0.680137 0
M  V30 32 C 5.931034 -0.828878 1.144173 0
M  V30 33 H 8.436237 -0.796904 2.968004 0
M  V30 34 H 8.000384 -1.056281 2.881454 0
M  V30 35 H 6.779331 -3.456308 -0.787012 0
M  V30 36 H 4.450631 -3.175379 -1.610951 0
M  V30 37 H 2.179786 -1.551829 -1.221851 0
M  V30 38 H 1.918170 2.039759 1.831461 0
M  V30 39 H -0.248274 3.279118 1.929034 0
M  V30 40 H -4.188271 2.662734 2.392387 0
M  V30 41 H -3.798318 0.434949 3.533320 0
M  V30 42 H -4.373002 -1.990392 3.367598 0
M  V30 43 H -5.020705 -3.838100 2.136792 0
M  V30 44 H -5.666382 -4.913786 0.006699 0
M  V30 45 H -5.753869 -3.586815 -2.017862 0
M  V30 46 H -5.196419 -1.135730 -1.973212 0
M  V30 47 H -4.511000 0.807049 -0.655980 0
M  V30 48 H -1.767783 0.666706 -1.079207 0
M  V30 49 H 0.378147 -0.541891 -1.159039 0
M  V30 50 H 6.295155 -0.155937 1.906480 0
M  V30 END ATOM
M  V30 BEGIN BOND
M  V30 1 1 1 2
M  V30 2 2 2 3
M  V30 3 1 2 4
M  V30 4 2 4 5
M  V30 5 1 5 6
M  V30 6 2 6 7
M  V30 7 1 7 8
M  V30 8 1 8 9
M  V30 9 1 9 10
M  V30 10 2 10 11
M  V30 11 1 11 12
M  V30 12 2 12 13
M  V30 13 1 13 14
M  V30 14 2 14 15
M  V30 15 2 14 16
M  V30 16 1 14 17
M  V30 17 1 17 18
M  V30 18 2 18 19
M  V30 19 1 19 20
M  V30 20 2 20 21
M  V30 21 1 21 22
M  V30 22 2 22 23
M  V30 23 1 23 24
M  V30 24 2 24 25
M  V30 25 1 25 26
M  V30 26 2 26 27
M  V30 27 1 13 28
M  V30 28 2 28 29
M  V30 29 2 9 30
M  V30 30 1 30 31
M  V30 31 2 31 32
M  V30 32 1 32 4
M  V30 33 1 31 7
M  V30 34 1 29 10
M  V30 35 1 27 18
M  V30 36 1 26 21
M  V30 37 1 1 33
M  V30 38 1 1 34
M  V30 39 1 5 35
M  V30 40 1 6 36
M  V30 41 1 8 37
M  V30 42 1 11 38
M  V30 43 1 12 39
M  V30 44 1 17 40
M  V30 45 1 19 41
M  V30 46 1 20 42
M  V30 47 1 22 43
M  V30 48 1 23 44
M  V30 49 1 24 45
M  V30 50 1 25 46
M  V30 51 1 27 47
M  V30 52 1 28 48
M  V30 53 1 29 49
M  V30 54 1 32 50
M  V30 END BOND
M  V30 END CTAB
M  END
>  <Dataset>  (63) 
ChEMBL_Kinases

>  <Ligand_Instance>  (63) 
nan

>  <PDB_ID>  (63) 
nan

>  <Standardized_SMILES>  (63) 
NC(=O)c1ccc2[nH]c(-c3ccc(S(=O)(=O)Nc4ccc5ccccc5c4)cc3)nc2c1

>  <Name>  (63) 
nan

>  <Pocket>  (63) 
nan

>  <ATP_Site>  (63) 
nan

>  <Peripheral>  (63) 
nan

>  <Num_H_Atoms_ProtBoundConf>  (63) 
nan

>  <Num_Resolved_Atoms>  (63) 
nan

>  <Num_Not_Resolved_Atoms>  (63) 
nan

$$$$
CHEMBL3923667
     RDKit          3D

  0  0  0  0  0  0  0  0  0  0999 V3000
M  V30 BEGIN CTAB
M  V30 COUNTS 49 52 0 0 0
M  V30 BEGIN ATOM
M  V30 1 C -1.812356 -2.492320 2.902438 0
M  V30 2 C -0.456988 -2.425191 2.259384 0 CFG=1
M  V30 3 O 0.408470 -1.920149 3.241872 0
M  V30 4 C 1.053458 -0.726933 3.277168 0
M  V30 5 C 1.828454 -0.609567 4.438395 0
M  V30 6 C 2.578639 0.551844 4.674377 0
M  V30 7 C 2.483368 1.519345 3.697760 0
M  V30 8 N 3.072528 2.707303 3.710349 0
M  V30 9 N 2.740856 3.369993 2.638104 0
M  V30 10 C 1.911530 2.670234 1.839278 0
M  V30 11 C 1.259870 3.035256 0.598495 0
M  V30 12 C 0.635690 2.823060 -0.511172 0
M  V30 13 C 0.136812 1.694942 -1.286382 0
M  V30 14 C 0.345901 0.310600 -1.231745 0
M  V30 15 N -0.423958 -0.288430 -2.153885 0
M  V30 16 N -1.120121 0.612086 -2.806649 0
M  V30 17 C -2.052939 0.349395 -3.871713 0
M  V30 18 C -3.462171 0.116857 -3.402329 0
M  V30 19 O -4.271875 -0.127255 -4.534725 0
M  V30 20 C -0.793392 1.789043 -2.298678 0
M  V30 21 C 1.755043 1.493718 2.530838 0
M  V30 22 C 1.056688 0.319910 2.393768 0
M  V30 23 C 0.010632 -3.683191 1.668002 0
M  V30 24 C -0.211399 -4.197797 0.410293 0
M  V30 25 Cl -1.212354 -3.196065 -0.617191 0
M  V30 26 C 0.312373 -5.406801 0.006431 0
M  V30 27 N 1.072644 -6.139364 0.843117 0
M  V30 28 C 1.322158 -5.675993 2.097263 0
M  V30 29 C 0.804041 -4.462635 2.520723 0
M  V30 30 Cl 1.267971 -4.094211 4.168500 0
M  V30 31 H -2.658311 -2.536166 2.205616 0
M  V30 32 H -1.932660 -1.515725 3.443059 0
M  V30 33 H -1.862700 -3.242004 3.720076 0
M  V30 34 H -0.515797 -1.678765 1.444468 0
M  V30 35 H 1.918666 -1.367167 5.227602 0
M  V30 36 H 3.177979 0.683621 5.538724 0
M  V30 37 H 3.711596 3.267144 4.306796 0
M  V30 38 H 1.350463 4.150680 0.655366 0
M  V30 39 H 0.423158 3.779840 -1.054082 0
M  V30 40 H 1.027766 -0.183831 -0.573570 0
M  V30 41 H -2.023721 1.154386 -4.629686 0
M  V30 42 H -1.727962 -0.575191 -4.434787 0
M  V30 43 H -3.577271 -0.763646 -2.770617 0
M  V30 44 H -3.814782 1.022794 -2.867998 0
M  V30 45 H -4.332229 -1.096677 -4.725990 0
M  V30 46 H -1.216953 2.697798 -2.641703 0
M  V30 47 H 0.431475 0.190864 1.560614 0
M  V30 48 H 0.040183 -5.666131 -1.018931 0
M  V30 49 H 1.934426 -6.346952 2.658556 0
M  V30 END ATOM
M  V30 BEGIN BOND
M  V30 1 1 1 2
M  V30 2 1 2 3
M  V30 3 1 3 4
M  V30 4 2 4 5
M  V30 5 1 5 6
M  V30 6 2 6 7
M  V30 7 1 7 8
M  V30 8 1 8 9
M  V30 9 2 9 10
M  V30 10 1 10 11
M  V30 11 2 11 12 CFG=2
M  V30 12 1 12 13
M  V30 13 1 13 14
M  V30 14 2 14 15
M  V30 15 1 15 16
M  V30 16 1 16 17
M  V30 17 1 17 18
M  V30 18 1 18 19
M  V30 19 1 16 20
M  V30 20 1 10 21
M  V30 21 2 21 22
M  V30 22 1 2 23
M  V30 23 2 23 24
M  V30 24 1 24 25
M  V30 25 1 24 26
M  V30 26 2 26 27
M  V30 27 1 27 28
M  V30 28 2 28 29
M  V30 29 1 29 30
M  V30 30 1 22 4
M  V30 31 1 29 23
M  V30 32 1 21 7
M  V30 33 2 20 13
M  V30 34 1 1 31
M  V30 35 1 1 32
M  V30 36 1 1 33
M  V30 37 1 2 34 CFG=3
M  V30 38 1 5 35
M  V30 39 1 6 36
M  V30 40 1 8 37
M  V30 41 1 11 38
M  V30 42 1 12 39
M  V30 43 1 14 40
M  V30 44 1 17 41
M  V30 45 1 17 42
M  V30 46 1 18 43
M  V30 47 1 18 44
M  V30 48 1 19 45
M  V30 49 1 20 46
M  V30 50 1 22 47
M  V30 51 1 26 48
M  V30 52 1 28 49
M  V30 END BOND
M  V30 END CTAB
M  END
>  <Dataset>  (64) 
ChEMBL_Kinases

>  <Ligand_Instance>  (64) 
nan

>  <PDB_ID>  (64) 
nan

>  <Standardized_SMILES>  (64) 
C[C@@H](Oc1ccc2[nH]nc(C=Cc3cnn(CCO)c3)c2c1)c1c(Cl)cncc1Cl

>  <Name>  (64) 
nan

>  <Pocket>  (64) 
nan

>  <ATP_Site>  (64) 
nan

>  <Peripheral>  (64) 
nan

>  <Num_H_Atoms_ProtBoundConf>  (64) 
nan

>  <Num_Resolved_Atoms>  (64) 
nan

>  <Num_Not_Resolved_Atoms>  (64) 
nan

$$$$
CHEMBL487640
     RDKit          3D

  0  0  0  0  0  0  0  0  0  0999 V3000
M  V30 BEGIN CTAB
M  V30 COUNTS 48 49 0 0 0
M  V30 BEGIN ATOM
M  V30 1 C 2.530172 -4.178983 3.048027 0
M  V30 2 C 2.581390 -3.675334 1.629134 0
M  V30 3 C 1.583780 -4.394114 0.743326 0
M  V30 4 C 3.978370 -3.824713 1.066725 0
M  V30 5 C 2.248459 -2.235594 1.663596 0
M  V30 6 O 1.963110 -1.370537 2.518099 0
M  V30 7 O 2.131308 -1.286048 0.666014 0
M  V30 8 C 1.798657 0.056668 0.928036 0
M  V30 9 C 1.761537 0.790890 -0.386126 0
M  V30 10 C 3.080017 0.852222 -1.060672 0
M  V30 11 O 3.519744 -0.405526 -1.466740 0
M  V30 12 C 1.156450 2.149416 -0.079668 0
M  V30 13 C -0.269398 1.689875 0.117086 0
M  V30 14 C -1.300629 2.180699 0.776441 0
M  V30 15 C -2.655557 1.722243 0.943914 0
M  V30 16 C -3.095238 1.668516 2.258072 0
M  V30 17 C -4.375468 1.280794 2.629089 0
M  V30 18 C -5.231631 0.937388 1.619815 0
M  V30 19 C -4.861452 0.968348 0.295278 0
M  V30 20 C -5.746689 0.609516 -0.849887 0
M  V30 21 F -6.447237 1.746139 -1.194385 0
M  V30 22 F -6.617434 -0.393498 -0.532032 0
M  V30 23 F -4.981445 0.196823 -1.932399 0
M  V30 24 C -3.569618 1.364787 -0.001882 0
M  V30 25 C -0.423467 0.386867 -0.572156 0
M  V30 26 O -1.404280 -0.424692 -0.544246 0
M  V30 27 O 0.791879 0.246403 -1.281322 0
M  V30 28 H 3.347748 -3.687519 3.618902 0
M  V30 29 H 1.580332 -3.837334 3.492207 0
M  V30 30 H 2.631081 -5.288780 3.021233 0
M  V30 31 H 2.075146 -4.682630 -0.202038 0
M  V30 32 H 0.687569 -3.784562 0.571349 0
M  V30 33 H 1.226685 -5.322180 1.260436 0
M  V30 34 H 4.036945 -3.172781 0.154487 0
M  V30 35 H 4.677835 -3.343336 1.808163 0
M  V30 36 H 4.243020 -4.864349 0.881119 0
M  V30 37 H 0.792176 0.059937 1.427164 0
M  V30 38 H 2.496183 0.523249 1.638615 0
M  V30 39 H 3.838893 1.189685 -0.292137 0
M  V30 40 H 3.116270 1.576769 -1.894113 0
M  V30 41 H 2.752592 -0.959222 -1.757585 0
M  V30 42 H 1.584324 2.583454 0.829314 0
M  V30 43 H 1.226250 2.837824 -0.949283 0
M  V30 44 H -1.062281 3.125841 1.291800 0
M  V30 45 H -2.454202 1.932008 3.108407 0
M  V30 46 H -4.697051 1.246661 3.670216 0
M  V30 47 H -6.244093 0.626162 1.851474 0
M  V30 48 H -3.256727 1.415333 -1.036142 0
M  V30 END ATOM
M  V30 BEGIN BOND
M  V30 1 1 1 2
M  V30 2 1 2 3
M  V30 3 1 2 4
M  V30 4 1 2 5
M  V30 5 2 5 6
M  V30 6 1 5 7
M  V30 7 1 7 8
M  V30 8 1 8 9
M  V30 9 1 9 10
M  V30 10 1 10 11
M  V30 11 1 9 12
M  V30 12 1 12 13
M  V30 13 2 13 14
M  V30 14 1 14 15
M  V30 15 2 15 16
M  V30 16 1 16 17
M  V30 17 2 17 18
M  V30 18 1 18 19
M  V30 19 1 19 20
M  V30 20 1 20 21
M  V30 21 1 20 22
M  V30 22 1 20 23
M  V30 23 2 19 24
M  V30 24 1 13 25
M  V30 25 2 25 26
M  V30 26 1 25 27
M  V30 27 1 27 9
M  V30 28 1 24 15
M  V30 29 1 1 28
M  V30 30 1 1 29
M  V30 31 1 1 30
M  V30 32 1 3 31
M  V30 33 1 3 32
M  V30 34 1 3 33
M  V30 35 1 4 34
M  V30 36 1 4 35
M  V30 37 1 4 36
M  V30 38 1 8 37
M  V30 39 1 8 38
M  V30 40 1 10 39
M  V30 41 1 10 40
M  V30 42 1 11 41
M  V30 43 1 12 42
M  V30 44 1 12 43
M  V30 45 1 14 44
M  V30 46 1 16 45
M  V30 47 1 17 46
M  V30 48 1 18 47
M  V30 49 1 24 48
M  V30 END BOND
M  V30 END CTAB
M  END
>  <Dataset>  (65) 
ChEMBL_Kinases

>  <Ligand_Instance>  (65) 
nan

>  <PDB_ID>  (65) 
nan

>  <Standardized_SMILES>  (65) 
CC(C)(C)C(=O)OCC1(CO)C/C(=C/c2cccc(C(F)(F)F)c2)C(=O)O1

>  <Name>  (65) 
nan

>  <Pocket>  (65) 
nan

>  <ATP_Site>  (65) 
nan

>  <Peripheral>  (65) 
nan

>  <Num_H_Atoms_ProtBoundConf>  (65) 
nan

>  <Num_Resolved_Atoms>  (65) 
nan

>  <Num_Not_Resolved_Atoms>  (65) 
nan

$$$$
CHEMBL3702184
     RDKit          3D

  0  0  0  0  0  0  0  0  0  0999 V3000
M  V30 BEGIN CTAB
M  V30 COUNTS 75 80 0 0 0
M  V30 BEGIN ATOM
M  V30 1 C 7.969584 -1.012811 5.408805 0
M  V30 2 C 6.645082 -1.657090 4.996810 0
M  V30 3 N 5.921086 -0.960636 4.021995 0
M  V30 4 C 5.421656 0.274885 4.445896 0
M  V30 5 C 4.335800 0.042895 5.487607 0
M  V30 6 C 6.315333 -1.203755 2.705070 0
M  V30 7 C 6.087185 -2.632588 2.319773 0
M  V30 8 C 5.070732 -2.906562 1.274582 0
M  V30 9 N 4.631693 -1.768242 0.506814 0
M  V30 10 C 3.347566 -1.441297 0.012191 0
M  V30 11 C 2.222616 -2.072557 0.581465 0
M  V30 12 C 1.047807 -1.645476 0.005100 0
M  V30 13 C 0.829389 -0.736520 -0.995163 0
M  V30 14 N -0.400831 -0.310339 -1.539388 0
M  V30 15 C -1.705778 -0.712437 -1.156367 0
M  V30 16 N -2.015801 -1.580656 -0.180099 0
M  V30 17 C -3.249211 -1.932025 0.169067 0
M  V30 18 C -4.284595 -1.379734 -0.503892 0
M  V30 19 C -5.656046 -1.514058 -0.410488 0
M  V30 20 C -6.374782 -2.308173 0.463477 0
M  V30 21 C -7.750967 -2.281384 0.372513 0
M  V30 22 N -8.308886 -1.489340 -0.554327 0
M  V30 23 C -7.593907 -0.715265 -1.404511 0
M  V30 24 O -8.224262 0.085489 -2.344259 0
M  V30 25 C -9.633265 0.074468 -2.389387 0
M  V30 26 C -6.204747 -0.675377 -1.389341 0
M  V30 27 N -5.202562 -0.058375 -2.048788 0
M  V30 28 C -5.408886 0.877956 -3.132703 0
M  V30 29 C -4.422190 1.995229 -3.195658 0
M  V30 30 C -4.382298 2.418959 -4.644852 0
M  V30 31 C -4.671690 1.139724 -5.404046 0
M  V30 32 C -5.160976 0.120064 -4.412519 0
M  V30 33 C -4.028720 -0.480768 -1.517078 0
M  V30 34 N -2.771653 -0.202563 -1.781694 0
M  V30 35 N 1.994115 -0.194373 -1.467229 0
M  V30 36 N 3.155814 -0.555934 -0.962479 0
M  V30 37 C 5.786416 -0.907476 0.334180 0
M  V30 38 C 5.864166 -0.187447 1.692997 0
M  V30 39 H 8.363321 -1.706623 6.206988 0
M  V30 40 H 7.847360 -0.047947 5.902109 0
M  V30 41 H 8.610377 -0.968985 4.519959 0
M  V30 42 H 6.971264 -2.674578 4.637949 0
M  V30 43 H 6.049334 -1.909719 5.923230 0
M  V30 44 H 6.211791 0.959340 4.888878 0
M  V30 45 H 4.934521 0.923282 3.688122 0
M  V30 46 H 4.667205 -0.510163 6.362638 0
M  V30 47 H 3.858086 1.013027 5.726219 0
M  V30 48 H 3.538383 -0.579379 4.994075 0
M  V30 49 H 7.456435 -1.088200 2.694151 0
M  V30 50 H 5.715348 -3.197689 3.236253 0
M  V30 51 H 7.035504 -3.168136 2.065731 0
M  V30 52 H 5.474799 -3.632365 0.531751 0
M  V30 53 H 4.147145 -3.436781 1.662352 0
M  V30 54 H 2.249532 -2.801019 1.372812 0
M  V30 55 H 0.150707 -2.123328 0.436832 0
M  V30 56 H -0.334142 0.391962 -2.328595 0
M  V30 57 H -3.367735 -2.658864 0.990492 0
M  V30 58 H -5.913004 -2.926576 1.186267 0
M  V30 59 H -8.309523 -2.904347 1.052392 0
M  V30 60 H -10.037719 0.533157 -3.313563 0
M  V30 61 H -10.042864 0.558365 -1.464799 0
M  V30 62 H -10.044820 -0.962364 -2.369965 0
M  V30 63 H -6.432637 1.311194 -3.107112 0
M  V30 64 H -4.873019 2.857117 -2.639662 0
M  V30 65 H -3.444217 1.828128 -2.764950 0
M  V30 66 H -5.149060 3.173377 -4.893172 0
M  V30 67 H -3.405311 2.856170 -4.930213 0
M  V30 68 H -3.750152 0.773907 -5.912538 0
M  V30 69 H -5.415844 1.318981 -6.225172 0
M  V30 70 H -6.103287 -0.331978 -4.807067 0
M  V30 71 H -4.370182 -0.650509 -4.298372 0
M  V30 72 H 6.711524 -1.452520 0.121241 0
M  V30 73 H 5.581347 -0.144422 -0.471453 0
M  V30 74 H 4.818225 0.148430 1.870361 0
M  V30 75 H 6.563437 0.642528 1.592602 0
M  V30 END ATOM
M  V30 BEGIN BOND
M  V30 1 1 1 2
M  V30 2 1 2 3
M  V30 3 1 3 4
M  V30 4 1 4 5
M  V30 5 1 3 6
M  V30 6 1 6 7
M  V30 7 1 7 8
M  V30 8 1 8 9
M  V30 9 1 9 10
M  V30 10 2 10 11
M  V30 11 1 11 12
M  V30 12 2 12 13
M  V30 13 1 13 14
M  V30 14 1 14 15
M  V30 15 2 15 16
M  V30 16 1 16 17
M  V30 17 2 17 18
M  V30 18 1 18 19
M  V30 19 2 19 20
M  V30 20 1 20 21
M  V30 21 2 21 22
M  V30 22 1 22 23
M  V30 23 1 23 24
M  V30 24 1 24 25
M  V30 25 2 23 26
M  V30 26 1 26 27
M  V30 27 1 27 28
M  V30 28 1 28 29
M  V30 29 1 29 30
M  V30 30 1 30 31
M  V30 31 1 31 32
M  V30 32 1 27 33
M  V30 33 2 33 34
M  V30 34 1 13 35
M  V30 35 2 35 36
M  V30 36 1 9 37
M  V30 37 1 37 38
M  V30 38 1 38 6
M  V30 39 1 36 10
M  V30 40 1 34 15
M  V30 41 1 33 18
M  V30 42 1 26 19
M  V30 43 1 32 28
M  V30 44 1 1 39
M  V30 45 1 1 40
M  V30 46 1 1 41
M  V30 47 1 2 42
M  V30 48 1 2 43
M  V30 49 1 4 44
M  V30 50 1 4 45
M  V30 51 1 5 46
M  V30 52 1 5 47
M  V30 53 1 5 48
M  V30 54 1 6 49
M  V30 55 1 7 50
M  V30 56 1 7 51
M  V30 57 1 8 52
M  V30 58 1 8 53
M  V30 59 1 11 54
M  V30 60 1 12 55
M  V30 61 1 14 56
M  V30 62 1 17 57
M  V30 63 1 20 58
M  V30 64 1 21 59
M  V30 65 1 25 60
M  V30 66 1 25 61
M  V30 67 1 25 62
M  V30 68 1 28 63
M  V30 69 1 29 64
M  V30 70 1 29 65
M  V30 71 1 30 66
M  V30 72 1 30 67
M  V30 73 1 31 68
M  V30 74 1 31 69
M  V30 75 1 32 70
M  V30 76 1 32 71
M  V30 77 1 37 72
M  V30 78 1 37 73
M  V30 79 1 38 74
M  V30 80 1 38 75
M  V30 END BOND
M  V30 END CTAB
M  END
>  <Dataset>  (66) 
ChEMBL_Kinases

>  <Ligand_Instance>  (66) 
nan

>  <PDB_ID>  (66) 
nan

>  <Standardized_SMILES>  (66) 
CCN(CC)C1CCN(c2ccc(Nc3ncc4c5ccnc(OC)c5n(C5CCCC5)c4n3)nn2)CC1

>  <Name>  (66) 
nan

>  <Pocket>  (66) 
nan

>  <ATP_Site>  (66) 
nan

>  <Peripheral>  (66) 
nan

>  <Num_H_Atoms_ProtBoundConf>  (66) 
nan

>  <Num_Resolved_Atoms>  (66) 
nan

>  <Num_Not_Resolved_Atoms>  (66) 
nan

$$$$
CHEMBL3923496
     RDKit          3D

  0  0  0  0  0  0  0  0  0  0999 V3000
M  V30 BEGIN CTAB
M  V30 COUNTS 43 46 0 0 0
M  V30 BEGIN ATOM
M  V30 1 C -2.271907 -7.294077 0.410563 0
M  V30 2 C -1.195219 -6.543874 -0.251154 0
M  V30 3 C -0.341605 -5.731677 0.466342 0
M  V30 4 C 0.666065 -5.021284 -0.105217 0
M  V30 5 O 1.570081 -4.189906 0.490139 0
M  V30 6 C 1.388410 -2.825204 0.682152 0
M  V30 7 C 0.220330 -2.216590 0.255110 0
M  V30 8 C 0.066085 -0.852691 0.459929 0
M  V30 9 C 1.088744 -0.162866 1.082619 0
M  V30 10 C 0.886405 1.273951 1.279296 0
M  V30 11 N 1.696527 2.188694 1.846786 0
M  V30 12 C 1.125229 3.407313 1.824968 0
M  V30 13 C 1.598954 4.616688 2.293748 0
M  V30 14 C 0.767691 5.704326 2.122860 0
M  V30 15 C 1.104298 7.077042 2.560463 0
M  V30 16 N 2.366480 7.218308 3.185251 0
M  V30 17 O 0.450550 8.144440 2.468383 0
M  V30 18 C -0.467803 5.595753 1.518587 0
M  V30 19 C -0.935886 4.363431 1.047821 0
M  V30 20 C -0.105547 3.276060 1.218313 0
M  V30 21 N -0.210922 1.957329 0.900917 0
M  V30 22 C 2.259419 -0.756976 1.513841 0
M  V30 23 C 2.410107 -2.132801 1.304922 0
M  V30 24 Cl 3.875956 -2.937880 1.832509 0
M  V30 25 C 0.828850 -5.132478 -1.488067 0
M  V30 26 C -0.006598 -5.935362 -2.235866 0
M  V30 27 C -1.024711 -6.648472 -1.631724 0
M  V30 28 F -1.866197 -7.449217 -2.339341 0
M  V30 29 H -2.121251 -7.308535 1.505792 0
M  V30 30 H -2.265745 -8.366833 0.077766 0
M  V30 31 H -3.285294 -6.932946 0.164524 0
M  V30 32 H -0.441859 -5.625716 1.532378 0
M  V30 33 H -0.529424 -2.823524 -0.221961 0
M  V30 34 H -0.852960 -0.394932 0.119690 0
M  V30 35 H 2.553848 4.772716 2.775435 0
M  V30 36 H 3.094915 6.574889 3.559132 0
M  V30 37 H 3.293573 7.255798 3.645353 0
M  V30 38 H -1.081587 6.466254 1.406161 0
M  V30 39 H -1.887616 4.275293 0.581377 0
M  V30 40 H -1.087613 1.611896 0.417647 0
M  V30 41 H 3.021210 -0.159691 1.994789 0
M  V30 42 H 1.568922 -4.640526 -2.077528 0
M  V30 43 H 0.052058 -6.075505 -3.305913 0
M  V30 END ATOM
M  V30 BEGIN BOND
M  V30 1 1 1 2
M  V30 2 2 2 3
M  V30 3 1 3 4
M  V30 4 1 4 5
M  V30 5 1 5 6
M  V30 6 2 6 7
M  V30 7 1 7 8
M  V30 8 2 8 9
M  V30 9 1 9 10
M  V30 10 2 10 11
M  V30 11 1 11 12
M  V30 12 2 12 13
M  V30 13 1 13 14
M  V30 14 1 14 15
M  V30 15 1 15 16
M  V30 16 2 15 17
M  V30 17 2 14 18
M  V30 18 1 18 19
M  V30 19 2 19 20
M  V30 20 1 20 21
M  V30 21 1 9 22
M  V30 22 2 22 23
M  V30 23 1 23 24
M  V30 24 2 4 25
M  V30 25 1 25 26
M  V30 26 2 26 27
M  V30 27 1 27 28
M  V30 28 1 27 2
M  V30 29 1 23 6
M  V30 30 1 21 10
M  V30 31 1 20 12
M  V30 32 1 1 29
M  V30 33 1 1 30
M  V30 34 1 1 31
M  V30 35 1 3 32
M  V30 36 1 7 33
M  V30 37 1 8 34
M  V30 38 1 13 35
M  V30 39 1 16 36
M  V30 40 1 16 37
M  V30 41 1 18 38
M  V30 42 1 19 39
M  V30 43 1 21 40
M  V30 44 1 22 41
M  V30 45 1 25 42
M  V30 46 1 26 43
M  V30 END BOND
M  V30 END CTAB
M  END
>  <Dataset>  (67) 
ChEMBL_Kinases

>  <Ligand_Instance>  (67) 
nan

>  <PDB_ID>  (67) 
nan

>  <Standardized_SMILES>  (67) 
Cc1cc(Oc2ccc(-c3nc4cc(C(N)=O)ccc4[nH]3)cc2Cl)ccc1F

>  <Name>  (67) 
nan

>  <Pocket>  (67) 
nan

>  <ATP_Site>  (67) 
nan

>  <Peripheral>  (67) 
nan

>  <Num_H_Atoms_ProtBoundConf>  (67) 
nan

>  <Num_Resolved_Atoms>  (67) 
nan

>  <Num_Not_Resolved_Atoms>  (67) 
nan

$$$$
CHEMBL3923442
     RDKit          3D

  0  0  0  0  0  0  0  0  0  0999 V3000
M  V30 BEGIN CTAB
M  V30 COUNTS 37 39 0 0 0
M  V30 BEGIN ATOM
M  V30 1 C -2.949416 -3.937509 1.483502 0
M  V30 2 C -1.735941 -4.608449 0.917835 0
M  V30 3 C -0.950757 -3.736581 -0.009546 0
M  V30 4 C -1.158337 -3.667927 -1.378073 0
M  V30 5 C -0.374379 -2.825807 -2.164321 0
M  V30 6 C 0.618414 -2.051160 -1.580841 0
M  V30 7 N 1.450398 -1.176148 -2.333013 0
M  V30 8 C 1.561497 0.038360 -1.926838 0
M  V30 9 N 2.296220 1.135381 -2.441210 0
M  V30 10 C 2.508674 2.227365 -1.585227 0
M  V30 11 O 3.156676 3.222584 -2.002438 0
M  V30 12 C 1.927233 2.053741 -0.278345 0
M  V30 13 C 2.200026 2.743073 0.842374 0
M  V30 14 C 1.476711 2.374587 2.035379 0
M  V30 15 C 1.050318 3.430129 2.795617 0
M  V30 16 C 0.338412 3.209984 3.981040 0
M  V30 17 N 0.055064 1.956837 4.403694 0
M  V30 18 C 0.459995 0.911529 3.680480 0
M  V30 19 C 1.153916 1.130010 2.525466 0
M  V30 20 S 0.741283 0.727038 -0.464127 0
M  V30 21 C 0.835110 -2.111325 -0.211163 0
M  V30 22 C 0.054255 -2.948409 0.560970 0
M  V30 23 H -3.880930 -4.449804 1.208835 0
M  V30 24 H -2.860869 -3.890797 2.601631 0
M  V30 25 H -2.989899 -2.864463 1.135075 0
M  V30 26 H -1.063291 -4.936986 1.723379 0
M  V30 27 H -2.078752 -5.540882 0.385219 0
M  V30 28 H -1.944270 -4.286805 -1.805521 0
M  V30 29 H -0.540086 -2.775208 -3.242619 0
M  V30 30 H 2.623441 1.019423 -3.453208 0
M  V30 31 H 2.931229 3.521572 0.800166 0
M  V30 32 H 1.147916 4.509834 2.691534 0
M  V30 33 H -0.062294 3.953413 4.680452 0
M  V30 34 H 0.246029 -0.099165 4.001479 0
M  V30 35 H 1.508698 0.296539 1.905577 0
M  V30 36 H 1.601785 -1.528139 0.312898 0
M  V30 37 H 0.243569 -2.982262 1.646857 0
M  V30 END ATOM
M  V30 BEGIN BOND
M  V30 1 1 1 2
M  V30 2 1 2 3
M  V30 3 2 3 4
M  V30 4 1 4 5
M  V30 5 2 5 6
M  V30 6 1 6 7
M  V30 7 2 7 8
M  V30 8 1 8 9
M  V30 9 1 9 10
M  V30 10 2 10 11
M  V30 11 1 10 12
M  V30 12 2 12 13
M  V30 13 1 13 14
M  V30 14 2 14 15
M  V30 15 1 15 16
M  V30 16 2 16 17
M  V30 17 1 17 18
M  V30 18 2 18 19
M  V30 19 1 12 20
M  V30 20 1 6 21
M  V30 21 2 21 22
M  V30 22 1 22 3
M  V30 23 1 20 8
M  V30 24 1 19 14
M  V30 25 1 1 23
M  V30 26 1 1 24
M  V30 27 1 1 25
M  V30 28 1 2 26
M  V30 29 1 2 27
M  V30 30 1 4 28
M  V30 31 1 5 29
M  V30 32 1 9 30
M  V30 33 1 13 31
M  V30 34 1 15 32
M  V30 35 1 16 33
M  V30 36 1 18 34
M  V30 37 1 19 35
M  V30 38 1 21 36
M  V30 39 1 22 37
M  V30 END BOND
M  V30 END CTAB
M  END
>  <Dataset>  (68) 
ChEMBL_Kinases

>  <Ligand_Instance>  (68) 
nan

>  <PDB_ID>  (68) 
nan

>  <Standardized_SMILES>  (68) 
CCc1ccc(/N=C2/NC(=O)/C(=C/c3ccncc3)S2)cc1

>  <Name>  (68) 
nan

>  <Pocket>  (68) 
nan

>  <ATP_Site>  (68) 
nan

>  <Peripheral>  (68) 
nan

>  <Num_H_Atoms_ProtBoundConf>  (68) 
nan

>  <Num_Resolved_Atoms>  (68) 
nan

>  <Num_Not_Resolved_Atoms>  (68) 
nan

$$$$
CHEMBL3923429
     RDKit          3D

  0  0  0  0  0  0  0  0  0  0999 V3000
M  V30 BEGIN CTAB
M  V30 COUNTS 50 54 0 0 0
M  V30 BEGIN ATOM
M  V30 1 N 7.191020 -6.721764 -0.513197 0
M  V30 2 C 5.814897 -6.407454 -0.808940 0
M  V30 3 O 5.248935 -7.464033 -1.138415 0
M  V30 4 C 5.361149 -5.026693 -0.682614 0
M  V30 5 C 6.233949 -4.033720 -0.286029 0
M  V30 6 C 5.708747 -2.759343 -0.196572 0
M  V30 7 C 4.393051 -2.448837 -0.477613 0
M  V30 8 N 3.661227 -1.309528 -0.464513 0
M  V30 9 C 2.402349 -1.612915 -0.838668 0
M  V30 10 C 1.300585 -0.654399 -0.951584 0
M  V30 11 C 1.534724 0.674046 -0.659053 0
M  V30 12 C 0.514916 1.600728 -0.756649 0
M  V30 13 C -0.749696 1.186298 -1.151715 0
M  V30 14 O -1.901446 1.931229 -1.314808 0
M  V30 15 C -2.816640 2.143289 -0.287366 0
M  V30 16 C -3.954227 2.888585 -0.477392 0
M  V30 17 C -4.820376 3.060582 0.582402 0
M  V30 18 C -4.587383 2.514295 1.820240 0
M  V30 19 C -3.458431 1.760447 2.052099 0
M  V30 20 C -2.591943 1.593204 0.977208 0
M  V30 21 C -3.034671 1.093152 3.309688 0
M  V30 22 C -4.020222 1.433099 4.388272 0
M  V30 23 C -5.417062 1.419780 3.810862 0
M  V30 24 C -5.529398 2.699085 2.979794 0
M  V30 25 C -0.964567 -0.161148 -1.442664 0
M  V30 26 C 0.053031 -1.096892 -1.347219 0
M  V30 27 N 2.334270 -2.934321 -1.087638 0
M  V30 28 C 3.559520 -3.500881 -0.874539 0
M  V30 29 C 4.014729 -4.810012 -0.987934 0
M  V30 30 H 7.534240 -6.759668 0.472773 0
M  V30 31 H 7.363024 -6.716598 0.525275 0
M  V30 32 H 7.266608 -4.261273 -0.062614 0
M  V30 33 H 6.397070 -1.985954 0.114489 0
M  V30 34 H 4.051707 -0.362109 -0.198890 0
M  V30 35 H 2.494427 1.067993 -0.345317 0
M  V30 36 H 0.563516 2.658091 -0.558936 0
M  V30 37 H -4.124445 3.307989 -1.443562 0
M  V30 38 H -5.718724 3.647121 0.438487 0
M  V30 39 H -1.664856 1.006307 1.069667 0
M  V30 40 H -2.027208 1.457165 3.630451 0
M  V30 41 H -3.013337 -0.022011 3.152099 0
M  V30 42 H -3.792965 2.483550 4.724392 0
M  V30 43 H -3.935055 0.773892 5.275500 0
M  V30 44 H -6.204439 1.346296 4.567240 0
M  V30 45 H -5.443079 0.570944 3.071714 0
M  V30 46 H -5.134827 3.554504 3.563467 0
M  V30 47 H -6.561227 2.853961 2.611564 0
M  V30 48 H -1.913979 -0.597994 -1.761295 0
M  V30 49 H -0.056464 -2.146676 -1.559129 0
M  V30 50 H 3.340497 -5.572849 -1.293552 0
M  V30 END ATOM
M  V30 BEGIN BOND
M  V30 1 1 1 2
M  V30 2 2 2 3
M  V30 3 1 2 4
M  V30 4 2 4 5
M  V30 5 1 5 6
M  V30 6 2 6 7
M  V30 7 1 7 8
M  V30 8 1 8 9
M  V30 9 1 9 10
M  V30 10 2 10 11
M  V30 11 1 11 12
M  V30 12 2 12 13
M  V30 13 1 13 14
M  V30 14 1 14 15
M  V30 15 2 15 16
M  V30 16 1 16 17
M  V30 17 2 17 18
M  V30 18 1 18 19
M  V30 19 2 19 20
M  V30 20 1 19 21
M  V30 21 1 21 22
M  V30 22 1 22 23
M  V30 23 1 23 24
M  V30 24 1 13 25
M  V30 25 2 25 26
M  V30 26 2 9 27
M  V30 27 1 27 28
M  V30 28 2 28 29
M  V30 29 1 29 4
M  V30 30 1 28 7
M  V30 31 1 26 10
M  V30 32 1 20 15
M  V30 33 1 24 18
M  V30 34 1 1 30
M  V30 35 1 1 31
M  V30 36 1 5 32
M  V30 37 1 6 33
M  V30 38 1 8 34
M  V30 39 1 11 35
M  V30 40 1 12 36
M  V30 41 1 16 37
M  V30 42 1 17 38
M  V30 43 1 20 39
M  V30 44 1 21 40
M  V30 45 1 21 41
M  V30 46 1 22 42
M  V30 47 1 22 43
M  V30 48 1 23 44
M  V30 49 1 23 45
M  V30 50 1 24 46
M  V30 51 1 24 47
M  V30 52 1 25 48
M  V30 53 1 26 49
M  V30 54 1 29 50
M  V30 END BOND
M  V30 END CTAB
M  END
>  <Dataset>  (69) 
ChEMBL_Kinases

>  <Ligand_Instance>  (69) 
nan

>  <PDB_ID>  (69) 
nan

>  <Standardized_SMILES>  (69) 
NC(=O)c1ccc2[nH]c(-c3ccc(Oc4ccc5c(c4)CCCC5)cc3)nc2c1

>  <Name>  (69) 
nan

>  <Pocket>  (69) 
nan

>  <ATP_Site>  (69) 
nan

>  <Peripheral>  (69) 
nan

>  <Num_H_Atoms_ProtBoundConf>  (69) 
nan

>  <Num_Resolved_Atoms>  (69) 
nan

>  <Num_Not_Resolved_Atoms>  (69) 
nan

$$$$
CHEMBL3922219
     RDKit          3D

  0  0  0  0  0  0  0  0  0  0999 V3000
M  V30 BEGIN CTAB
M  V30 COUNTS 56 58 0 0 0
M  V30 BEGIN ATOM
M  V30 1 C -0.681583 3.372266 -0.313032 0
M  V30 2 C -2.085073 3.150528 0.147186 0 CFG=2
M  V30 3 C -2.446756 3.615104 1.447044 0
M  V30 4 C -1.793504 3.639744 2.598227 0
M  V30 5 C -0.444140 3.124437 2.772995 0
M  V30 6 O 0.157214 3.258107 3.858165 0
M  V30 7 C 0.847972 2.464236 2.497045 0 CFG=1
M  V30 8 O 1.829917 2.991639 3.358158 0
M  V30 9 C 0.691350 0.975715 2.819082 0 CFG=1
M  V30 10 O -0.435539 0.466404 2.141916 0
M  V30 11 C 1.816776 0.138742 2.201673 0
M  V30 12 C 1.536665 0.257684 0.709787 0
M  V30 13 C 1.006832 -0.849766 0.172842 0
M  V30 14 C 0.539638 -1.351098 -1.113572 0
M  V30 15 C 1.206250 -2.445665 -1.614768 0
M  V30 16 C 0.910000 -3.068950 -2.802998 0
M  V30 17 N 1.609433 -4.195767 -3.299114 0
M  V30 18 C 1.337234 -4.899867 -4.545111 0
M  V30 19 C 1.742321 -6.341990 -4.256103 0
M  V30 20 O 2.857739 -6.162548 -3.411126 0
M  V30 21 C 2.706715 -4.935992 -2.781082 0
M  V30 22 O 3.464644 -4.514780 -1.841801 0
M  V30 23 C -0.126620 -2.554788 -3.533994 0
M  V30 24 C -0.801247 -1.460159 -3.043984 0
M  V30 25 O -1.850762 -1.008057 -3.870909 0
M  V30 26 C -0.509422 -0.824003 -1.846038 0
M  V30 27 C -1.363994 0.325254 -1.550725 0
M  V30 28 O -1.547079 1.043605 -2.602715 0
M  V30 29 O -2.006866 0.812507 -0.431275 0
M  V30 30 C -2.779004 2.003174 -0.530103 0 CFG=1
M  V30 31 C -4.201341 1.843874 -0.090393 0
M  V30 32 H -0.199213 2.366340 -0.358380 0
M  V30 33 H -0.177785 4.087979 0.361978 0
M  V30 34 H -0.592259 3.853806 -1.329428 0
M  V30 35 H -2.609833 4.042540 -0.501249 0
M  V30 36 H -3.427391 4.042266 1.640247 0
M  V30 37 H -2.180422 4.035718 3.515901 0
M  V30 38 H 1.252826 2.544215 1.503953 0
M  V30 39 H 1.941933 3.942834 3.086774 0
M  V30 40 H 0.697190 0.839243 3.881648 0
M  V30 41 H -0.574220 -0.440446 2.461461 0
M  V30 42 H 1.717517 -0.878976 2.556705 0
M  V30 43 H 2.769503 0.597726 2.452010 0
M  V30 44 H 1.757152 1.148387 0.147678 0
M  V30 45 H 0.815959 -1.710761 0.847866 0
M  V30 46 H 2.035764 -2.872083 -1.047782 0
M  V30 47 H 0.283536 -4.906932 -4.831641 0
M  V30 48 H 1.999383 -4.549666 -5.376458 0
M  V30 49 H 0.936895 -6.879449 -3.692786 0
M  V30 50 H 1.951038 -6.921074 -5.156149 0
M  V30 51 H -0.377046 -3.013989 -4.453934 0
M  V30 52 H -2.787851 -1.201017 -3.516945 0
M  V30 53 H -2.784655 2.272103 -1.613610 0
M  V30 54 H -4.907642 1.736502 -0.964761 0
M  V30 55 H -4.520457 2.773331 0.426668 0
M  V30 56 H -4.347220 1.032194 0.646703 0
M  V30 END ATOM
M  V30 BEGIN BOND
M  V30 1 1 1 2
M  V30 2 1 2 3
M  V30 3 2 3 4
M  V30 4 1 4 5
M  V30 5 2 5 6
M  V30 6 1 5 7
M  V30 7 1 7 8
M  V30 8 1 7 9
M  V30 9 1 9 10
M  V30 10 1 9 11
M  V30 11 1 11 12
M  V30 12 2 12 13
M  V30 13 1 13 14
M  V30 14 2 14 15
M  V30 15 1 15 16
M  V30 16 1 16 17
M  V30 17 1 17 18
M  V30 18 1 18 19
M  V30 19 1 19 20
M  V30 20 1 20 21
M  V30 21 2 21 22
M  V30 22 2 16 23
M  V30 23 1 23 24
M  V30 24 1 24 25
M  V30 25 2 24 26
M  V30 26 1 26 27
M  V30 27 2 27 28
M  V30 28 1 27 29
M  V30 29 1 29 30
M  V30 30 1 30 31
M  V30 31 1 30 2
M  V30 32 1 26 14
M  V30 33 1 21 17
M  V30 34 1 1 32
M  V30 35 1 1 33
M  V30 36 1 1 34
M  V30 37 1 2 35 CFG=3
M  V30 38 1 3 36
M  V30 39 1 4 37
M  V30 40 1 7 38 CFG=3
M  V30 41 1 8 39
M  V30 42 1 9 40 CFG=1
M  V30 43 1 10 41
M  V30 44 1 11 42
M  V30 45 1 11 43
M  V30 46 1 12 44
M  V30 47 1 13 45
M  V30 48 1 15 46
M  V30 49 1 18 47
M  V30 50 1 18 48
M  V30 51 1 19 49
M  V30 52 1 19 50
M  V30 53 1 23 51
M  V30 54 1 25 52
M  V30 55 1 30 53 CFG=3
M  V30 56 1 31 54
M  V30 57 1 31 55
M  V30 58 1 31 56
M  V30 END BOND
M  V30 END CTAB
M  END
>  <Dataset>  (70) 
ChEMBL_Kinases

>  <Ligand_Instance>  (70) 
nan

>  <PDB_ID>  (70) 
nan

>  <Standardized_SMILES>  (70) 
C[C@@H]1/C=C\C(=O)[C@@H](O)[C@@H](O)C/C=C/c2cc(N3CCOC3=O)cc(O)c2C(=O)O[C@H]1C

>  <Name>  (70) 
nan

>  <Pocket>  (70) 
nan

>  <ATP_Site>  (70) 
nan

>  <Peripheral>  (70) 
nan

>  <Num_H_Atoms_ProtBoundConf>  (70) 
nan

>  <Num_Resolved_Atoms>  (70) 
nan

>  <Num_Not_Resolved_Atoms>  (70) 
nan

$$$$
CHEMBL487641
     RDKit          3D

  0  0  0  0  0  0  0  0  0  0999 V3000
M  V30 BEGIN CTAB
M  V30 COUNTS 51 52 0 0 0
M  V30 BEGIN ATOM
M  V30 1 C 1.648950 0.894676 4.742860 0
M  V30 2 C 2.633474 1.364205 3.701131 0
M  V30 3 C 3.954011 0.655915 4.039826 0
M  V30 4 C 2.875178 2.842629 3.944055 0
M  V30 5 C 2.235375 1.062443 2.324666 0
M  V30 6 O 2.659072 0.424152 1.329150 0
M  V30 7 O 1.078699 1.514946 1.735601 0
M  V30 8 C 0.741166 1.191611 0.396546 0
M  V30 9 C -0.559722 1.776313 -0.060582 0
M  V30 10 C -0.658642 3.251822 0.166031 0
M  V30 11 O -1.965363 3.650230 -0.151686 0
M  V30 12 C -1.676802 1.050624 0.705813 0
M  V30 13 C -1.556003 -0.293908 0.027661 0
M  V30 14 C -1.588028 -1.567253 0.359643 0
M  V30 15 C -1.440144 -2.741835 -0.488802 0
M  V30 16 C -0.465094 -2.936335 -1.444278 0
M  V30 17 C -0.427890 -4.084444 -2.219945 0
M  V30 18 C 0.636711 -4.232905 -3.222534 0
M  V30 19 F 0.082798 -4.730775 -4.391129 0
M  V30 20 F 1.510023 -5.222799 -2.778981 0
M  V30 21 F 1.278448 -3.068958 -3.518182 0
M  V30 22 C -1.392524 -5.049107 -2.023906 0
M  V30 23 C -2.397369 -4.887313 -1.063942 0
M  V30 24 C -3.400863 -5.973827 -0.934200 0
M  V30 25 F -4.472901 -5.452081 -0.233743 0
M  V30 26 F -3.782256 -6.469207 -2.163495 0
M  V30 27 F -2.862605 -6.984387 -0.176572 0
M  V30 28 C -2.403597 -3.714925 -0.298707 0
M  V30 29 C -1.399449 0.126423 -1.383620 0
M  V30 30 O -1.734875 -0.595951 -2.380637 0
M  V30 31 O -0.837258 1.416471 -1.421853 0
M  V30 32 H 2.213028 0.806528 5.710774 0
M  V30 33 H 1.342553 -0.142999 4.501233 0
M  V30 34 H 0.820590 1.574826 4.936455 0
M  V30 35 H 4.267876 0.915266 5.070505 0
M  V30 36 H 4.736836 0.860895 3.306022 0
M  V30 37 H 3.805609 -0.463900 4.047969 0
M  V30 38 H 3.958699 3.069811 3.897104 0
M  V30 39 H 2.522148 3.145648 4.961264 0
M  V30 40 H 2.314035 3.472413 3.220913 0
M  V30 41 H 0.771532 0.091128 0.224542 0
M  V30 42 H 1.568215 1.589136 -0.242466 0
M  V30 43 H 0.103087 3.792673 -0.409488 0
M  V30 44 H -0.516651 3.456204 1.247348 0
M  V30 45 H -1.912685 4.424909 -0.772465 0
M  V30 46 H -2.630772 1.541872 0.505482 0
M  V30 47 H -1.436107 0.975435 1.780668 0
M  V30 48 H -1.752653 -1.667219 1.445207 0
M  V30 49 H 0.287539 -2.171619 -1.572938 0
M  V30 50 H -1.318402 -5.926252 -2.654801 0
M  V30 51 H -3.209295 -3.687914 0.405143 0
M  V30 END ATOM
M  V30 BEGIN BOND
M  V30 1 1 1 2
M  V30 2 1 2 3
M  V30 3 1 2 4
M  V30 4 1 2 5
M  V30 5 2 5 6
M  V30 6 1 5 7
M  V30 7 1 7 8
M  V30 8 1 8 9
M  V30 9 1 9 10
M  V30 10 1 10 11
M  V30 11 1 9 12
M  V30 12 1 12 13
M  V30 13 2 13 14
M  V30 14 1 14 15
M  V30 15 2 15 16
M  V30 16 1 16 17
M  V30 17 1 17 18
M  V30 18 1 18 19
M  V30 19 1 18 20
M  V30 20 1 18 21
M  V30 21 2 17 22
M  V30 22 1 22 23
M  V30 23 1 23 24
M  V30 24 1 24 25
M  V30 25 1 24 26
M  V30 26 1 24 27
M  V30 27 2 23 28
M  V30 28 1 13 29
M  V30 29 2 29 30
M  V30 30 1 29 31
M  V30 31 1 31 9
M  V30 32 1 28 15
M  V30 33 1 1 32
M  V30 34 1 1 33
M  V30 35 1 1 34
M  V30 36 1 3 35
M  V30 37 1 3 36
M  V30 38 1 3 37
M  V30 39 1 4 38
M  V30 40 1 4 39
M  V30 41 1 4 40
M  V30 42 1 8 41
M  V30 43 1 8 42
M  V30 44 1 10 43
M  V30 45 1 10 44
M  V30 46 1 11 45
M  V30 47 1 12 46
M  V30 48 1 12 47
M  V30 49 1 14 48
M  V30 50 1 16 49
M  V30 51 1 22 50
M  V30 52 1 28 51
M  V30 END BOND
M  V30 END CTAB
M  END
>  <Dataset>  (71) 
ChEMBL_Kinases

>  <Ligand_Instance>  (71) 
nan

>  <PDB_ID>  (71) 
nan

>  <Standardized_SMILES>  (71) 
CC(C)(C)C(=O)OCC1(CO)C/C(=C/c2cc(C(F)(F)F)cc(C(F)(F)F)c2)C(=O)O1

>  <Name>  (71) 
nan

>  <Pocket>  (71) 
nan

>  <ATP_Site>  (71) 
nan

>  <Peripheral>  (71) 
nan

>  <Num_H_Atoms_ProtBoundConf>  (71) 
nan

>  <Num_Resolved_Atoms>  (71) 
nan

>  <Num_Not_Resolved_Atoms>  (71) 
nan

$$$$
CHEMBL487642
     RDKit          3D

  0  0  0  0  0  0  0  0  0  0999 V3000
M  V30 BEGIN CTAB
M  V30 COUNTS 49 50 0 0 0
M  V30 BEGIN ATOM
M  V30 1 C 4.594550 -3.292539 1.429176 0
M  V30 2 C 3.155771 -3.408546 1.832900 0
M  V30 3 C 3.078118 -4.311527 3.051901 0
M  V30 4 C 2.333632 -4.024114 0.719713 0
M  V30 5 C 2.535385 -2.095276 2.140663 0
M  V30 6 O 1.982943 -1.511417 3.134709 0
M  V30 7 O 2.443205 -1.089407 1.189453 0
M  V30 8 C 1.851457 0.172797 1.470667 0
M  V30 9 C 1.863593 1.081086 0.276924 0
M  V30 10 C 3.204995 1.506572 -0.197717 0
M  V30 11 O 3.010736 2.455696 -1.202297 0
M  V30 12 C 1.050158 2.329441 0.658151 0
M  V30 13 C -0.327447 1.719739 0.523071 0
M  V30 14 C -1.470216 1.726848 1.186416 0
M  V30 15 C -2.698946 1.043637 0.861377 0
M  V30 16 C -3.929820 1.699019 0.957941 0
M  V30 17 C -5.132366 1.041298 0.665223 0
M  V30 18 C -5.095049 -0.286639 0.272639 0
M  V30 19 O -6.247652 -0.997945 -0.032480 0
M  V30 20 C -6.751031 -1.020043 -1.355672 0
M  V30 21 F -7.049293 0.261530 -1.764594 0
M  V30 22 F -7.934606 -1.748614 -1.377461 0
M  V30 23 F -5.835781 -1.560684 -2.255639 0
M  V30 24 C -3.907961 -0.978713 0.162109 0
M  V30 25 C -2.731502 -0.298207 0.459602 0
M  V30 26 C -0.182526 0.979245 -0.753647 0
M  V30 27 O -1.164742 0.844616 -1.571634 0
M  V30 28 O 1.151344 0.521437 -0.822234 0
M  V30 29 H 5.157254 -2.829166 2.264870 0
M  V30 30 H 5.007262 -4.315024 1.332785 0
M  V30 31 H 4.775620 -2.679236 0.540434 0
M  V30 32 H 3.062816 -5.371285 2.706204 0
M  V30 33 H 3.951347 -4.171053 3.731062 0
M  V30 34 H 2.152186 -4.129558 3.632533 0
M  V30 35 H 2.636468 -3.507182 -0.224031 0
M  V30 36 H 1.272415 -3.718442 0.906198 0
M  V30 37 H 2.415562 -5.118692 0.661841 0
M  V30 38 H 2.294197 0.680126 2.343541 0
M  V30 39 H 0.789395 -0.059669 1.732253 0
M  V30 40 H 3.777891 0.634206 -0.599069 0
M  V30 41 H 3.791270 2.055270 0.590209 0
M  V30 42 H 2.363103 2.195387 -1.890044 0
M  V30 43 H 1.260717 2.657014 1.671811 0
M  V30 44 H 1.169751 3.084215 -0.134984 0
M  V30 45 H -1.389498 2.358087 2.088251 0
M  V30 46 H -3.911846 2.717448 1.263098 0
M  V30 47 H -6.088474 1.554756 0.742084 0
M  V30 48 H -3.867742 -2.022264 -0.145267 0
M  V30 49 H -1.823744 -0.881677 0.372566 0
M  V30 END ATOM
M  V30 BEGIN BOND
M  V30 1 1 1 2
M  V30 2 1 2 3
M  V30 3 1 2 4
M  V30 4 1 2 5
M  V30 5 2 5 6
M  V30 6 1 5 7
M  V30 7 1 7 8
M  V30 8 1 8 9
M  V30 9 1 9 10
M  V30 10 1 10 11
M  V30 11 1 9 12
M  V30 12 1 12 13
M  V30 13 2 13 14
M  V30 14 1 14 15
M  V30 15 2 15 16
M  V30 16 1 16 17
M  V30 17 2 17 18
M  V30 18 1 18 19
M  V30 19 1 19 20
M  V30 20 1 20 21
M  V30 21 1 20 22
M  V30 22 1 20 23
M  V30 23 1 18 24
M  V30 24 2 24 25
M  V30 25 1 13 26
M  V30 26 2 26 27
M  V30 27 1 26 28
M  V30 28 1 28 9
M  V30 29 1 25 15
M  V30 30 1 1 29
M  V30 31 1 1 30
M  V30 32 1 1 31
M  V30 33 1 3 32
M  V30 34 1 3 33
M  V30 35 1 3 34
M  V30 36 1 4 35
M  V30 37 1 4 36
M  V30 38 1 4 37
M  V30 39 1 8 38
M  V30 40 1 8 39
M  V30 41 1 10 40
M  V30 42 1 10 41
M  V30 43 1 11 42
M  V30 44 1 12 43
M  V30 45 1 12 44
M  V30 46 1 14 45
M  V30 47 1 16 46
M  V30 48 1 17 47
M  V30 49 1 24 48
M  V30 50 1 25 49
M  V30 END BOND
M  V30 END CTAB
M  END
>  <Dataset>  (72) 
ChEMBL_Kinases

>  <Ligand_Instance>  (72) 
nan

>  <PDB_ID>  (72) 
nan

>  <Standardized_SMILES>  (72) 
CC(C)(C)C(=O)OCC1(CO)C/C(=C/c2ccc(OC(F)(F)F)cc2)C(=O)O1

>  <Name>  (72) 
nan

>  <Pocket>  (72) 
nan

>  <ATP_Site>  (72) 
nan

>  <Peripheral>  (72) 
nan

>  <Num_H_Atoms_ProtBoundConf>  (72) 
nan

>  <Num_Resolved_Atoms>  (72) 
nan

>  <Num_Not_Resolved_Atoms>  (72) 
nan

$$$$
CHEMBL3923139
     RDKit          3D

  0  0  0  0  0  0  0  0  0  0999 V3000
M  V30 BEGIN CTAB
M  V30 COUNTS 55 58 0 0 0
M  V30 BEGIN ATOM
M  V30 1 O 2.835043 -1.969250 -2.144389 0
M  V30 2 C 2.446598 -1.056423 -1.348149 0
M  V30 3 O 3.514175 -0.540359 -2.092970 0
M  V30 4 C 1.308470 -1.238042 -0.378238 0 CFG=2
M  V30 5 C 1.892707 -1.024762 0.983987 0
M  V30 6 C 2.487788 0.302954 1.190074 0
M  V30 7 C 3.014485 0.442290 2.475455 0
M  V30 8 C 3.624478 1.634761 2.866428 0
M  V30 9 C 3.725500 2.701914 2.005323 0
M  V30 10 C 3.187965 2.492668 0.764869 0
M  V30 11 N 3.208265 3.492842 -0.244883 0
M  V30 12 C 2.228629 4.478031 -0.483015 0
M  V30 13 N 2.000703 5.419952 -1.247384 0
M  V30 14 C 0.903563 6.144742 -1.137393 0
M  V30 15 C -0.078366 5.879059 -0.129345 0
M  V30 16 S 0.737484 4.434851 0.689427 0
M  V30 17 N 2.600647 1.361885 0.370005 0
M  V30 18 C 0.893669 -2.685135 -0.464422 0
M  V30 19 C -0.286743 -2.757289 -1.413921 0
M  V30 20 C -1.494746 -2.130748 -0.756187 0 CFG=1
M  V30 21 O -1.855547 -2.749304 0.437016 0
M  V30 22 C -3.025350 -3.379678 0.746094 0
M  V30 23 C -4.161237 -3.583805 -0.008646 0
M  V30 24 C -5.253650 -4.256756 0.497765 0
M  V30 25 C -5.215620 -4.739229 1.788111 0
M  V30 26 C -4.092689 -4.559973 2.592500 0
M  V30 27 C -4.114697 -5.099002 3.960957 0
M  V30 28 F -5.312286 -5.727964 4.234303 0
M  V30 29 F -3.877897 -4.104066 4.915556 0
M  V30 30 F -3.043505 -5.987924 4.120138 0
M  V30 31 C -2.996879 -3.873841 2.055814 0
M  V30 32 F -1.957250 -3.757926 2.929627 0
M  V30 33 C -1.159961 -0.697496 -0.428135 0
M  V30 34 C 0.233037 -0.286957 -0.768059 0
M  V30 35 H 3.446734 0.429168 -2.393648 0
M  V30 36 H 2.634802 -1.832316 1.152185 0
M  V30 37 H 1.130551 -1.178710 1.793212 0
M  V30 38 H 3.001151 -0.328962 3.260519 0
M  V30 39 H 4.038707 1.747009 3.874565 0
M  V30 40 H 4.191967 3.645378 2.270791 0
M  V30 41 H 3.993802 3.572919 -0.918955 0
M  V30 42 H 0.889722 6.932720 -1.910845 0
M  V30 43 H -0.946743 6.560689 -0.149659 0
M  V30 44 H 0.631677 -3.042579 0.544928 0
M  V30 45 H 1.717831 -3.300466 -0.879637 0
M  V30 46 H -0.451912 -3.752890 -1.819851 0
M  V30 47 H -0.028970 -2.093967 -2.280547 0
M  V30 48 H -2.339707 -2.224247 -1.469302 0
M  V30 49 H -4.086875 -3.166434 -1.003568 0
M  V30 50 H -6.117075 -4.384074 -0.147964 0
M  V30 51 H -6.087853 -5.275890 2.190784 0
M  V30 52 H -1.838618 -0.061731 -1.069313 0
M  V30 53 H -1.432468 -0.407966 0.609402 0
M  V30 54 H 0.273735 -0.052640 -1.860184 0
M  V30 55 H 0.407844 0.694036 -0.263983 0
M  V30 END ATOM
M  V30 BEGIN BOND
M  V30 1 2 1 2
M  V30 2 1 2 3
M  V30 3 1 2 4
M  V30 4 1 4 5 CFG=1
M  V30 5 1 5 6
M  V30 6 2 6 7
M  V30 7 1 7 8
M  V30 8 2 8 9
M  V30 9 1 9 10
M  V30 10 1 10 11
M  V30 11 1 11 12
M  V30 12 2 12 13
M  V30 13 1 13 14
M  V30 14 2 14 15
M  V30 15 1 15 16
M  V30 16 2 10 17
M  V30 17 1 4 18
M  V30 18 1 18 19
M  V30 19 1 19 20
M  V30 20 1 20 21
M  V30 21 1 21 22
M  V30 22 2 22 23
M  V30 23 1 23 24
M  V30 24 2 24 25
M  V30 25 1 25 26
M  V30 26 1 26 27
M  V30 27 1 27 28
M  V30 28 1 27 29
M  V30 29 1 27 30
M  V30 30 2 26 31
M  V30 31 1 31 32
M  V30 32 1 20 33
M  V30 33 1 33 34
M  V30 34 1 34 4
M  V30 35 1 17 6
M  V30 36 1 31 22
M  V30 37 1 16 12
M  V30 38 1 3 35
M  V30 39 1 5 36
M  V30 40 1 5 37
M  V30 41 1 7 38
M  V30 42 1 8 39
M  V30 43 1 9 40
M  V30 44 1 11 41
M  V30 45 1 14 42
M  V30 46 1 15 43
M  V30 47 1 18 44
M  V30 48 1 18 45
M  V30 49 1 19 46
M  V30 50 1 19 47
M  V30 51 1 20 48 CFG=3
M  V30 52 1 23 49
M  V30 53 1 24 50
M  V30 54 1 25 51
M  V30 55 1 33 52
M  V30 56 1 33 53
M  V30 57 1 34 54
M  V30 58 1 34 55
M  V30 END BOND
M  V30 END CTAB
M  END
>  <Dataset>  (73) 
ChEMBL_Kinases

>  <Ligand_Instance>  (73) 
nan

>  <PDB_ID>  (73) 
nan

>  <Standardized_SMILES>  (73) 
O=C(O)[C@]1(Cc2cccc(Nc3nccs3)n2)CC[C@@H](Oc2cccc(C(F)(F)F)c2F)CC1

>  <Name>  (73) 
nan

>  <Pocket>  (73) 
nan

>  <ATP_Site>  (73) 
nan

>  <Peripheral>  (73) 
nan

>  <Num_H_Atoms_ProtBoundConf>  (73) 
nan

>  <Num_Resolved_Atoms>  (73) 
nan

>  <Num_Not_Resolved_Atoms>  (73) 
nan

$$$$
CHEMBL3922893
     RDKit          3D

  0  0  0  0  0  0  0  0  0  0999 V3000
M  V30 BEGIN CTAB
M  V30 COUNTS 45 47 0 0 0
M  V30 BEGIN ATOM
M  V30 1 C 0.717060 -4.873142 1.808832 0
M  V30 2 C 0.051984 -4.213216 0.639086 0
M  V30 3 C 0.297442 -2.901662 0.351998 0
M  V30 4 C -0.491711 -2.651790 -0.765941 0
M  V30 5 N -0.645547 -1.441491 -1.488622 0
M  V30 6 C 0.006071 -0.233781 -1.188730 0
M  V30 7 C -0.272084 0.914174 -1.919713 0
M  V30 8 C 0.365126 2.089918 -1.648479 0
M  V30 9 C 0.030370 3.275635 -2.470909 0
M  V30 10 C 1.274585 2.088031 -0.640383 0
M  V30 11 C 1.933658 3.363601 -0.396036 0
M  V30 12 N 2.468667 4.361846 -0.212669 0
M  V30 13 C 1.589288 0.989584 0.112262 0
M  V30 14 N 2.585886 1.023284 1.137996 0
M  V30 15 C 3.024113 -0.000390 1.998249 0
M  V30 16 C 2.311838 -0.290548 3.261050 0
M  V30 17 O 1.000944 -0.638064 3.228767 0
M  V30 18 C -0.102746 0.048920 2.846218 0
M  V30 19 C -0.975155 -1.047136 3.132566 0
M  V30 20 C -2.379253 -1.070546 2.969751 0
M  V30 21 C -2.988929 0.096202 2.478673 0
M  V30 22 C -2.114373 1.103336 2.223545 0
M  V30 23 N -0.858072 1.022325 2.405655 0
M  V30 24 N 0.925290 -0.135238 -0.207757 0
M  V30 25 N -1.143845 -3.810338 -1.067784 0
M  V30 26 N -0.824392 -4.760949 -0.226736 0
M  V30 27 H 1.755994 -5.123864 1.549151 0
M  V30 28 H 0.150731 -5.788994 2.084587 0
M  V30 29 H 0.674119 -4.167542 2.674784 0
M  V30 30 H 0.934164 -2.223374 0.855139 0
M  V30 31 H -1.305951 -1.443623 -2.327322 0
M  V30 32 H -1.012841 0.884420 -2.733680 0
M  V30 33 H -0.201353 4.163903 -1.821791 0
M  V30 34 H -0.802585 3.052984 -3.175491 0
M  V30 35 H 0.919372 3.546895 -3.093035 0
M  V30 36 H 3.061101 1.965617 1.270209 0
M  V30 37 H 4.111275 0.184645 2.300616 0
M  V30 38 H 3.107405 -0.974553 1.391443 0
M  V30 39 H 2.877686 -1.104264 3.836474 0
M  V30 40 H 2.399826 0.591450 3.988130 0
M  V30 41 H -0.875674 -2.091595 3.518050 0
M  V30 42 H -3.173301 -1.804691 3.132133 0
M  V30 43 H -4.018579 0.318388 2.276006 0
M  V30 44 H -2.397571 2.086746 1.835623 0
M  V30 45 H -1.161200 -5.754111 -0.201767 0
M  V30 END ATOM
M  V30 BEGIN BOND
M  V30 1 1 1 2
M  V30 2 2 2 3
M  V30 3 1 3 4
M  V30 4 1 4 5
M  V30 5 1 5 6
M  V30 6 2 6 7
M  V30 7 1 7 8
M  V30 8 1 8 9
M  V30 9 2 8 10
M  V30 10 1 10 11
M  V30 11 3 11 12
M  V30 12 1 10 13
M  V30 13 1 13 14
M  V30 14 1 14 15
M  V30 15 1 15 16
M  V30 16 1 16 17
M  V30 17 1 17 18
M  V30 18 2 18 19
M  V30 19 1 19 20
M  V30 20 2 20 21
M  V30 21 1 21 22
M  V30 22 2 22 23
M  V30 23 2 13 24
M  V30 24 2 4 25
M  V30 25 1 25 26
M  V30 26 1 26 2
M  V30 27 1 24 6
M  V30 28 1 23 18
M  V30 29 1 1 27
M  V30 30 1 1 28
M  V30 31 1 1 29
M  V30 32 1 3 30
M  V30 33 1 5 31
M  V30 34 1 7 32
M  V30 35 1 9 33
M  V30 36 1 9 34
M  V30 37 1 9 35
M  V30 38 1 14 36
M  V30 39 1 15 37
M  V30 40 1 15 38
M  V30 41 1 16 39
M  V30 42 1 16 40
M  V30 43 1 19 41
M  V30 44 1 20 42
M  V30 45 1 21 43
M  V30 46 1 22 44
M  V30 47 1 26 45
M  V30 END BOND
M  V30 END CTAB
M  END
>  <Dataset>  (74) 
ChEMBL_Kinases

>  <Ligand_Instance>  (74) 
nan

>  <PDB_ID>  (74) 
nan

>  <Standardized_SMILES>  (74) 
Cc1cc(Nc2cc(C)c(C#N)c(NCCOc3ccccn3)n2)n[nH]1

>  <Name>  (74) 
nan

>  <Pocket>  (74) 
nan

>  <ATP_Site>  (74) 
nan

>  <Peripheral>  (74) 
nan

>  <Num_H_Atoms_ProtBoundConf>  (74) 
nan

>  <Num_Resolved_Atoms>  (74) 
nan

>  <Num_Not_Resolved_Atoms>  (74) 
nan

$$$$
CHEMBL3922865
     RDKit          3D

  0  0  0  0  0  0  0  0  0  0999 V3000
M  V30 BEGIN CTAB
M  V30 COUNTS 42 45 0 0 0
M  V30 BEGIN ATOM
M  V30 1 F 6.835181 -5.433982 1.295115 0
M  V30 2 C 6.464987 -4.269558 0.623345 0
M  V30 3 F 7.511774 -3.863834 -0.157782 0
M  V30 4 F 6.085631 -3.310086 1.541895 0
M  V30 5 O 5.404143 -4.603662 -0.222722 0
M  V30 6 C 4.773864 -3.663750 -1.059840 0
M  V30 7 C 5.236358 -3.454971 -2.342297 0
M  V30 8 C 4.608405 -2.524185 -3.164627 0
M  V30 9 C 3.532444 -1.854857 -2.619583 0
M  V30 10 C 3.049227 -2.040767 -1.347658 0
M  V30 11 C 1.913818 -1.333757 -0.777312 0
M  V30 12 C 1.137210 -0.432412 -1.273944 0
M  V30 13 C -0.000186 0.362601 -0.886781 0
M  V30 14 N -0.562207 1.248354 -1.747015 0
M  V30 15 N -1.574955 1.851201 -1.178736 0
M  V30 16 C -1.773835 1.431627 0.080291 0
M  V30 17 C -2.673836 1.736159 1.079226 0
M  V30 18 C -2.572832 1.082718 2.288954 0
M  V30 19 C -3.501949 1.372555 3.372067 0
M  V30 20 C -3.098527 1.270043 4.708133 0
M  V30 21 C -4.003933 1.551648 5.701286 0
M  V30 22 N -5.273237 1.924305 5.377241 0
M  V30 23 C -5.663038 2.023615 4.101132 0
M  V30 24 C -4.790178 1.751352 3.087140 0
M  V30 25 C -1.563266 0.136159 2.459779 0
M  V30 26 C -0.680117 -0.144731 1.441227 0
M  V30 27 C -0.773690 0.500297 0.235749 0
M  V30 28 C 3.693283 -2.968395 -0.561282 0
M  V30 29 H 6.093440 -4.013059 -2.723700 0
M  V30 30 H 4.949947 -2.340051 -4.175116 0
M  V30 31 H 3.067578 -1.144746 -3.272445 0
M  V30 32 H 1.625856 -1.562094 0.232276 0
M  V30 33 H 1.529799 -0.287500 -2.297336 0
M  V30 34 H -2.125053 2.568521 -1.701467 0
M  V30 35 H -3.430236 2.479056 0.879195 0
M  V30 36 H -2.059956 0.963467 4.847267 0
M  V30 37 H -3.643033 1.457790 6.724333 0
M  V30 38 H -6.689450 2.325835 3.909469 0
M  V30 39 H -5.161677 1.848437 2.067104 0
M  V30 40 H -1.478405 -0.383008 3.412538 0
M  V30 41 H 0.076356 -0.879023 1.622790 0
M  V30 42 H 3.369186 -3.169860 0.453806 0
M  V30 END ATOM
M  V30 BEGIN BOND
M  V30 1 1 1 2
M  V30 2 1 2 3
M  V30 3 1 2 4
M  V30 4 1 2 5
M  V30 5 1 5 6
M  V30 6 2 6 7
M  V30 7 1 7 8
M  V30 8 2 8 9
M  V30 9 1 9 10
M  V30 10 1 10 11
M  V30 11 2 11 12
M  V30 12 1 12 13
M  V30 13 2 13 14
M  V30 14 1 14 15
M  V30 15 1 15 16
M  V30 16 2 16 17
M  V30 17 1 17 18
M  V30 18 1 18 19
M  V30 19 2 19 20
M  V30 20 1 20 21
M  V30 21 2 21 22
M  V30 22 1 22 23
M  V30 23 2 23 24
M  V30 24 2 18 25
M  V30 25 1 25 26
M  V30 26 2 26 27
M  V30 27 2 10 28
M  V30 28 1 28 6
M  V30 29 1 27 13
M  V30 30 1 27 16
M  V30 31 1 24 19
M  V30 32 1 7 29
M  V30 33 1 8 30
M  V30 34 1 9 31
M  V30 35 1 11 32
M  V30 36 1 12 33
M  V30 37 1 15 34
M  V30 38 1 17 35
M  V30 39 1 20 36
M  V30 40 1 21 37
M  V30 41 1 23 38
M  V30 42 1 24 39
M  V30 43 1 25 40
M  V30 44 1 26 41
M  V30 45 1 28 42
M  V30 END BOND
M  V30 END CTAB
M  END
>  <Dataset>  (75) 
ChEMBL_Kinases

>  <Ligand_Instance>  (75) 
nan

>  <PDB_ID>  (75) 
nan

>  <Standardized_SMILES>  (75) 
FC(F)(F)Oc1cccc(/C=C/c2n[nH]c3cc(-c4ccncc4)ccc23)c1

>  <Name>  (75) 
nan

>  <Pocket>  (75) 
nan

>  <ATP_Site>  (75) 
nan

>  <Peripheral>  (75) 
nan

>  <Num_H_Atoms_ProtBoundConf>  (75) 
nan

>  <Num_Resolved_Atoms>  (75) 
nan

>  <Num_Not_Resolved_Atoms>  (75) 
nan

$$$$
CHEMBL3922854
     RDKit          3D

  0  0  0  0  0  0  0  0  0  0999 V3000
M  V30 BEGIN CTAB
M  V30 COUNTS 50 53 0 0 0
M  V30 BEGIN ATOM
M  V30 1 N 2.391917 -9.828514 -0.785428 0
M  V30 2 C 2.928385 -8.552221 -1.062040 0
M  V30 3 O 4.109068 -8.517557 -1.518564 0
M  V30 4 C 2.102572 -7.362468 -0.809334 0
M  V30 5 C 0.807312 -7.497977 -0.303950 0
M  V30 6 C 0.049063 -6.367876 -0.073757 0
M  V30 7 C 0.574330 -5.104795 -0.344291 0
M  V30 8 N 0.081595 -3.843078 -0.223250 0
M  V30 9 C 1.000338 -2.946832 -0.625131 0
M  V30 10 C 0.777050 -1.499973 -0.617537 0
M  V30 11 C -0.440734 -1.030518 -0.174135 0
M  V30 12 C -0.677739 0.325789 -0.156223 0
M  V30 13 C 0.240938 1.266400 -0.560434 0
M  V30 14 O 0.273293 2.610049 -0.644148 0
M  V30 15 C -0.622319 3.602987 -0.344178 0
M  V30 16 C -1.076540 3.727701 1.067769 0 CFG=1
M  V30 17 C 0.043549 3.989210 2.036118 0
M  V30 18 C -0.394857 4.514166 3.351608 0
M  V30 19 C -1.851623 4.308281 3.656947 0 CFG=1
M  V30 20 O -2.144863 5.178283 4.719991 0
M  V30 21 C -2.789064 4.614156 2.541873 0
M  V30 22 C -2.154746 4.812834 1.203735 0
M  V30 23 C 1.470217 0.757297 -1.006298 0
M  V30 24 C 1.747896 -0.615471 -1.039115 0
M  V30 25 N 2.078949 -3.632661 -1.002675 0
M  V30 26 C 1.861748 -4.968256 -0.846722 0
M  V30 27 C 2.620003 -6.108658 -1.076364 0
M  V30 28 H 2.450095 -10.549194 -0.040357 0
M  V30 29 H 2.474272 -10.530619 -0.017698 0
M  V30 30 H 0.423511 -8.503327 -0.101811 0
M  V30 31 H -0.964297 -6.471593 0.321449 0
M  V30 32 H -0.898603 -3.710977 0.146507 0
M  V30 33 H -1.239627 -1.662096 0.167557 0
M  V30 34 H -1.598015 0.786009 0.166989 0
M  V30 35 H -0.144990 4.581727 -0.657266 0
M  V30 36 H -1.532601 3.486484 -1.007116 0
M  V30 37 H -1.583157 2.798355 1.377361 0
M  V30 38 H 0.666846 3.078576 2.098614 0
M  V30 39 H 0.698105 4.774300 1.556052 0
M  V30 40 H -0.088710 5.571439 3.517936 0
M  V30 41 H 0.159903 3.930344 4.143446 0
M  V30 42 H -2.009428 3.272006 4.062698 0
M  V30 43 H -1.972341 4.769514 5.604624 0
M  V30 44 H -3.445131 5.485286 2.753099 0
M  V30 45 H -3.494677 3.742783 2.426642 0
M  V30 46 H -1.719955 5.823992 1.074060 0
M  V30 47 H -2.908190 4.617032 0.416665 0
M  V30 48 H 2.350300 1.305457 -1.374796 0
M  V30 49 H 2.653467 -1.070586 -1.363266 0
M  V30 50 H 3.619004 -5.996647 -1.466590 0
M  V30 END ATOM
M  V30 BEGIN BOND
M  V30 1 1 1 2
M  V30 2 2 2 3
M  V30 3 1 2 4
M  V30 4 2 4 5
M  V30 5 1 5 6
M  V30 6 2 6 7
M  V30 7 1 7 8
M  V30 8 1 8 9
M  V30 9 1 9 10
M  V30 10 2 10 11
M  V30 11 1 11 12
M  V30 12 2 12 13
M  V30 13 1 13 14
M  V30 14 1 14 15
M  V30 15 1 15 16
M  V30 16 1 16 17
M  V30 17 1 17 18
M  V30 18 1 18 19
M  V30 19 1 19 20
M  V30 20 1 19 21
M  V30 21 1 21 22
M  V30 22 1 13 23
M  V30 23 2 23 24
M  V30 24 2 9 25
M  V30 25 1 25 26
M  V30 26 2 26 27
M  V30 27 1 27 4
M  V30 28 1 26 7
M  V30 29 1 24 10
M  V30 30 1 22 16
M  V30 31 1 1 28
M  V30 32 1 1 29
M  V30 33 1 5 30
M  V30 34 1 6 31
M  V30 35 1 8 32
M  V30 36 1 11 33
M  V30 37 1 12 34
M  V30 38 1 15 35
M  V30 39 1 15 36
M  V30 40 1 16 37 CFG=1
M  V30 41 1 17 38
M  V30 42 1 17 39
M  V30 43 1 18 40
M  V30 44 1 18 41
M  V30 45 1 19 42 CFG=1
M  V30 46 1 20 43
M  V30 47 1 21 44
M  V30 48 1 21 45
M  V30 49 1 22 46
M  V30 50 1 22 47
M  V30 51 1 23 48
M  V30 52 1 24 49
M  V30 53 1 27 50
M  V30 END BOND
M  V30 END CTAB
M  END
>  <Dataset>  (76) 
ChEMBL_Kinases

>  <Ligand_Instance>  (76) 
nan

>  <PDB_ID>  (76) 
nan

>  <Standardized_SMILES>  (76) 
NC(=O)c1ccc2[nH]c(-c3ccc(OC[C@H]4CC[C@@H](O)CC4)cc3)nc2c1

>  <Name>  (76) 
nan

>  <Pocket>  (76) 
nan

>  <ATP_Site>  (76) 
nan

>  <Peripheral>  (76) 
nan

>  <Num_H_Atoms_ProtBoundConf>  (76) 
nan

>  <Num_Resolved_Atoms>  (76) 
nan

>  <Num_Not_Resolved_Atoms>  (76) 
nan

$$$$
CHEMBL3922597
     RDKit          3D

  0  0  0  0  0  0  0  0  0  0999 V3000
M  V30 BEGIN CTAB
M  V30 COUNTS 58 62 0 0 0
M  V30 BEGIN ATOM
M  V30 1 C 5.099294 -4.370268 5.168297 0
M  V30 2 O 5.600559 -3.037762 5.050179 0
M  V30 3 C 5.091858 -2.066958 4.273731 0
M  V30 4 O 4.212607 -2.919088 3.907123 0
M  V30 5 N 4.741363 -0.921118 3.554695 0
M  V30 6 C 3.718312 -0.606842 2.623459 0
M  V30 7 N 2.522437 -0.116528 3.039822 0
M  V30 8 C 1.728997 0.099532 1.972793 0
M  V30 9 C 0.440183 0.581119 1.854899 0
M  V30 10 C -0.052249 0.663736 0.567644 0
M  V30 11 C -1.407066 1.163100 0.324341 0
M  V30 12 O -2.006435 1.590186 1.533214 0
M  V30 13 C -1.324723 2.359543 -0.516827 0
M  V30 14 C -0.571707 3.475176 -0.219328 0
M  V30 15 C -0.602853 4.531545 -1.126280 0
M  V30 16 C -1.378110 4.408943 -2.265023 0
M  V30 17 C -2.120129 3.248210 -2.508292 0
M  V30 18 C -2.098843 2.194998 -1.619661 0
M  V30 19 C -2.685839 0.880199 -1.491748 0
M  V30 20 O -3.441542 0.503726 -2.390048 0
M  V30 21 N -2.292489 0.196393 -0.311162 0
M  V30 22 C -2.612435 -1.098741 0.216944 0
M  V30 23 C -3.982114 -1.325323 0.719044 0
M  V30 24 C -1.948860 -2.239391 -0.455434 0
M  V30 25 C -0.704272 -2.752051 -0.033359 0
M  V30 26 C 0.012939 -3.767443 -0.580846 0
M  V30 27 Cl 1.552022 -4.284144 0.069323 0
M  V30 28 C -0.514214 -4.394339 -1.686659 0
M  V30 29 C -1.730723 -3.959115 -2.170480 0
M  V30 30 C -2.402476 -2.920614 -1.560742 0
M  V30 31 C -3.682067 -2.626949 -2.193250 0
M  V30 32 C 0.671303 0.295009 -0.571761 0
M  V30 33 C 1.958589 -0.178606 -0.361970 0
M  V30 34 C 2.504108 -0.283800 0.896806 0
M  V30 35 N 3.717264 -0.715402 1.283395 0
M  V30 36 H 5.015146 -4.886231 4.194356 0
M  V30 37 H 5.661200 -4.934152 5.913101 0
M  V30 38 H 4.048731 -4.266475 5.561023 0
M  V30 39 H 5.562932 -0.507908 4.045641 0
M  V30 40 H -0.158349 0.878707 2.701554 0
M  V30 41 H -2.150926 0.818762 2.150611 0
M  V30 42 H 0.044160 3.604034 0.659615 0
M  V30 43 H -0.050992 5.431540 -0.975110 0
M  V30 44 H -1.459387 5.180353 -3.020851 0
M  V30 45 H -2.737883 3.128167 -3.397825 0
M  V30 46 H -2.013921 -1.092333 1.226005 0
M  V30 47 H -4.236879 -2.390998 0.637944 0
M  V30 48 H -4.045253 -1.060185 1.815049 0
M  V30 49 H -4.797934 -0.739092 0.264177 0
M  V30 50 H -0.237134 -2.295046 0.837447 0
M  V30 51 H 0.037069 -5.200483 -2.136233 0
M  V30 52 H -2.081412 -4.496884 -3.039020 0
M  V30 53 H -4.203097 -3.567430 -2.560336 0
M  V30 54 H -3.427511 -2.122420 -3.175810 0
M  V30 55 H -4.362187 -1.953651 -1.694838 0
M  V30 56 H 0.291613 0.358773 -1.562171 0
M  V30 57 H 2.527274 -0.467464 -1.246357 0
M  V30 58 H 4.506654 -1.064366 0.696455 0
M  V30 END ATOM
M  V30 BEGIN BOND
M  V30 1 1 1 2
M  V30 2 1 2 3
M  V30 3 2 3 4
M  V30 4 1 3 5
M  V30 5 1 5 6
M  V30 6 2 6 7
M  V30 7 1 7 8
M  V30 8 2 8 9
M  V30 9 1 9 10
M  V30 10 1 10 11
M  V30 11 1 11 12
M  V30 12 1 11 13
M  V30 13 2 13 14
M  V30 14 1 14 15
M  V30 15 2 15 16
M  V30 16 1 16 17
M  V30 17 2 17 18
M  V30 18 1 18 19
M  V30 19 2 19 20
M  V30 20 1 19 21
M  V30 21 1 21 22
M  V30 22 1 22 23
M  V30 23 1 22 24
M  V30 24 2 24 25
M  V30 25 1 25 26
M  V30 26 1 26 27
M  V30 27 2 26 28
M  V30 28 1 28 29
M  V30 29 2 29 30
M  V30 30 1 30 31
M  V30 31 2 10 32
M  V30 32 1 32 33
M  V30 33 2 33 34
M  V30 34 1 34 35
M  V30 35 1 35 6
M  V30 36 1 34 8
M  V30 37 1 21 11
M  V30 38 1 30 24
M  V30 39 1 18 13
M  V30 40 1 1 36
M  V30 41 1 1 37
M  V30 42 1 1 38
M  V30 43 1 5 39
M  V30 44 1 9 40
M  V30 45 1 12 41
M  V30 46 1 14 42
M  V30 47 1 15 43
M  V30 48 1 16 44
M  V30 49 1 17 45
M  V30 50 1 22 46
M  V30 51 1 23 47
M  V30 52 1 23 48
M  V30 53 1 23 49
M  V30 54 1 25 50
M  V30 55 1 28 51
M  V30 56 1 29 52
M  V30 57 1 31 53
M  V30 58 1 31 54
M  V30 59 1 31 55
M  V30 60 1 32 56
M  V30 61 1 33 57
M  V30 62 1 35 58
M  V30 END BOND
M  V30 END CTAB
M  END
>  <Dataset>  (77) 
ChEMBL_Kinases

>  <Ligand_Instance>  (77) 
nan

>  <PDB_ID>  (77) 
nan

>  <Standardized_SMILES>  (77) 
COC(=O)Nc1nc2cc(C3(O)c4ccccc4C(=O)N3C(C)c3cc(Cl)ccc3C)ccc2[nH]1

>  <Name>  (77) 
nan

>  <Pocket>  (77) 
nan

>  <ATP_Site>  (77) 
nan

>  <Peripheral>  (77) 
nan

>  <Num_H_Atoms_ProtBoundConf>  (77) 
nan

>  <Num_Resolved_Atoms>  (77) 
nan

>  <Num_Not_Resolved_Atoms>  (77) 
nan

$$$$
CHEMBL3922494
     RDKit          3D

  0  0  0  0  0  0  0  0  0  0999 V3000
M  V30 BEGIN CTAB
M  V30 COUNTS 43 45 0 0 0
M  V30 BEGIN ATOM
M  V30 1 C 3.289288 -5.021164 0.319388 0
M  V30 2 O 2.621148 -4.458880 1.461575 0
M  V30 3 C 1.470556 -3.728076 1.210285 0
M  V30 4 C 0.954394 -3.510886 -0.062452 0
M  V30 5 C -0.206062 -2.775772 -0.307771 0
M  V30 6 C -0.902347 -2.221249 0.752588 0
M  V30 7 C -2.116158 -1.431690 0.575262 0
M  V30 8 C -2.194866 -0.526527 -0.386302 0
M  V30 9 S -1.092972 0.090205 -1.706598 0
M  V30 10 C -1.572067 1.822692 -1.388995 0
M  V30 11 N -0.905039 2.892742 -1.303896 0
M  V30 12 C 0.542955 2.935427 -1.462337 0
M  V30 13 C 1.130171 2.732045 -0.084539 0
M  V30 14 C 1.477961 1.476683 0.405214 0
M  V30 15 C 1.982645 1.302519 1.665357 0
M  V30 16 C 2.159201 2.410162 2.493589 0
M  V30 17 C 1.829826 3.674764 2.052347 0
M  V30 18 C 1.316818 3.803694 0.756469 0
M  V30 19 N -2.993680 1.623790 -1.219614 0
M  V30 20 C -3.356321 0.359049 -0.676594 0
M  V30 21 O -4.569861 -0.002103 -0.451512 0
M  V30 22 C -0.403675 -2.425551 2.031161 0
M  V30 23 C 0.741256 -3.154596 2.231676 0
M  V30 24 O 1.124150 -3.279793 3.536713 0
M  V30 25 C 0.455984 -2.723678 4.637098 0
M  V30 26 H 3.645776 -4.168379 -0.278490 0
M  V30 27 H 2.521684 -5.563178 -0.302351 0
M  V30 28 H 4.114531 -5.687618 0.616907 0
M  V30 29 H 1.476794 -3.932439 -0.918242 0
M  V30 30 H -0.569455 -2.635380 -1.325050 0
M  V30 31 H -2.989123 -1.547930 1.204787 0
M  V30 32 H 0.827010 3.936267 -1.839883 0
M  V30 33 H 0.838337 2.129011 -2.128215 0
M  V30 34 H 1.367497 0.594254 -0.196268 0
M  V30 35 H 2.236837 0.316863 2.014366 0
M  V30 36 H 2.563616 2.251872 3.497867 0
M  V30 37 H 1.980661 4.512735 2.728734 0
M  V30 38 H 1.070473 4.833483 0.451253 0
M  V30 39 H -3.727015 2.359513 -1.471345 0
M  V30 40 H -0.975000 -1.974351 2.849547 0
M  V30 41 H 1.052677 -2.866202 5.559480 0
M  V30 42 H -0.536470 -3.178910 4.817973 0
M  V30 43 H 0.292833 -1.622800 4.529605 0
M  V30 END ATOM
M  V30 BEGIN BOND
M  V30 1 1 1 2
M  V30 2 1 2 3
M  V30 3 2 3 4
M  V30 4 1 4 5
M  V30 5 2 5 6
M  V30 6 1 6 7
M  V30 7 2 7 8
M  V30 8 1 8 9
M  V30 9 1 9 10
M  V30 10 2 10 11
M  V30 11 1 11 12
M  V30 12 1 12 13
M  V30 13 2 13 14
M  V30 14 1 14 15
M  V30 15 2 15 16
M  V30 16 1 16 17
M  V30 17 2 17 18
M  V30 18 1 10 19
M  V30 19 1 19 20
M  V30 20 2 20 21
M  V30 21 1 6 22
M  V30 22 2 22 23
M  V30 23 1 23 24
M  V30 24 1 24 25
M  V30 25 1 23 3
M  V30 26 1 20 8
M  V30 27 1 18 13
M  V30 28 1 1 26
M  V30 29 1 1 27
M  V30 30 1 1 28
M  V30 31 1 4 29
M  V30 32 1 5 30
M  V30 33 1 7 31
M  V30 34 1 12 32
M  V30 35 1 12 33
M  V30 36 1 14 34
M  V30 37 1 15 35
M  V30 38 1 16 36
M  V30 39 1 17 37
M  V30 40 1 18 38
M  V30 41 1 19 39
M  V30 42 1 22 40
M  V30 43 1 25 41
M  V30 44 1 25 42
M  V30 45 1 25 43
M  V30 END BOND
M  V30 END CTAB
M  END
>  <Dataset>  (78) 
ChEMBL_Kinases

>  <Ligand_Instance>  (78) 
nan

>  <PDB_ID>  (78) 
nan

>  <Standardized_SMILES>  (78) 
COc1ccc(/C=C2\S/C(=N\Cc3ccccc3)NC2=O)cc1OC

>  <Name>  (78) 
nan

>  <Pocket>  (78) 
nan

>  <ATP_Site>  (78) 
nan

>  <Peripheral>  (78) 
nan

>  <Num_H_Atoms_ProtBoundConf>  (78) 
nan

>  <Num_Resolved_Atoms>  (78) 
nan

>  <Num_Not_Resolved_Atoms>  (78) 
nan

$$$$
CHEMBL4876428
     RDKit          3D

  0  0  0  0  0  0  0  0  0  0999 V3000
M  V30 BEGIN CTAB
M  V30 COUNTS 30 32 0 0 0
M  V30 BEGIN ATOM
M  V30 1 C -1.082783 -1.984867 3.072260 0
M  V30 2 N -0.889414 -3.008790 2.034556 0
M  V30 3 C -1.299867 -4.376540 2.207724 0
M  V30 4 C -0.268833 -2.606546 0.818069 0
M  V30 5 N -0.063663 -3.502884 -0.173780 0
M  V30 6 C 0.521748 -3.174200 -1.350360 0
M  V30 7 Cl 0.772561 -4.359748 -2.614327 0
M  V30 8 C 0.918675 -1.845098 -1.514360 0
M  V30 9 C 0.722163 -0.908375 -0.519550 0
M  V30 10 C 1.146479 0.476676 -0.715407 0
M  V30 11 C 1.755153 0.973458 -1.849527 0
M  V30 12 N 1.962802 2.276867 -1.587138 0
M  V30 13 N 1.517218 2.578347 -0.376038 0
M  V30 14 N 1.515993 3.743264 0.293816 0
M  V30 15 C 0.987432 3.755292 1.532543 0
M  V30 16 C 0.435636 2.683438 2.204826 0
M  V30 17 C 0.452003 1.486928 1.481590 0
M  V30 18 C 0.995863 1.486611 0.213905 0
M  V30 19 N 0.131660 -1.342572 0.608446 0
M  V30 20 H -1.463889 -2.451560 4.003982 0
M  V30 21 H -1.775568 -1.222676 2.672209 0
M  V30 22 H -0.116825 -1.474905 3.296779 0
M  V30 23 H -1.225532 -4.629741 3.305815 0
M  V30 24 H -0.607936 -5.100801 1.714541 0
M  V30 25 H -2.358632 -4.548270 1.898182 0
M  V30 26 H 1.395572 -1.566355 -2.466619 0
M  V30 27 H 2.025744 0.461650 -2.773231 0
M  V30 28 H 1.029573 4.741482 1.998959 0
M  V30 29 H 0.038198 2.808525 3.202746 0
M  V30 30 H 0.031346 0.614249 1.962295 0
M  V30 END ATOM
M  V30 BEGIN BOND
M  V30 1 1 1 2
M  V30 2 1 2 3
M  V30 3 1 2 4
M  V30 4 2 4 5
M  V30 5 1 5 6
M  V30 6 1 6 7
M  V30 7 2 6 8
M  V30 8 1 8 9
M  V30 9 1 9 10
M  V30 10 1 10 11
M  V30 11 2 11 12
M  V30 12 1 12 13
M  V30 13 1 13 14
M  V30 14 2 14 15
M  V30 15 1 15 16
M  V30 16 2 16 17
M  V30 17 1 17 18
M  V30 18 2 9 19
M  V30 19 1 19 4
M  V30 20 2 18 10
M  V30 21 1 18 13
M  V30 22 1 1 20
M  V30 23 1 1 21
M  V30 24 1 1 22
M  V30 25 1 3 23
M  V30 26 1 3 24
M  V30 27 1 3 25
M  V30 28 1 8 26
M  V30 29 1 11 27
M  V30 30 1 15 28
M  V30 31 1 16 29
M  V30 32 1 17 30
M  V30 END BOND
M  V30 END CTAB
M  END
>  <Dataset>  (79) 
ChEMBL_Kinases

>  <Ligand_Instance>  (79) 
nan

>  <PDB_ID>  (79) 
nan

>  <Standardized_SMILES>  (79) 
CN(C)c1nc(Cl)cc(-c2cnn3ncccc23)n1

>  <Name>  (79) 
nan

>  <Pocket>  (79) 
nan

>  <ATP_Site>  (79) 
nan

>  <Peripheral>  (79) 
nan

>  <Num_H_Atoms_ProtBoundConf>  (79) 
nan

>  <Num_Resolved_Atoms>  (79) 
nan

>  <Num_Not_Resolved_Atoms>  (79) 
nan

$$$$
CHEMBL3922274
     RDKit          3D

  0  0  0  0  0  0  0  0  0  0999 V3000
M  V30 BEGIN CTAB
M  V30 COUNTS 45 48 0 0 0
M  V30 BEGIN ATOM
M  V30 1 C 5.258304 -6.043185 -2.195007 0
M  V30 2 N 5.137172 -4.638749 -2.577594 0
M  V30 3 C 4.142014 -3.968152 -1.834810 0
M  V30 4 O 3.558941 -4.713762 -0.992492 0
M  V30 5 C 3.842793 -2.555859 -2.044216 0
M  V30 6 C 4.509941 -1.804850 -2.974153 0
M  V30 7 C 4.191929 -0.473848 -3.135174 0
M  V30 8 C 3.193444 0.042621 -2.330336 0
M  V30 9 C 2.512806 -0.675216 -1.398922 0
M  V30 10 C 1.458395 -0.168761 -0.535366 0
M  V30 11 C 0.945377 1.021493 -0.453520 0
M  V30 12 C -0.067317 1.716564 0.300767 0
M  V30 13 N -0.317627 3.042069 0.081104 0
M  V30 14 N -1.270342 3.452192 0.874575 0
M  V30 15 C -1.732980 2.476341 1.672904 0
M  V30 16 C -2.700766 2.391239 2.654095 0
M  V30 17 C -2.903539 1.178033 3.278905 0
M  V30 18 C -3.922591 1.063961 4.319766 0
M  V30 19 C -4.564973 -0.161975 4.459698 0
M  V30 20 C -5.544865 -0.348636 5.425729 0
M  V30 21 N -5.860993 0.703993 6.234850 0
M  V30 22 C -5.225599 1.871950 6.076468 0
M  V30 23 C -4.245261 2.126174 5.140191 0
M  V30 24 C -2.131268 0.094314 2.899884 0
M  V30 25 C -1.170711 0.201030 1.918249 0
M  V30 26 C -0.962013 1.402294 1.291737 0
M  V30 27 C 2.857029 -2.002646 -1.265150 0
M  V30 28 H 5.370892 -6.178064 -1.109971 0
M  V30 29 H 6.078360 -6.548704 -2.733462 0
M  V30 30 H 4.313151 -6.549796 -2.499006 0
M  V30 31 H 5.698522 -4.176890 -3.296878 0
M  V30 32 H 5.282871 -2.213802 -3.594079 0
M  V30 33 H 4.720808 0.105458 -3.866585 0
M  V30 34 H 2.967552 1.074115 -2.475532 0
M  V30 35 H 0.988369 -0.821910 0.165337 0
M  V30 36 H 1.498938 1.605716 -1.211141 0
M  V30 37 H -1.590272 4.443411 0.841211 0
M  V30 38 H -3.261542 3.289539 2.890376 0
M  V30 39 H -4.331538 -1.004459 3.833035 0
M  V30 40 H -6.060364 -1.293167 5.555640 0
M  V30 41 H -5.492166 2.709568 6.736166 0
M  V30 42 H -3.751364 3.084371 5.039537 0
M  V30 43 H -2.330758 -0.825901 3.418689 0
M  V30 44 H -0.600602 -0.667423 1.662386 0
M  V30 45 H 2.340680 -2.633693 -0.527759 0
M  V30 END ATOM
M  V30 BEGIN BOND
M  V30 1 1 1 2
M  V30 2 1 2 3
M  V30 3 2 3 4
M  V30 4 1 3 5
M  V30 5 2 5 6
M  V30 6 1 6 7
M  V30 7 2 7 8
M  V30 8 1 8 9
M  V30 9 1 9 10
M  V30 10 2 10 11
M  V30 11 1 11 12
M  V30 12 2 12 13
M  V30 13 1 13 14
M  V30 14 1 14 15
M  V30 15 2 15 16
M  V30 16 1 16 17
M  V30 17 1 17 18
M  V30 18 2 18 19
M  V30 19 1 19 20
M  V30 20 2 20 21
M  V30 21 1 21 22
M  V30 22 2 22 23
M  V30 23 2 17 24
M  V30 24 1 24 25
M  V30 25 2 25 26
M  V30 26 2 9 27
M  V30 27 1 27 5
M  V30 28 1 26 12
M  V30 29 1 26 15
M  V30 30 1 23 18
M  V30 31 1 1 28
M  V30 32 1 1 29
M  V30 33 1 1 30
M  V30 34 1 2 31
M  V30 35 1 6 32
M  V30 36 1 7 33
M  V30 37 1 8 34
M  V30 38 1 10 35
M  V30 39 1 11 36
M  V30 40 1 14 37
M  V30 41 1 16 38
M  V30 42 1 19 39
M  V30 43 1 20 40
M  V30 44 1 22 41
M  V30 45 1 23 42
M  V30 46 1 24 43
M  V30 47 1 25 44
M  V30 48 1 27 45
M  V30 END BOND
M  V30 END CTAB
M  END
>  <Dataset>  (80) 
ChEMBL_Kinases

>  <Ligand_Instance>  (80) 
nan

>  <PDB_ID>  (80) 
nan

>  <Standardized_SMILES>  (80) 
CNC(=O)c1cccc(/C=C/c2n[nH]c3cc(-c4ccncc4)ccc23)c1

>  <Name>  (80) 
nan

>  <Pocket>  (80) 
nan

>  <ATP_Site>  (80) 
nan

>  <Peripheral>  (80) 
nan

>  <Num_H_Atoms_ProtBoundConf>  (80) 
nan

>  <Num_Resolved_Atoms>  (80) 
nan

>  <Num_Not_Resolved_Atoms>  (80) 
nan

$$$$
CHEMBL3922258
     RDKit          3D

  0  0  0  0  0  0  0  0  0  0999 V3000
M  V30 BEGIN CTAB
M  V30 COUNTS 35 36 0 0 0
M  V30 BEGIN ATOM
M  V30 1 N 0.125813 -4.039868 2.243785 0
M  V30 2 S 1.717927 -3.641233 2.729314 0
M  V30 3 O 1.936286 -3.650472 4.198277 0
M  V30 4 O 2.660518 -4.659300 2.136189 0
M  V30 5 C 2.051598 -2.027710 2.117072 0
M  V30 6 C 2.601594 -1.854224 0.884319 0
M  V30 7 C 2.879355 -0.612798 0.365543 0
M  V30 8 C 2.596698 0.514044 1.108468 0
M  V30 9 N 2.788141 1.885263 0.797497 0
M  V30 10 C 1.588974 2.309053 0.160018 0
M  V30 11 S 1.440213 3.853993 -0.347177 0
M  V30 12 N 0.523148 1.386561 -0.033939 0
M  V30 13 C -0.676285 1.807205 -0.670696 0
M  V30 14 O -0.716319 3.024983 -1.037266 0
M  V30 15 C -1.793733 0.911265 -0.894481 0
M  V30 16 C -1.834810 -0.418195 -0.530582 0
M  V30 17 C -2.919168 -1.238979 -0.761712 0
M  V30 18 C -4.031828 -0.728948 -1.386992 0
M  V30 19 C -4.001814 0.593227 -1.753559 0
M  V30 20 C -2.919606 1.403030 -1.520203 0
M  V30 21 C 2.031053 0.346627 2.377276 0
M  V30 22 Br 1.569664 1.771998 3.552753 0
M  V30 23 C 1.762180 -0.913231 2.874228 0
M  V30 24 H -0.613882 -3.578998 2.803790 0
M  V30 25 H -0.029887 -5.014988 1.983015 0
M  V30 26 H 2.849621 -2.696350 0.245592 0
M  V30 27 H 3.310131 -0.373501 -0.590661 0
M  V30 28 H 3.570714 2.557995 0.941208 0
M  V30 29 H 0.620831 0.402277 0.290445 0
M  V30 30 H -0.969420 -0.831778 -0.039411 0
M  V30 31 H -2.875503 -2.274101 -0.445831 0
M  V30 32 H -4.849697 -1.422707 -1.539886 0
M  V30 33 H -4.871822 0.996845 -2.243848 0
M  V30 34 H -2.951076 2.447293 -1.833481 0
M  V30 35 H 1.324552 -1.105733 3.850224 0
M  V30 END ATOM
M  V30 BEGIN BOND
M  V30 1 1 1 2
M  V30 2 2 2 3
M  V30 3 2 2 4
M  V30 4 1 2 5
M  V30 5 2 5 6
M  V30 6 1 6 7
M  V30 7 2 7 8
M  V30 8 1 8 9
M  V30 9 1 9 10
M  V30 10 2 10 11
M  V30 11 1 10 12
M  V30 12 1 12 13
M  V30 13 2 13 14
M  V30 14 1 13 15
M  V30 15 2 15 16
M  V30 16 1 16 17
M  V30 17 2 17 18
M  V30 18 1 18 19
M  V30 19 2 19 20
M  V30 20 1 8 21
M  V30 21 1 21 22
M  V30 22 2 21 23
M  V30 23 1 23 5
M  V30 24 1 20 15
M  V30 25 1 1 24
M  V30 26 1 1 25
M  V30 27 1 6 26
M  V30 28 1 7 27
M  V30 29 1 9 28
M  V30 30 1 12 29
M  V30 31 1 16 30
M  V30 32 1 17 31
M  V30 33 1 18 32
M  V30 34 1 19 33
M  V30 35 1 20 34
M  V30 36 1 23 35
M  V30 END BOND
M  V30 END CTAB
M  END
>  <Dataset>  (81) 
ChEMBL_Kinases

>  <Ligand_Instance>  (81) 
nan

>  <PDB_ID>  (81) 
nan

>  <Standardized_SMILES>  (81) 
NS(=O)(=O)c1ccc(NC(=S)NC(=O)c2ccccc2)c(Br)c1

>  <Name>  (81) 
nan

>  <Pocket>  (81) 
nan

>  <ATP_Site>  (81) 
nan

>  <Peripheral>  (81) 
nan

>  <Num_H_Atoms_ProtBoundConf>  (81) 
nan

>  <Num_Resolved_Atoms>  (81) 
nan

>  <Num_Not_Resolved_Atoms>  (81) 
nan

$$$$
CHEMBL4876404
     RDKit          3D

  0  0  0  0  0  0  0  0  0  0999 V3000
M  V30 BEGIN CTAB
M  V30 COUNTS 36 38 0 0 0
M  V30 BEGIN ATOM
M  V30 1 O 0.527563 -2.218735 4.259294 0
M  V30 2 C 0.626694 -1.035396 3.923574 0
M  V30 3 O 0.746823 -0.328696 5.101713 0
M  V30 4 C 0.632314 -0.385349 2.631132 0
M  V30 5 C 0.749528 0.989416 2.611244 0
M  V30 6 C 0.761506 1.756499 1.468993 0
M  V30 7 C 0.648865 1.114819 0.252507 0
M  V30 8 C 0.664404 1.953839 -0.939991 0
M  V30 9 C 0.565155 1.515550 -2.243216 0
M  V30 10 C 0.587416 2.368814 -3.319850 0
M  V30 11 N 0.710026 3.690053 -3.123831 0
M  V30 12 C 0.807383 4.125509 -1.855495 0
M  V30 13 N 0.785479 3.285441 -0.795250 0
M  V30 14 C 0.531488 -0.257647 0.260549 0
M  V30 15 C 0.520708 -1.018438 1.410739 0
M  V30 16 C 0.403717 -2.465884 1.353216 0
M  V30 17 C -1.062659 -2.811349 1.512885 0
M  V30 18 C -1.527952 -2.944734 0.078247 0
M  V30 19 C -0.427301 -3.811682 -0.492943 0
M  V30 20 C 0.802419 -3.137646 0.080000 0
M  V30 21 H 0.313172 -0.543331 5.983078 0
M  V30 22 H 0.841096 1.534393 3.558189 0
M  V30 23 H 0.859487 2.848943 1.555059 0
M  V30 24 H 0.466871 0.462983 -2.412406 0
M  V30 25 H 0.502890 1.937269 -4.324182 0
M  V30 26 H 0.910631 5.172700 -1.571860 0
M  V30 27 H 0.447853 -0.665701 -0.734170 0
M  V30 28 H 0.957483 -2.987490 2.170719 0
M  V30 29 H -1.228856 -3.785718 2.003334 0
M  V30 30 H -1.638919 -1.985499 1.969566 0
M  V30 31 H -2.520142 -3.440593 0.013858 0
M  V30 32 H -1.544708 -1.950484 -0.441759 0
M  V30 33 H -0.424679 -3.768227 -1.601700 0
M  V30 34 H -0.533463 -4.835772 -0.104595 0
M  V30 35 H 1.221055 -2.515700 -0.703918 0
M  V30 36 H 1.530317 -3.989027 0.262251 0
M  V30 END ATOM
M  V30 BEGIN BOND
M  V30 1 2 1 2
M  V30 2 1 2 3
M  V30 3 1 2 4
M  V30 4 2 4 5
M  V30 5 1 5 6
M  V30 6 2 6 7
M  V30 7 1 7 8
M  V30 8 2 8 9
M  V30 9 1 9 10
M  V30 10 2 10 11
M  V30 11 1 11 12
M  V30 12 2 12 13
M  V30 13 1 7 14
M  V30 14 2 14 15
M  V30 15 1 15 16
M  V30 16 1 16 17
M  V30 17 1 17 18
M  V30 18 1 18 19
M  V30 19 1 19 20
M  V30 20 1 15 4
M  V30 21 1 20 16
M  V30 22 1 13 8
M  V30 23 1 3 21
M  V30 24 1 5 22
M  V30 25 1 6 23
M  V30 26 1 9 24
M  V30 27 1 10 25
M  V30 28 1 12 26
M  V30 29 1 14 27
M  V30 30 1 16 28
M  V30 31 1 17 29
M  V30 32 1 17 30
M  V30 33 1 18 31
M  V30 34 1 18 32
M  V30 35 1 19 33
M  V30 36 1 19 34
M  V30 37 1 20 35
M  V30 38 1 20 36
M  V30 END BOND
M  V30 END CTAB
M  END
>  <Dataset>  (82) 
ChEMBL_Kinases

>  <Ligand_Instance>  (82) 
nan

>  <PDB_ID>  (82) 
nan

>  <Standardized_SMILES>  (82) 
O=C(O)c1ccc(-c2ccncn2)cc1C1CCCC1

>  <Name>  (82) 
nan

>  <Pocket>  (82) 
nan

>  <ATP_Site>  (82) 
nan

>  <Peripheral>  (82) 
nan

>  <Num_H_Atoms_ProtBoundConf>  (82) 
nan

>  <Num_Resolved_Atoms>  (82) 
nan

>  <Num_Not_Resolved_Atoms>  (82) 
nan

$$$$
CHEMBL3919207
     RDKit          3D

  0  0  0  0  0  0  0  0  0  0999 V3000
M  V30 BEGIN CTAB
M  V30 COUNTS 42 47 0 0 0
M  V30 BEGIN ATOM
M  V30 1 C 2.120120 -5.351038 0.799378 0
M  V30 2 C 1.333175 -4.401506 1.416508 0
M  V30 3 C 1.319212 -3.110461 0.932308 0
M  V30 4 C 2.049286 -2.682787 -0.148738 0
M  V30 5 C 2.047148 -1.324696 -0.673814 0
M  V30 6 C 1.311437 -0.279217 -0.158184 0
M  V30 7 C 1.378678 0.968615 -0.727368 0
M  V30 8 C 2.173144 1.222448 -1.821553 0
M  V30 9 C 2.899980 0.160904 -2.319817 0
M  V30 10 N 2.820009 -1.043357 -1.751615 0
M  V30 11 N 2.267893 2.433533 -2.410943 0
M  V30 12 C 1.551792 3.485010 -1.922237 0
M  V30 13 C 0.732940 3.270888 -0.812927 0
M  V30 14 N -0.084276 4.093763 -0.108670 0
M  V30 15 C -0.630446 3.346141 0.866286 0
M  V30 16 N -0.183739 2.079331 0.798839 0
M  V30 17 C -0.666664 1.158401 1.761931 0
M  V30 18 C -0.056234 0.924350 3.005248 0
M  V30 19 C -0.577273 0.025846 3.913804 0
M  V30 20 C -1.727264 -0.684585 3.636516 0
M  V30 21 N -2.476311 -1.608423 4.282896 0
M  V30 22 C -3.528058 -1.959785 3.494148 0
M  V30 23 N -3.470218 -1.267440 2.330442 0
M  V30 24 C -2.367923 -0.495655 2.433342 0
M  V30 25 C -1.831573 0.402499 1.546071 0
M  V30 26 C 0.659946 2.023949 -0.236863 0
M  V30 27 C 2.820821 -3.653086 -0.738488 0
M  V30 28 C 2.866863 -4.954944 -0.290283 0
M  V30 29 H 2.203506 -6.385551 1.096895 0
M  V30 30 H 0.750679 -4.713981 2.267859 0
M  V30 31 H 0.686853 -2.411503 1.453095 0
M  V30 32 H 0.714228 -0.539221 0.691212 0
M  V30 33 H 3.549347 0.276300 -3.178379 0
M  V30 34 H 1.603982 4.476162 -2.372825 0
M  V30 35 H -1.320182 3.847105 1.535901 0
M  V30 36 H 0.843610 1.483955 3.215575 0
M  V30 37 H -0.115537 -0.153810 4.858950 0
M  V30 38 H -4.322975 -2.668255 3.692375 0
M  V30 39 H -4.116991 -1.294075 1.505646 0
M  V30 40 H -2.295275 0.597682 0.570422 0
M  V30 41 H 3.432822 -3.406011 -1.601396 0
M  V30 42 H 3.498358 -5.680041 -0.799836 0
M  V30 END ATOM
M  V30 BEGIN BOND
M  V30 1 2 1 2
M  V30 2 1 2 3
M  V30 3 2 3 4
M  V30 4 1 4 5
M  V30 5 2 5 6
M  V30 6 1 6 7
M  V30 7 2 7 8
M  V30 8 1 8 9
M  V30 9 2 9 10
M  V30 10 1 8 11
M  V30 11 2 11 12
M  V30 12 1 12 13
M  V30 13 1 13 14
M  V30 14 2 14 15
M  V30 15 1 15 16
M  V30 16 1 16 17
M  V30 17 2 17 18
M  V30 18 1 18 19
M  V30 19 2 19 20
M  V30 20 1 20 21
M  V30 21 2 21 22
M  V30 22 1 22 23
M  V30 23 1 23 24
M  V30 24 2 24 25
M  V30 25 1 16 26
M  V30 26 1 4 27
M  V30 27 2 27 28
M  V30 28 1 28 1
M  V30 29 1 10 5
M  V30 30 2 26 13
M  V30 31 1 26 7
M  V30 32 1 25 17
M  V30 33 1 24 20
M  V30 34 1 1 29
M  V30 35 1 2 30
M  V30 36 1 3 31
M  V30 37 1 6 32
M  V30 38 1 9 33
M  V30 39 1 12 34
M  V30 40 1 15 35
M  V30 41 1 18 36
M  V30 42 1 19 37
M  V30 43 1 22 38
M  V30 44 1 23 39
M  V30 45 1 25 40
M  V30 46 1 27 41
M  V30 47 1 28 42
M  V30 END BOND
M  V30 END CTAB
M  END
>  <Dataset>  (83) 
ChEMBL_Kinases

>  <Ligand_Instance>  (83) 
nan

>  <PDB_ID>  (83) 
nan

>  <Standardized_SMILES>  (83) 
c1ccc(-c2cc3c(cn2)ncc2ncn(-c4ccc5nc[nH]c5c4)c23)cc1

>  <Name>  (83) 
nan

>  <Pocket>  (83) 
nan

>  <ATP_Site>  (83) 
nan

>  <Peripheral>  (83) 
nan

>  <Num_H_Atoms_ProtBoundConf>  (83) 
nan

>  <Num_Resolved_Atoms>  (83) 
nan

>  <Num_Not_Resolved_Atoms>  (83) 
nan

$$$$
CHEMBL3919154
     RDKit          3D

  0  0  0  0  0  0  0  0  0  0999 V3000
M  V30 BEGIN CTAB
M  V30 COUNTS 47 50 0 0 0
M  V30 BEGIN ATOM
M  V30 1 N -3.618013 -8.367853 -1.556843 0
M  V30 2 C -4.501888 -7.263135 -1.426066 0
M  V30 3 O -5.640234 -7.568851 -1.800343 0
M  V30 4 C -4.183504 -5.930359 -0.929809 0
M  V30 5 C -5.248696 -5.053184 -0.913885 0
M  V30 6 C -5.010507 -3.765914 -0.451430 0
M  V30 7 C -3.735874 -3.386566 -0.021570 0
M  V30 8 N -3.279408 -2.214428 0.457925 0
M  V30 9 C -1.971224 -2.389356 0.721854 0
M  V30 10 C -1.099135 -1.343692 1.263018 0
M  V30 11 C -1.665893 -0.108275 1.513347 0
M  V30 12 C -0.869546 0.900946 2.024653 0
M  V30 13 C 0.467678 0.657045 2.273761 0
M  V30 14 S 1.515502 1.912624 2.924041 0
M  V30 15 O 0.675751 2.821615 3.748444 0
M  V30 16 O 2.602949 1.354281 3.784830 0
M  V30 17 N 2.252625 2.829647 1.686229 0
M  V30 18 C 3.106845 2.030038 0.819991 0
M  V30 19 C 3.678782 2.963834 -0.208499 0
M  V30 20 C 4.871068 3.651348 -0.040389 0
M  V30 21 C 5.315578 4.481313 -1.031281 0
M  V30 22 C 4.636949 4.676783 -2.204687 0
M  V30 23 Cl 5.193136 5.740044 -3.490012 0
M  V30 24 C 3.448785 4.007933 -2.402147 0
M  V30 25 Cl 2.540892 4.215126 -3.872298 0
M  V30 26 C 2.985798 3.162831 -1.405630 0
M  V30 27 C 1.043086 -0.582282 2.024306 0
M  V30 28 C 0.235709 -1.595538 1.509045 0
M  V30 29 N -1.655637 -3.658130 0.400195 0
M  V30 30 C -2.725502 -4.325477 -0.070247 0
M  V30 31 C -2.902106 -5.620803 -0.520222 0
M  V30 32 H -2.654452 -8.174676 -1.196649 0
M  V30 33 H -2.650140 -8.677893 -1.376466 0
M  V30 34 H -6.242082 -5.328270 -1.242432 0
M  V30 35 H -5.790784 -3.015946 -0.406016 0
M  V30 36 H -3.860044 -1.343908 0.589835 0
M  V30 37 H -2.702578 0.157089 1.344202 0
M  V30 38 H -1.294939 1.889307 2.231760 0
M  V30 39 H 1.634034 3.451799 1.158588 0
M  V30 40 H 3.944908 1.583173 1.354533 0
M  V30 41 H 2.506352 1.257907 0.335671 0
M  V30 42 H 5.420856 3.499032 0.899089 0
M  V30 43 H 6.249474 5.030810 -0.919711 0
M  V30 44 H 2.053701 2.613997 -1.516141 0
M  V30 45 H 2.085693 -0.800854 2.209558 0
M  V30 46 H 0.610968 -2.580861 1.290717 0
M  V30 47 H -2.094557 -6.325279 -0.544687 0
M  V30 END ATOM
M  V30 BEGIN BOND
M  V30 1 1 1 2
M  V30 2 2 2 3
M  V30 3 1 2 4
M  V30 4 2 4 5
M  V30 5 1 5 6
M  V30 6 2 6 7
M  V30 7 1 7 8
M  V30 8 1 8 9
M  V30 9 1 9 10
M  V30 10 2 10 11
M  V30 11 1 11 12
M  V30 12 2 12 13
M  V30 13 1 13 14
M  V30 14 2 14 15
M  V30 15 2 14 16
M  V30 16 1 14 17
M  V30 17 1 17 18
M  V30 18 1 18 19
M  V30 19 2 19 20
M  V30 20 1 20 21
M  V30 21 2 21 22
M  V30 22 1 22 23
M  V30 23 1 22 24
M  V30 24 1 24 25
M  V30 25 2 24 26
M  V30 26 1 13 27
M  V30 27 2 27 28
M  V30 28 2 9 29
M  V30 29 1 29 30
M  V30 30 2 30 31
M  V30 31 1 31 4
M  V30 32 1 30 7
M  V30 33 1 28 10
M  V30 34 1 26 19
M  V30 35 1 1 32
M  V30 36 1 1 33
M  V30 37 1 5 34
M  V30 38 1 6 35
M  V30 39 1 8 36
M  V30 40 1 11 37
M  V30 41 1 12 38
M  V30 42 1 17 39
M  V30 43 1 18 40
M  V30 44 1 18 41
M  V30 45 1 20 42
M  V30 46 1 21 43
M  V30 47 1 26 44
M  V30 48 1 27 45
M  V30 49 1 28 46
M  V30 50 1 31 47
M  V30 END BOND
M  V30 END CTAB
M  END
>  <Dataset>  (84) 
ChEMBL_Kinases

>  <Ligand_Instance>  (84) 
nan

>  <PDB_ID>  (84) 
nan

>  <Standardized_SMILES>  (84) 
NC(=O)c1ccc2[nH]c(-c3ccc(S(=O)(=O)NCc4ccc(Cl)c(Cl)c4)cc3)nc2c1

>  <Name>  (84) 
nan

>  <Pocket>  (84) 
nan

>  <ATP_Site>  (84) 
nan

>  <Peripheral>  (84) 
nan

>  <Num_H_Atoms_ProtBoundConf>  (84) 
nan

>  <Num_Resolved_Atoms>  (84) 
nan

>  <Num_Not_Resolved_Atoms>  (84) 
nan

$$$$
CHEMBL3919070
     RDKit          3D

  0  0  0  0  0  0  0  0  0  0999 V3000
M  V30 BEGIN CTAB
M  V30 COUNTS 54 58 0 0 0
M  V30 BEGIN ATOM
M  V30 1 O 3.802902 -4.346943 0.624611 0 CHG=-1 VAL=1
M  V30 2 N 3.188809 -3.434185 -0.221810 0 CHG=1 VAL=4
M  V30 3 C 2.023884 -3.770491 -0.801961 0
M  V30 4 C 1.364954 -2.904828 -1.649573 0
M  V30 5 C 1.895181 -1.673280 -1.915268 0
M  V30 6 C 3.082746 -1.300797 -1.337632 0
M  V30 7 C 3.893633 -0.033614 -1.407011 0
M  V30 8 N 3.598890 0.813833 -0.289218 0
M  V30 9 C 2.786978 1.640256 0.514742 0
M  V30 10 C 2.840662 3.027294 0.551012 0
M  V30 11 C 1.932466 3.604423 1.431299 0
M  V30 12 C 1.078826 2.811660 2.175480 0
M  V30 13 Cl 0.034459 3.769515 3.201484 0
M  V30 14 C 1.066261 1.435241 2.099272 0
M  V30 15 C 0.059176 0.866637 2.958007 0
M  V30 16 C 0.202800 1.139379 4.322947 0
M  V30 17 C -0.692449 0.646178 5.240578 0
M  V30 18 N -1.760766 -0.127902 4.889584 0
M  V30 19 C -1.910942 -0.400146 3.557703 0
M  V30 20 N -2.811989 -1.089312 2.828365 0
M  V30 21 C -2.536599 -1.055687 1.535061 0
M  V30 22 C -3.425297 -1.737982 0.515756 0
M  V30 23 C -3.721178 -0.844219 -0.628638 0
M  V30 24 C -3.707866 -1.433497 -1.988361 0
M  V30 25 N -3.761996 -2.887294 -1.977704 0
M  V30 26 C -2.546672 -3.266006 -1.230669 0
M  V30 27 C -2.900020 -3.095775 0.221350 0
M  V30 28 C -1.391630 -0.310399 1.355691 0
M  V30 29 C -1.027620 0.085521 2.644921 0
M  V30 30 N 1.941732 0.859595 1.250105 0
M  V30 31 C 3.699543 -2.228114 -0.488138 0
M  V30 32 H 1.605042 -4.742087 -0.587693 0
M  V30 33 H 0.448446 -3.125295 -2.141240 0
M  V30 34 H 1.519121 -0.864403 -2.555765 0
M  V30 35 H 3.591538 0.514284 -2.342216 0
M  V30 36 H 4.947612 -0.307829 -1.517833 0
M  V30 37 H 4.465842 0.886173 0.330704 0
M  V30 38 H 3.564533 3.506707 -0.088232 0
M  V30 39 H 1.983287 4.694484 1.451284 0
M  V30 40 H 1.001129 1.732721 4.693300 0
M  V30 41 H -0.590166 0.849978 6.287942 0
M  V30 42 H -3.611690 -1.569924 3.333462 0
M  V30 43 H -4.418799 -1.922607 1.040795 0
M  V30 44 H -4.728948 -0.335857 -0.492825 0
M  V30 45 H -3.020552 0.036063 -0.642757 0
M  V30 46 H -2.817517 -1.078137 -2.554260 0
M  V30 47 H -4.579366 -1.095011 -2.576376 0
M  V30 48 H -3.754850 -3.224041 -2.951857 0
M  V30 49 H -2.252883 -4.304220 -1.480589 0
M  V30 50 H -1.737290 -2.583152 -1.550624 0
M  V30 51 H -2.045538 -3.318193 0.894207 0
M  V30 52 H -3.703665 -3.867130 0.413118 0
M  V30 53 H -0.926193 -0.107451 0.430913 0
M  V30 54 H 4.652989 -2.057592 0.033257 0
M  V30 END ATOM
M  V30 BEGIN BOND
M  V30 1 1 1 2
M  V30 2 2 2 3
M  V30 3 1 3 4
M  V30 4 2 4 5
M  V30 5 1 5 6
M  V30 6 1 6 7
M  V30 7 1 7 8
M  V30 8 1 8 9
M  V30 9 2 9 10
M  V30 10 1 10 11
M  V30 11 2 11 12
M  V30 12 1 12 13
M  V30 13 1 12 14
M  V30 14 1 14 15
M  V30 15 2 15 16
M  V30 16 1 16 17
M  V30 17 2 17 18
M  V30 18 1 18 19
M  V30 19 1 19 20
M  V30 20 1 20 21
M  V30 21 1 21 22
M  V30 22 1 22 23
M  V30 23 1 23 24
M  V30 24 1 24 25
M  V30 25 1 25 26
M  V30 26 1 26 27
M  V30 27 2 21 28
M  V30 28 1 28 29
M  V30 29 2 14 30
M  V30 30 2 6 31
M  V30 31 1 31 2
M  V30 32 1 30 9
M  V30 33 1 29 15
M  V30 34 2 29 19
M  V30 35 1 27 22
M  V30 36 1 3 32
M  V30 37 1 4 33
M  V30 38 1 5 34
M  V30 39 1 7 35
M  V30 40 1 7 36
M  V30 41 1 8 37
M  V30 42 1 10 38
M  V30 43 1 11 39
M  V30 44 1 16 40
M  V30 45 1 17 41
M  V30 46 1 20 42
M  V30 47 1 22 43
M  V30 48 1 23 44
M  V30 49 1 23 45
M  V30 50 1 24 46
M  V30 51 1 24 47
M  V30 52 1 25 48
M  V30 53 1 26 49
M  V30 54 1 26 50
M  V30 55 1 27 51
M  V30 56 1 27 52
M  V30 57 1 28 53
M  V30 58 1 31 54
M  V30 END BOND
M  V30 END CTAB
M  END
>  <Dataset>  (85) 
ChEMBL_Kinases

>  <Ligand_Instance>  (85) 
nan

>  <PDB_ID>  (85) 
nan

>  <Standardized_SMILES>  (85) 
[O-][n+]1cccc(CNc2ccc(Cl)c(-c3ccnc4[nH]c(C5CCNCC5)cc34)n2)c1

>  <Name>  (85) 
nan

>  <Pocket>  (85) 
nan

>  <ATP_Site>  (85) 
nan

>  <Peripheral>  (85) 
nan

>  <Num_H_Atoms_ProtBoundConf>  (85) 
nan

>  <Num_Resolved_Atoms>  (85) 
nan

>  <Num_Not_Resolved_Atoms>  (85) 
nan

$$$$
CHEMBL610730
     RDKit          3D

  0  0  0  0  0  0  0  0  0  0999 V3000
M  V30 BEGIN CTAB
M  V30 COUNTS 64 69 0 0 0
M  V30 BEGIN ATOM
M  V30 1 N 3.223376 2.102607 8.038749 0
M  V30 2 C 1.861891 1.849807 7.645675 0
M  V30 3 O 0.893059 2.016745 8.432574 0
M  V30 4 C 1.645115 1.379797 6.261575 0
M  V30 5 N 2.592352 1.156963 5.303682 0
M  V30 6 N 2.035347 0.742046 4.188935 0
M  V30 7 C 2.874681 0.459464 3.081097 0
M  V30 8 C 3.315850 -0.871456 3.072742 0
M  V30 9 C 4.149266 -1.342513 2.086033 0
M  V30 10 C 4.556329 -0.485059 1.087250 0
M  V30 11 F 5.374414 -0.890445 0.091129 0
M  V30 12 C 4.133267 0.827597 1.077940 0
M  V30 13 C 3.297171 1.320942 2.057972 0
M  V30 14 C 0.712467 0.683805 4.391302 0
M  V30 15 C 0.431852 1.077452 5.682062 0
M  V30 16 C -0.909826 1.140729 6.263677 0
M  V30 17 C -2.008200 0.743378 5.359305 0
M  V30 18 C -1.642660 0.338502 4.010992 0
M  V30 19 C -2.658926 -0.033873 3.160924 0
M  V30 20 C -2.425423 -0.434202 1.863208 0
M  V30 21 C -1.143018 -0.478315 1.356735 0
M  V30 22 N -0.891847 -0.890512 0.016288 0
M  V30 23 C -0.630147 -2.159150 -0.563099 0
M  V30 24 O -0.587681 -3.192126 0.146956 0
M  V30 25 C -0.413110 -2.224128 -2.003023 0
M  V30 26 C -1.353037 -1.880124 -2.942370 0
M  V30 27 C -1.059086 -1.973270 -4.267496 0
M  V30 28 N -1.976606 -1.636261 -5.300754 0
M  V30 29 C -1.627317 -1.752624 -6.719660 0
M  V30 30 C -2.668524 -2.607515 -7.368973 0
M  V30 31 N -3.603661 -3.184831 -6.444665 0
M  V30 32 C -4.267150 -2.243416 -5.597685 0
M  V30 33 C -3.326679 -1.151642 -5.097678 0
M  V30 34 N 0.154456 -2.403248 -4.646474 0
M  V30 35 C 1.105249 -2.750724 -3.744013 0
M  V30 36 C 0.833781 -2.665831 -2.394339 0
M  V30 37 Cl 2.093952 -3.125752 -1.248484 0
M  V30 38 C -0.097491 -0.103157 2.207269 0
M  V30 39 C -0.364318 0.291581 3.497211 0
M  V30 40 H 3.711659 1.184536 8.054343 0
M  V30 41 H 3.332330 3.137470 8.196346 0
M  V30 42 H 3.043652 -1.610613 3.818974 0
M  V30 43 H 4.497991 -2.384620 2.075080 0
M  V30 44 H 4.425742 1.521603 0.323493 0
M  V30 45 H 2.898219 2.319910 2.162786 0
M  V30 46 H -1.079681 2.211155 6.572311 0
M  V30 47 H -0.938513 0.585379 7.237492 0
M  V30 48 H -2.798197 1.543179 5.275819 0
M  V30 49 H -2.569722 -0.108732 5.843042 0
M  V30 50 H -3.700194 -0.031685 3.469183 0
M  V30 51 H -3.231220 -0.720619 1.216682 0
M  V30 52 H -0.946206 0.017268 -0.491676 0
M  V30 53 H -2.313900 -1.540227 -2.610307 0
M  V30 54 H -0.595763 -2.141647 -6.845496 0
M  V30 55 H -1.701657 -0.730217 -7.145993 0
M  V30 56 H -3.212558 -2.074962 -8.194361 0
M  V30 57 H -2.145962 -3.469722 -7.864856 0
M  V30 58 H -3.289171 -4.058036 -5.984349 0
M  V30 59 H -4.680639 -2.778872 -4.730565 0
M  V30 60 H -5.098567 -1.761459 -6.149668 0
M  V30 61 H -3.549320 -0.857578 -4.071633 0
M  V30 62 H -3.430772 -0.236517 -5.752248 0
M  V30 63 H 2.077052 -3.094791 -4.074015 0
M  V30 64 H 0.876695 -0.156824 1.760761 0
M  V30 END ATOM
M  V30 BEGIN BOND
M  V30 1 1 1 2
M  V30 2 2 2 3
M  V30 3 1 2 4
M  V30 4 2 4 5
M  V30 5 1 5 6
M  V30 6 1 6 7
M  V30 7 2 7 8
M  V30 8 1 8 9
M  V30 9 2 9 10
M  V30 10 1 10 11
M  V30 11 1 10 12
M  V30 12 2 12 13
M  V30 13 1 6 14
M  V30 14 2 14 15
M  V30 15 1 15 16
M  V30 16 1 16 17
M  V30 17 1 17 18
M  V30 18 2 18 19
M  V30 19 1 19 20
M  V30 20 2 20 21
M  V30 21 1 21 22
M  V30 22 1 22 23
M  V30 23 2 23 24
M  V30 24 1 23 25
M  V30 25 2 25 26
M  V30 26 1 26 27
M  V30 27 1 27 28
M  V30 28 1 28 29
M  V30 29 1 29 30
M  V30 30 1 30 31
M  V30 31 1 31 32
M  V30 32 1 32 33
M  V30 33 2 27 34
M  V30 34 1 34 35
M  V30 35 2 35 36
M  V30 36 1 36 37
M  V30 37 1 21 38
M  V30 38 2 38 39
M  V30 39 1 15 4
M  V30 40 1 39 18
M  V30 41 1 13 7
M  V30 42 1 39 14
M  V30 43 1 36 25
M  V30 44 1 33 28
M  V30 45 1 1 40
M  V30 46 1 1 41
M  V30 47 1 8 42
M  V30 48 1 9 43
M  V30 49 1 12 44
M  V30 50 1 13 45
M  V30 51 1 16 46
M  V30 52 1 16 47
M  V30 53 1 17 48
M  V30 54 1 17 49
M  V30 55 1 19 50
M  V30 56 1 20 51
M  V30 57 1 22 52
M  V30 58 1 26 53
M  V30 59 1 29 54
M  V30 60 1 29 55
M  V30 61 1 30 56
M  V30 62 1 30 57
M  V30 63 1 31 58
M  V30 64 1 32 59
M  V30 65 1 32 60
M  V30 66 1 33 61
M  V30 67 1 33 62
M  V30 68 1 35 63
M  V30 69 1 38 64
M  V30 END BOND
M  V30 END CTAB
M  END
>  <Dataset>  (86) 
ChEMBL_Kinases

>  <Ligand_Instance>  (86) 
nan

>  <PDB_ID>  (86) 
nan

>  <Standardized_SMILES>  (86) 
NC(=O)c1nn(-c2ccc(F)cc2)c2c1CCc1ccc(NC(=O)c3cc(N4CCNCC4)ncc3Cl)cc1-2

>  <Name>  (86) 
nan

>  <Pocket>  (86) 
nan

>  <ATP_Site>  (86) 
nan

>  <Peripheral>  (86) 
nan

>  <Num_H_Atoms_ProtBoundConf>  (86) 
nan

>  <Num_Resolved_Atoms>  (86) 
nan

>  <Num_Not_Resolved_Atoms>  (86) 
nan

$$$$
CHEMBL3918885
     RDKit          3D

  0  0  0  0  0  0  0  0  0  0999 V3000
M  V30 BEGIN CTAB
M  V30 COUNTS 59 63 0 0 0
M  V30 BEGIN ATOM
M  V30 1 C 1.747433 2.961424 5.481687 0
M  V30 2 O 2.200947 2.282664 4.332218 0
M  V30 3 C 2.922899 1.126246 4.305801 0
M  V30 4 C 3.353389 0.390338 5.388240 0
M  V30 5 C 4.077366 -0.768818 5.337788 0
M  V30 6 C 4.384749 -1.208830 4.073986 0
M  V30 7 F 5.111011 -2.369350 3.958589 0
M  V30 8 C 3.994029 -0.533289 2.913208 0
M  V30 9 C 3.253624 0.649334 3.031568 0
M  V30 10 C 2.915522 1.246904 1.771370 0
M  V30 11 C 3.806989 2.167953 1.216327 0
M  V30 12 C 3.503514 2.754378 0.005146 0
M  V30 13 N 2.389287 2.503269 -0.701610 0
M  V30 14 C 1.506984 1.613081 -0.185514 0
M  V30 15 N 0.332142 1.141049 -0.607702 0
M  V30 16 C -0.180879 0.261320 0.255966 0
M  V30 17 C -1.454901 -0.480123 0.154962 0
M  V30 18 C -1.843049 -1.338718 1.111437 0
M  V30 19 C -2.622934 -2.523488 0.601788 0
M  V30 20 C -4.092974 -2.239996 0.633968 0
M  V30 21 C -4.345030 -1.439760 -0.599612 0
M  V30 22 C -3.030898 -1.524099 -1.369883 0
M  V30 23 C -2.295164 -0.239371 -1.050749 0
M  V30 24 N -2.305745 -2.618278 -0.791291 0
M  V30 25 C -2.561927 -3.902720 -1.362381 0
M  V30 26 C -2.034210 -4.053818 -2.711587 0
M  V30 27 O -2.376373 -5.243168 -3.063744 0
M  V30 28 N -1.300722 -3.315358 -3.680537 0
M  V30 29 C -0.734417 -1.960611 -3.619291 0
M  V30 30 C -1.021481 -3.927469 -4.982497 0
M  V30 31 C 0.725293 0.159942 1.305800 0
M  V30 32 C 1.781416 1.009712 1.023457 0
M  V30 33 H 1.414659 2.254425 6.282983 0
M  V30 34 H 0.791679 3.461649 5.163238 0
M  V30 35 H 2.450501 3.721009 5.830795 0
M  V30 36 H 3.078650 0.789051 6.371610 0
M  V30 37 H 4.381428 -1.293665 6.232301 0
M  V30 38 H 4.299511 -0.984292 1.977081 0
M  V30 39 H 4.712314 2.412896 1.725812 0
M  V30 40 H 4.190464 3.464857 -0.424264 0
M  V30 41 H -0.099840 1.452030 -1.516439 0
M  V30 42 H -1.530796 -1.045121 2.126185 0
M  V30 43 H -2.372597 -3.439775 1.176671 0
M  V30 44 H -4.390283 -1.634931 1.525571 0
M  V30 45 H -4.661514 -3.193172 0.583611 0
M  V30 46 H -4.605170 -0.396386 -0.346508 0
M  V30 47 H -5.200619 -1.831673 -1.205384 0
M  V30 48 H -3.315153 -1.637928 -2.419864 0
M  V30 49 H -3.014003 0.569712 -0.754459 0
M  V30 50 H -1.668365 0.138436 -1.864070 0
M  V30 51 H -2.029232 -4.642461 -0.696108 0
M  V30 52 H -3.638182 -4.187466 -1.311635 0
M  V30 53 H -1.433661 -1.195259 -3.966788 0
M  V30 54 H -0.413615 -1.837503 -2.551096 0
M  V30 55 H 0.193344 -1.869492 -4.219124 0
M  V30 56 H 0.042733 -4.244442 -5.061067 0
M  V30 57 H -1.735908 -4.762750 -5.187042 0
M  V30 58 H -1.194914 -3.199208 -5.803704 0
M  V30 59 H 0.611549 -0.463827 2.164335 0
M  V30 END ATOM
M  V30 BEGIN BOND
M  V30 1 1 1 2
M  V30 2 1 2 3
M  V30 3 2 3 4
M  V30 4 1 4 5
M  V30 5 2 5 6
M  V30 6 1 6 7
M  V30 7 1 6 8
M  V30 8 2 8 9
M  V30 9 1 9 10
M  V30 10 2 10 11
M  V30 11 1 11 12
M  V30 12 2 12 13
M  V30 13 1 13 14
M  V30 14 1 14 15
M  V30 15 1 15 16
M  V30 16 1 16 17
M  V30 17 2 17 18
M  V30 18 1 18 19
M  V30 19 1 19 20
M  V30 20 1 20 21
M  V30 21 1 21 22
M  V30 22 1 22 23
M  V30 23 1 22 24
M  V30 24 1 24 25
M  V30 25 1 25 26
M  V30 26 2 26 27
M  V30 27 1 26 28
M  V30 28 1 28 29
M  V30 29 1 28 30
M  V30 30 2 16 31
M  V30 31 1 31 32
M  V30 32 1 9 3
M  V30 33 1 32 10
M  V30 34 2 32 14
M  V30 35 1 23 17
M  V30 36 1 24 19
M  V30 37 1 1 33
M  V30 38 1 1 34
M  V30 39 1 1 35
M  V30 40 1 4 36
M  V30 41 1 5 37
M  V30 42 1 8 38
M  V30 43 1 11 39
M  V30 44 1 12 40
M  V30 45 1 15 41
M  V30 46 1 18 42
M  V30 47 1 19 43
M  V30 48 1 20 44
M  V30 49 1 20 45
M  V30 50 1 21 46
M  V30 51 1 21 47
M  V30 52 1 22 48
M  V30 53 1 23 49
M  V30 54 1 23 50
M  V30 55 1 25 51
M  V30 56 1 25 52
M  V30 57 1 29 53
M  V30 58 1 29 54
M  V30 59 1 29 55
M  V30 60 1 30 56
M  V30 61 1 30 57
M  V30 62 1 30 58
M  V30 63 1 31 59
M  V30 END BOND
M  V30 END CTAB
M  END
>  <Dataset>  (87) 
ChEMBL_Kinases

>  <Ligand_Instance>  (87) 
nan

>  <PDB_ID>  (87) 
nan

>  <Standardized_SMILES>  (87) 
COc1ccc(F)cc1-c1ccnc2[nH]c(C3=CC4CCC(C3)N4CC(=O)N(C)C)cc12

>  <Name>  (87) 
nan

>  <Pocket>  (87) 
nan

>  <ATP_Site>  (87) 
nan

>  <Peripheral>  (87) 
nan

>  <Num_H_Atoms_ProtBoundConf>  (87) 
nan

>  <Num_Resolved_Atoms>  (87) 
nan

>  <Num_Not_Resolved_Atoms>  (87) 
nan

$$$$
CHEMBL3918882
     RDKit          3D

  0  0  0  0  0  0  0  0  0  0999 V3000
M  V30 BEGIN CTAB
M  V30 COUNTS 38 41 0 0 0
M  V30 BEGIN ATOM
M  V30 1 C -0.062299 -1.808634 3.765565 0
M  V30 2 C -0.265621 -1.109144 2.663516 0
M  V30 3 C 0.671086 -1.220502 1.547432 0
M  V30 4 N 1.771025 -1.991087 1.502581 0
M  V30 5 N 2.412407 -1.872300 0.355219 0
M  V30 6 C 1.697617 -0.986884 -0.374876 0
M  V30 7 C 1.948115 -0.516547 -1.658069 0
M  V30 8 C 1.054344 0.397843 -2.189069 0
M  V30 9 C 1.359263 0.862840 -3.537433 0
M  V30 10 C 0.355747 1.220308 -4.418156 0
M  V30 11 C 0.632737 1.657077 -5.682766 0
M  V30 12 C 1.952859 1.735197 -6.068230 0
M  V30 13 N 2.963766 1.390968 -5.225702 0
M  V30 14 C 2.681761 0.961465 -3.980953 0
M  V30 15 C -0.045432 0.827380 -1.471680 0
M  V30 16 C -0.300360 0.356513 -0.181075 0
M  V30 17 C 0.596899 -0.555672 0.340723 0
M  V30 18 C -0.935599 -1.762327 4.920467 0
M  V30 19 C -2.072170 -0.991682 5.006187 0
M  V30 20 C -2.900376 -0.950298 6.108063 0
M  V30 21 C -2.614966 -1.703251 7.204306 0
M  V30 22 C -1.477517 -2.496570 7.162675 0
M  V30 23 C -0.652961 -2.522572 6.035324 0
M  V30 24 H 0.811575 -2.443612 3.782095 0
M  V30 25 H -1.113711 -0.459642 2.581342 0
M  V30 26 H 3.300873 -2.372600 0.077977 0
M  V30 27 H 2.818940 -0.874773 -2.190118 0
M  V30 28 H -0.674325 1.160569 -4.120831 0
M  V30 29 H -0.075849 1.956393 -6.436751 0
M  V30 30 H 2.349499 2.059143 -7.029831 0
M  V30 31 H 3.499643 0.687309 -3.311803 0
M  V30 32 H -0.717010 1.540010 -1.921000 0
M  V30 33 H -1.158078 0.686286 0.388961 0
M  V30 34 H -2.357728 -0.375624 4.183699 0
M  V30 35 H -3.789590 -0.335261 6.151266 0
M  V30 36 H -3.231477 -1.702720 8.084892 0
M  V30 37 H -1.188679 -3.114776 7.984982 0
M  V30 38 H 0.230310 -3.153953 6.033252 0
M  V30 END ATOM
M  V30 BEGIN BOND
M  V30 1 2 1 2
M  V30 2 1 2 3
M  V30 3 2 3 4
M  V30 4 1 4 5
M  V30 5 1 5 6
M  V30 6 2 6 7
M  V30 7 1 7 8
M  V30 8 1 8 9
M  V30 9 2 9 10
M  V30 10 1 10 11
M  V30 11 2 11 12
M  V30 12 1 12 13
M  V30 13 2 13 14
M  V30 14 2 8 15
M  V30 15 1 15 16
M  V30 16 2 16 17
M  V30 17 1 1 18
M  V30 18 2 18 19
M  V30 19 1 19 20
M  V30 20 2 20 21
M  V30 21 1 21 22
M  V30 22 2 22 23
M  V30 23 1 17 3
M  V30 24 1 23 18
M  V30 25 1 17 6
M  V30 26 1 14 9
M  V30 27 1 1 24
M  V30 28 1 2 25
M  V30 29 1 5 26
M  V30 30 1 7 27
M  V30 31 1 10 28
M  V30 32 1 11 29
M  V30 33 1 12 30
M  V30 34 1 14 31
M  V30 35 1 15 32
M  V30 36 1 16 33
M  V30 37 1 19 34
M  V30 38 1 20 35
M  V30 39 1 21 36
M  V30 40 1 22 37
M  V30 41 1 23 38
M  V30 END BOND
M  V30 END CTAB
M  END
>  <Dataset>  (88) 
ChEMBL_Kinases

>  <Ligand_Instance>  (88) 
nan

>  <PDB_ID>  (88) 
nan

>  <Standardized_SMILES>  (88) 
C(=C/c1n[nH]c2cc(-c3cccnc3)ccc12)\c1ccccc1

>  <Name>  (88) 
nan

>  <Pocket>  (88) 
nan

>  <ATP_Site>  (88) 
nan

>  <Peripheral>  (88) 
nan

>  <Num_H_Atoms_ProtBoundConf>  (88) 
nan

>  <Num_Resolved_Atoms>  (88) 
nan

>  <Num_Not_Resolved_Atoms>  (88) 
nan

$$$$
CHEMBL3918849
     RDKit          3D

  0  0  0  0  0  0  0  0  0  0999 V3000
M  V30 BEGIN CTAB
M  V30 COUNTS 43 46 0 0 0
M  V30 BEGIN ATOM
M  V30 1 N -1.399616 -7.547468 -0.388103 0
M  V30 2 S -1.466605 -6.584401 -1.722008 0
M  V30 3 O -2.796005 -6.382494 -2.290937 0
M  V30 4 O -0.469545 -7.555435 -2.832912 0
M  V30 5 C -0.457018 -5.171055 -1.482363 0
M  V30 6 C 0.880780 -5.079274 -1.816074 0
M  V30 7 C 1.590960 -3.915593 -1.585526 0
M  V30 8 C 0.946260 -2.828898 -1.011167 0
M  V30 9 N 1.492365 -1.618284 -0.718431 0
M  V30 10 C 0.459354 -0.908429 -0.175271 0
M  V30 11 C 0.501871 0.483092 0.321829 0
M  V30 12 C -0.639873 1.092288 0.857930 0
M  V30 13 C -0.509156 2.413731 1.305202 0
M  V30 14 C 0.687949 3.099125 1.227240 0
M  V30 15 O 0.762052 4.425718 1.691930 0
M  V30 16 C 1.096979 4.703696 3.011197 0
M  V30 17 C 2.344620 4.917347 3.579415 0
M  V30 18 C 2.413984 5.177432 4.923610 0
M  V30 19 C 1.334181 5.244092 5.762214 0
M  V30 20 Cl 1.561254 5.586609 7.471345 0
M  V30 21 C 0.081700 5.027563 5.180947 0
M  V30 22 C -0.026356 4.765092 3.841559 0
M  V30 23 C 1.813597 2.474287 0.689840 0
M  V30 24 C 1.725270 1.155543 0.231918 0
M  V30 25 N -0.655154 -1.670967 -0.148119 0
M  V30 26 C -0.390755 -2.895193 -0.668348 0
M  V30 27 C -1.071806 -4.075072 -0.912816 0
M  V30 28 H -0.468603 -7.970274 -0.182434 0
M  V30 29 H -1.908599 -7.230152 0.447149 0
M  V30 30 H -3.211683 -5.488996 -2.435138 0
M  V30 31 H 0.312085 -7.761768 -2.260613 0
M  V30 32 H 1.312076 -5.983714 -2.265209 0
M  V30 33 H 2.637030 -3.926277 -1.876613 0
M  V30 34 H 2.457322 -1.291021 -0.863691 0
M  V30 35 H -1.564390 0.543464 0.911012 0
M  V30 36 H -1.364969 2.919523 1.725009 0
M  V30 37 H 3.138356 4.851260 2.872609 0
M  V30 38 H 3.411209 5.333879 5.302010 0
M  V30 39 H -0.771040 5.081057 5.847687 0
M  V30 40 H -1.044968 4.615397 3.508454 0
M  V30 41 H 2.761176 3.004237 0.623536 0
M  V30 42 H 2.577735 0.633860 -0.192791 0
M  V30 43 H -2.109057 -4.042906 -0.616286 0
M  V30 END ATOM
M  V30 BEGIN BOND
M  V30 1 1 1 2
M  V30 2 1 2 3
M  V30 3 1 2 4
M  V30 4 1 2 5
M  V30 5 2 5 6
M  V30 6 1 6 7
M  V30 7 2 7 8
M  V30 8 1 8 9
M  V30 9 1 9 10
M  V30 10 1 10 11
M  V30 11 2 11 12
M  V30 12 1 12 13
M  V30 13 2 13 14
M  V30 14 1 14 15
M  V30 15 1 15 16
M  V30 16 2 16 17
M  V30 17 1 17 18
M  V30 18 2 18 19
M  V30 19 1 19 20
M  V30 20 1 19 21
M  V30 21 2 21 22
M  V30 22 1 14 23
M  V30 23 2 23 24
M  V30 24 2 10 25
M  V30 25 1 25 26
M  V30 26 2 26 27
M  V30 27 1 27 5
M  V30 28 1 26 8
M  V30 29 1 24 11
M  V30 30 1 22 16
M  V30 31 1 1 28
M  V30 32 1 1 29
M  V30 33 1 3 30
M  V30 34 1 4 31
M  V30 35 1 6 32
M  V30 36 1 7 33
M  V30 37 1 9 34
M  V30 38 1 12 35
M  V30 39 1 13 36
M  V30 40 1 17 37
M  V30 41 1 18 38
M  V30 42 1 21 39
M  V30 43 1 22 40
M  V30 44 1 23 41
M  V30 45 1 24 42
M  V30 46 1 27 43
M  V30 END BOND
M  V30 END CTAB
M  END
>  <Dataset>  (89) 
ChEMBL_Kinases

>  <Ligand_Instance>  (89) 
nan

>  <PDB_ID>  (89) 
nan

>  <Standardized_SMILES>  (89) 
NS(O)(O)c1ccc2[nH]c(-c3ccc(Oc4ccc(Cl)cc4)cc3)nc2c1

>  <Name>  (89) 
nan

>  <Pocket>  (89) 
nan

>  <ATP_Site>  (89) 
nan

>  <Peripheral>  (89) 
nan

>  <Num_H_Atoms_ProtBoundConf>  (89) 
nan

>  <Num_Resolved_Atoms>  (89) 
nan

>  <Num_Not_Resolved_Atoms>  (89) 
nan

$$$$
CHEMBL3918822
     RDKit          3D

  0  0  0  0  0  0  0  0  0  0999 V3000
M  V30 BEGIN CTAB
M  V30 COUNTS 70 74 0 0 0
M  V30 BEGIN ATOM
M  V30 1 C 2.636956 -1.533700 2.718721 0
M  V30 2 C 3.607050 -1.090620 1.648973 0 CFG=1
M  V30 3 C 4.134393 -2.289581 0.946283 0
M  V30 4 N 3.918483 -2.261327 -0.489056 0
M  V30 5 C 2.607571 -2.682092 -0.740642 0
M  V30 6 C 2.137252 -2.880909 -2.137160 0
M  V30 7 C 2.152364 -1.733069 -3.058786 0
M  V30 8 C 0.934156 -2.001993 -3.964343 0
M  V30 9 C -0.102179 -2.380191 -2.938454 0
M  V30 10 C 0.664018 -3.300747 -2.022935 0
M  V30 11 C 4.414737 -1.038507 -0.972526 0
M  V30 12 C 4.097668 0.180247 -0.189227 0
M  V30 13 N 3.057421 -0.092024 0.777290 0
M  V30 14 C 1.862705 0.654024 0.620809 0
M  V30 15 O 1.179995 0.181393 1.594026 0
M  V30 16 N 0.570924 1.173282 0.792922 0
M  V30 17 C -0.570844 0.997668 1.666692 0
M  V30 18 C -1.676049 1.035577 0.677043 0
M  V30 19 C -2.959537 0.630055 0.383097 0
M  V30 20 N -3.847208 -0.159852 1.155201 0
M  V30 21 C -4.817834 0.169594 2.101971 0
M  V30 22 O -4.864126 1.424690 2.253777 0
M  V30 23 C -5.657586 -0.773767 2.814612 0
M  V30 24 C -6.589022 -0.183502 3.673900 0
M  V30 25 C -7.456298 -0.943660 4.413456 0
M  V30 26 C -7.454464 -2.314393 4.348083 0
M  V30 27 F -8.270475 -3.144211 5.037923 0
M  V30 28 C -6.558927 -2.915454 3.519874 0
M  V30 29 C -5.696678 -2.135205 2.786086 0
M  V30 30 F -4.801543 -2.719287 1.960763 0
M  V30 31 N -3.296503 1.120889 -0.837456 0
M  V30 32 N -2.280292 1.817373 -1.322933 0
M  V30 33 C -1.274289 1.780107 -0.412792 0
M  V30 34 C 0.112685 2.219863 -0.102086 0
M  V30 35 C 0.015313 3.563365 0.564530 0
M  V30 36 C 0.898663 2.294029 -1.390590 0
M  V30 37 H 3.074027 -2.359011 3.319981 0
M  V30 38 H 1.764385 -1.984234 2.208422 0
M  V30 39 H 2.347108 -0.692032 3.402187 0
M  V30 40 H 4.434823 -0.558366 2.217206 0
M  V30 41 H 3.721691 -3.250259 1.316189 0
M  V30 42 H 5.239097 -2.353881 1.113204 0
M  V30 43 H 2.511586 -3.714138 -0.258722 0
M  V30 44 H 1.822732 -2.106454 -0.162045 0
M  V30 45 H 2.706550 -3.716578 -2.620988 0
M  V30 46 H 1.951193 -0.739357 -2.634097 0
M  V30 47 H 3.001187 -1.751497 -3.792266 0
M  V30 48 H 0.681312 -1.145724 -4.587323 0
M  V30 49 H 1.138443 -2.926615 -4.578121 0
M  V30 50 H -0.961632 -2.890653 -3.442120 0
M  V30 51 H -0.430118 -1.441002 -2.431196 0
M  V30 52 H 0.559086 -4.346871 -2.339131 0
M  V30 53 H 0.278850 -3.131585 -1.002145 0
M  V30 54 H 4.263217 -0.883675 -2.079374 0
M  V30 55 H 5.558928 -1.152794 -0.942487 0
M  V30 56 H 5.037478 0.515192 0.347646 0
M  V30 57 H 3.850778 1.062465 -0.830228 0
M  V30 58 H -0.591839 1.905054 2.322653 0
M  V30 59 H -0.594150 0.068940 2.230759 0
M  V30 60 H -3.653473 -1.146124 0.885856 0
M  V30 61 H -6.665995 0.888891 3.792292 0
M  V30 62 H -8.169238 -0.477562 5.072150 0
M  V30 63 H -6.473553 -4.000451 3.392559 0
M  V30 64 H -2.154771 2.338279 -2.215515 0
M  V30 65 H 0.384528 3.540773 1.609986 0
M  V30 66 H 0.700694 4.255918 0.004072 0
M  V30 67 H -1.022639 3.981394 0.522561 0
M  V30 68 H 0.317613 2.953644 -2.071731 0
M  V30 69 H 0.907691 1.284939 -1.851139 0
M  V30 70 H 1.917684 2.670987 -1.177638 0
M  V30 END ATOM
M  V30 BEGIN BOND
M  V30 1 1 1 2
M  V30 2 1 2 3
M  V30 3 1 3 4
M  V30 4 1 4 5
M  V30 5 1 5 6
M  V30 6 1 6 7
M  V30 7 1 7 8
M  V30 8 1 8 9
M  V30 9 1 9 10
M  V30 10 1 4 11
M  V30 11 1 11 12
M  V30 12 1 12 13
M  V30 13 1 13 14
M  V30 14 2 14 15
M  V30 15 1 14 16
M  V30 16 1 16 17
M  V30 17 1 17 18
M  V30 18 1 18 19
M  V30 19 1 19 20
M  V30 20 1 20 21
M  V30 21 2 21 22
M  V30 22 1 21 23
M  V30 23 2 23 24
M  V30 24 1 24 25
M  V30 25 2 25 26
M  V30 26 1 26 27
M  V30 27 1 26 28
M  V30 28 2 28 29
M  V30 29 1 29 30
M  V30 30 2 19 31
M  V30 31 1 31 32
M  V30 32 1 32 33
M  V30 33 1 33 34
M  V30 34 1 34 35
M  V30 35 1 34 36
M  V30 36 1 13 2
M  V30 37 1 34 16
M  V30 38 1 10 6
M  V30 39 2 33 18
M  V30 40 1 29 23
M  V30 41 1 1 37
M  V30 42 1 1 38
M  V30 43 1 1 39
M  V30 44 1 2 40 CFG=1
M  V30 45 1 3 41
M  V30 46 1 3 42
M  V30 47 1 5 43
M  V30 48 1 5 44
M  V30 49 1 6 45
M  V30 50 1 7 46
M  V30 51 1 7 47
M  V30 52 1 8 48
M  V30 53 1 8 49
M  V30 54 1 9 50
M  V30 55 1 9 51
M  V30 56 1 10 52
M  V30 57 1 10 53
M  V30 58 1 11 54
M  V30 59 1 11 55
M  V30 60 1 12 56
M  V30 61 1 12 57
M  V30 62 1 17 58
M  V30 63 1 17 59
M  V30 64 1 20 60
M  V30 65 1 24 61
M  V30 66 1 25 62
M  V30 67 1 28 63
M  V30 68 1 32 64
M  V30 69 1 35 65
M  V30 70 1 35 66
M  V30 71 1 35 67
M  V30 72 1 36 68
M  V30 73 1 36 69
M  V30 74 1 36 70
M  V30 END BOND
M  V30 END CTAB
M  END
>  <Dataset>  (90) 
ChEMBL_Kinases

>  <Ligand_Instance>  (90) 
nan

>  <PDB_ID>  (90) 
nan

>  <Standardized_SMILES>  (90) 
C[C@H]1CN(CC2CCCC2)CCN1C(=O)N1Cc2c(NC(=O)c3ccc(F)cc3F)n[nH]c2C1(C)C

>  <Name>  (90) 
nan

>  <Pocket>  (90) 
nan

>  <ATP_Site>  (90) 
nan

>  <Peripheral>  (90) 
nan

>  <Num_H_Atoms_ProtBoundConf>  (90) 
nan

>  <Num_Resolved_Atoms>  (90) 
nan

>  <Num_Not_Resolved_Atoms>  (90) 
nan

$$$$
CHEMBL4876594
     RDKit          3D

  0  0  0  0  0  0  0  0  0  0999 V3000
M  V30 BEGIN CTAB
M  V30 COUNTS 43 45 0 0 0
M  V30 BEGIN ATOM
M  V30 1 C 0.404926 -2.136881 2.942728 0
M  V30 2 N -0.775043 -2.764614 2.425213 0
M  V30 3 C -1.503148 -2.492855 1.237219 0
M  V30 4 N -1.144783 -1.528104 0.374932 0
M  V30 5 C -1.818946 -1.257112 -0.750391 0
M  V30 6 N -1.493490 -0.253710 -1.700013 0
M  V30 7 C -0.428675 0.673143 -1.701468 0
M  V30 8 C -0.288933 1.585050 -2.748188 0
M  V30 9 N 0.706226 2.481236 -2.788242 0
M  V30 10 C 1.642308 2.546550 -1.795980 0
M  V30 11 C 2.639593 3.561624 -1.991121 0
M  V30 12 N 3.446616 4.374430 -2.128772 0
M  V30 13 C 1.570670 1.662131 -0.707200 0
M  V30 14 O 2.587651 1.911113 0.134904 0
M  V30 15 C 3.006268 1.374320 1.323464 0 CFG=1
M  V30 16 C 2.036162 1.413647 2.467435 0
M  V30 17 C 2.715295 0.466224 3.449626 0
M  V30 18 N 3.504255 -0.437231 2.664406 0
M  V30 19 C 3.378718 -0.100029 1.280681 0
M  V30 20 C 0.527829 0.766000 -0.722137 0
M  V30 21 N -2.901232 -2.016530 -0.983681 0
M  V30 22 C -3.341614 -2.998307 -0.192440 0
M  V30 23 C -2.621882 -3.243969 0.951491 0
M  V30 24 C -3.056308 -4.316506 1.869317 0
M  V30 25 F -3.354652 -3.867827 3.142557 0
M  V30 26 F -4.185382 -4.936868 1.386473 0
M  V30 27 F -2.101332 -5.318773 2.010132 0
M  V30 28 H 1.177892 -2.932298 3.105253 0
M  V30 29 H 0.813281 -1.359284 2.258758 0
M  V30 30 H 0.248274 -1.658192 3.930421 0
M  V30 31 H -1.087557 -3.521458 3.067398 0
M  V30 32 H -2.131908 -0.172904 -2.538089 0
M  V30 33 H -0.995883 1.594164 -3.574985 0
M  V30 34 H 3.938961 1.883115 1.697773 0
M  V30 35 H 1.971392 2.399253 2.970053 0
M  V30 36 H 1.039261 1.023165 2.262590 0
M  V30 37 H 1.978414 -0.005215 4.112038 0
M  V30 38 H 3.429951 1.061616 4.079331 0
M  V30 39 H 3.206243 -1.416599 2.862574 0
M  V30 40 H 2.621596 -0.740971 0.820315 0
M  V30 41 H 4.321145 -0.230457 0.708595 0
M  V30 42 H 0.517799 0.123180 0.118613 0
M  V30 43 H -4.224990 -3.572646 -0.442792 0
M  V30 END ATOM
M  V30 BEGIN BOND
M  V30 1 1 1 2
M  V30 2 1 2 3
M  V30 3 2 3 4
M  V30 4 1 4 5
M  V30 5 1 5 6
M  V30 6 1 6 7
M  V30 7 2 7 8
M  V30 8 1 8 9
M  V30 9 2 9 10
M  V30 10 1 10 11
M  V30 11 3 11 12
M  V30 12 1 10 13
M  V30 13 1 13 14
M  V30 14 1 14 15
M  V30 15 1 15 16
M  V30 16 1 16 17
M  V30 17 1 17 18
M  V30 18 1 18 19
M  V30 19 2 13 20
M  V30 20 2 5 21
M  V30 21 1 21 22
M  V30 22 2 22 23
M  V30 23 1 23 24
M  V30 24 1 24 25
M  V30 25 1 24 26
M  V30 26 1 24 27
M  V30 27 1 23 3
M  V30 28 1 20 7
M  V30 29 1 19 15
M  V30 30 1 1 28
M  V30 31 1 1 29
M  V30 32 1 1 30
M  V30 33 1 2 31
M  V30 34 1 6 32
M  V30 35 1 8 33
M  V30 36 1 15 34 CFG=1
M  V30 37 1 16 35
M  V30 38 1 16 36
M  V30 39 1 17 37
M  V30 40 1 17 38
M  V30 41 1 18 39
M  V30 42 1 19 40
M  V30 43 1 19 41
M  V30 44 1 20 42
M  V30 45 1 22 43
M  V30 END BOND
M  V30 END CTAB
M  END
>  <Dataset>  (91) 
ChEMBL_Kinases

>  <Ligand_Instance>  (91) 
nan

>  <PDB_ID>  (91) 
nan

>  <Standardized_SMILES>  (91) 
CNc1nc(Nc2cnc(C#N)c(O[C@H]3CCNC3)c2)ncc1C(F)(F)F

>  <Name>  (91) 
nan

>  <Pocket>  (91) 
nan

>  <ATP_Site>  (91) 
nan

>  <Peripheral>  (91) 
nan

>  <Num_H_Atoms_ProtBoundConf>  (91) 
nan

>  <Num_Resolved_Atoms>  (91) 
nan

>  <Num_Not_Resolved_Atoms>  (91) 
nan

$$$$
CHEMBL3918552
     RDKit          3D

  0  0  0  0  0  0  0  0  0  0999 V3000
M  V30 BEGIN CTAB
M  V30 COUNTS 62 68 0 0 0
M  V30 BEGIN ATOM
M  V30 1 C 2.905187 0.643594 4.180885 0
M  V30 2 C 3.880302 0.860947 3.084917 0
M  V30 3 C 4.342302 -0.320770 2.323647 0
M  V30 4 N 3.400954 -1.098205 1.625243 0
M  V30 5 C 2.498767 -1.882473 2.437436 0
M  V30 6 C 2.584208 -3.355262 2.057759 0
M  V30 7 O 2.394981 -3.612005 0.732630 0
M  V30 8 C 3.011902 -2.740327 -0.146546 0
M  V30 9 C 4.048277 -1.938706 0.625427 0
M  V30 10 N 3.406134 1.939235 2.229670 0
M  V30 11 C 2.178195 1.905693 1.531117 0
M  V30 12 N 2.028679 1.345118 0.463387 0
M  V30 13 C 0.919471 1.289093 -0.229845 0
M  V30 14 C 0.719716 0.649775 -1.462893 0
M  V30 15 C -0.517562 0.699749 -2.041319 0
M  V30 16 C -1.646140 1.342871 -1.517689 0
M  V30 17 N -2.839215 1.314938 -2.261581 0
M  V30 18 C -2.936977 2.341956 -3.153810 0
M  V30 19 N -4.123796 2.192936 -3.815424 0
M  V30 20 C -4.730701 1.076954 -3.315249 0
M  V30 21 C -5.951822 0.457374 -3.620630 0
M  V30 22 N -6.256603 -0.653947 -2.924746 0
M  V30 23 C -5.441828 -1.153296 -1.984467 0
M  V30 24 C -5.859844 -2.298970 -1.335298 0
M  V30 25 N -5.024065 -2.786391 -0.389671 0
M  V30 26 C -3.857290 -2.210950 -0.083855 0
M  V30 27 C -3.117529 -2.896159 0.972346 0
M  V30 28 C -3.259833 -3.984702 1.743814 0
M  V30 29 C -2.320358 -4.323739 2.661729 0
M  V30 30 C -1.214270 -3.519198 2.781072 0
M  V30 31 S -1.488167 -2.191893 1.531465 0
M  V30 32 C -3.371721 -1.073634 -0.682632 0
M  V30 33 C -4.234410 -0.593166 -1.639919 0
M  V30 34 C -3.906680 0.548012 -2.345322 0
M  V30 35 C -1.454614 1.969836 -0.309413 0
M  V30 36 C -0.190317 1.912701 0.272074 0
M  V30 37 S 0.406851 2.606359 1.814958 0
M  V30 38 H 1.920017 0.326094 3.814437 0
M  V30 39 H 3.317765 -0.046071 4.964572 0
M  V30 40 H 2.763702 1.666114 4.664662 0
M  V30 41 H 4.804117 1.298319 3.574455 0
M  V30 42 H 5.214226 -0.039184 1.659125 0
M  V30 43 H 4.833888 -1.010881 3.081497 0
M  V30 44 H 1.452740 -1.532478 2.408529 0
M  V30 45 H 2.849294 -1.834737 3.485621 0
M  V30 46 H 3.592293 -3.692369 2.430328 0
M  V30 47 H 1.844281 -3.891206 2.667699 0
M  V30 48 H 3.568200 -3.335158 -0.899307 0
M  V30 49 H 2.291348 -2.077627 -0.667701 0
M  V30 50 H 4.743444 -2.676620 1.076758 0
M  V30 51 H 4.631815 -1.337555 -0.094270 0
M  V30 52 H 3.921647 2.848787 2.042839 0
M  V30 53 H 1.522562 0.109710 -1.980323 0
M  V30 54 H -0.641364 0.186567 -3.010383 0
M  V30 55 H -2.366882 3.213391 -3.481182 0
M  V30 56 H -6.520904 0.951953 -4.397996 0
M  V30 57 H -6.800124 -2.774397 -1.571251 0
M  V30 58 H -4.181841 -4.503369 1.521431 0
M  V30 59 H -2.460317 -5.222664 3.283944 0
M  V30 60 H -0.388489 -3.729022 3.520009 0
M  V30 61 H -2.436779 -0.673615 -0.394839 0
M  V30 62 H -2.258004 2.490427 0.175791 0
M  V30 END ATOM
M  V30 BEGIN BOND
M  V30 1 1 1 2
M  V30 2 1 2 3
M  V30 3 1 3 4
M  V30 4 1 4 5
M  V30 5 1 5 6
M  V30 6 1 6 7
M  V30 7 1 7 8
M  V30 8 1 8 9
M  V30 9 1 2 10
M  V30 10 1 10 11
M  V30 11 2 11 12
M  V30 12 1 12 13
M  V30 13 2 13 14
M  V30 14 1 14 15
M  V30 15 2 15 16
M  V30 16 1 16 17
M  V30 17 1 17 18
M  V30 18 2 18 19
M  V30 19 1 19 20
M  V30 20 2 20 21
M  V30 21 1 21 22
M  V30 22 2 22 23
M  V30 23 1 23 24
M  V30 24 2 24 25
M  V30 25 1 25 26
M  V30 26 1 26 27
M  V30 27 2 27 28
M  V30 28 1 28 29
M  V30 29 2 29 30
M  V30 30 1 30 31
M  V30 31 2 26 32
M  V30 32 1 32 33
M  V30 33 2 33 34
M  V30 34 1 16 35
M  V30 35 2 35 36
M  V30 36 1 36 37
M  V30 37 1 9 4
M  V30 38 1 37 11
M  V30 39 1 36 13
M  V30 40 1 34 17
M  V30 41 1 34 20
M  V30 42 1 33 23
M  V30 43 1 31 27
M  V30 44 1 1 38
M  V30 45 1 1 39
M  V30 46 1 1 40
M  V30 47 1 2 41
M  V30 48 1 3 42
M  V30 49 1 3 43
M  V30 50 1 5 44
M  V30 51 1 5 45
M  V30 52 1 6 46
M  V30 53 1 6 47
M  V30 54 1 8 48
M  V30 55 1 8 49
M  V30 56 1 9 50
M  V30 57 1 9 51
M  V30 58 1 10 52
M  V30 59 1 14 53
M  V30 60 1 15 54
M  V30 61 1 18 55
M  V30 62 1 21 56
M  V30 63 1 24 57
M  V30 64 1 28 58
M  V30 65 1 29 59
M  V30 66 1 30 60
M  V30 67 1 32 61
M  V30 68 1 35 62
M  V30 END BOND
M  V30 END CTAB
M  END
>  <Dataset>  (92) 
ChEMBL_Kinases

>  <Ligand_Instance>  (92) 
nan

>  <PDB_ID>  (92) 
nan

>  <Standardized_SMILES>  (92) 
CC(CN1CCOCC1)Nc1nc2ccc(-n3cnc4cnc5cnc(-c6cccs6)cc5c43)cc2s1

>  <Name>  (92) 
nan

>  <Pocket>  (92) 
nan

>  <ATP_Site>  (92) 
nan

>  <Peripheral>  (92) 
nan

>  <Num_H_Atoms_ProtBoundConf>  (92) 
nan

>  <Num_Resolved_Atoms>  (92) 
nan

>  <Num_Not_Resolved_Atoms>  (92) 
nan

$$$$
CHEMBL3921008
     RDKit          3D

  0  0  0  0  0  0  0  0  0  0999 V3000
M  V30 BEGIN CTAB
M  V30 COUNTS 78 83 0 0 0
M  V30 BEGIN ATOM
M  V30 1 C 1.278777 -0.963207 3.128321 0
M  V30 2 C 2.432690 -1.770651 2.588565 0 CFG=1
M  V30 3 C 2.026256 -3.028271 1.884268 0
M  V30 4 N 2.976524 -3.519035 0.975191 0
M  V30 5 C 2.575563 -4.476950 0.035670 0
M  V30 6 C 1.618503 -3.985006 -1.023103 0
M  V30 7 C 2.222481 -2.857650 -1.835596 0
M  V30 8 C 1.417442 -2.677165 -3.103431 0
M  V30 9 O 1.604341 -3.737177 -3.969502 0
M  V30 10 C 1.905867 -4.924396 -3.345867 0
M  V30 11 C 1.252939 -5.087545 -1.995110 0
M  V30 12 C 4.300054 -3.076870 1.015611 0
M  V30 13 C 4.537520 -1.665575 1.498810 0
M  V30 14 N 3.254880 -1.025286 1.635598 0
M  V30 15 C 2.934550 0.143990 0.913240 0
M  V30 16 O 4.082999 0.092888 0.414672 0
M  V30 17 N 2.042455 1.182283 0.556034 0
M  V30 18 C 0.693928 1.604062 0.860845 0
M  V30 19 C 0.125032 2.022902 -0.447700 0
M  V30 20 C -1.039727 2.165590 -1.177361 0
M  V30 21 N -2.353741 1.852505 -0.722743 0
M  V30 22 C -3.517729 2.034067 -1.535945 0
M  V30 23 O -3.276558 2.494800 -2.683865 0
M  V30 24 C -4.834606 1.676375 -0.969665 0
M  V30 25 C -5.127561 1.165725 0.276889 0
M  V30 26 N -6.459843 1.004413 0.324872 0
M  V30 27 C -7.028758 0.465574 1.563690 0
M  V30 28 C -6.430988 -0.894610 1.925575 0
M  V30 29 C -6.333593 -0.407468 3.354307 0
M  V30 30 C -6.461829 1.011877 2.828908 0
M  V30 31 C -7.008298 1.399243 -0.854675 0
M  V30 32 N -5.995570 1.810148 -1.641163 0
M  V30 33 N -0.683677 2.644302 -2.373106 0
M  V30 34 N 0.630151 2.788718 -2.380349 0
M  V30 35 C 1.196357 2.416173 -1.201855 0
M  V30 36 C 2.386934 2.236371 -0.362361 0
M  V30 37 C 3.567235 1.915313 -1.255850 0
M  V30 38 C 2.636034 3.473639 0.463978 0
M  V30 39 H 1.556244 0.092349 3.175935 0
M  V30 40 H 0.331885 -1.183974 2.594419 0
M  V30 41 H 1.089932 -1.287560 4.194132 0
M  V30 42 H 3.116469 -2.091936 3.425495 0
M  V30 43 H 1.022966 -2.887337 1.396939 0
M  V30 44 H 1.839917 -3.813602 2.673842 0
M  V30 45 H 2.095885 -5.322839 0.561614 0
M  V30 46 H 3.458859 -4.887284 -0.496944 0
M  V30 47 H 0.664887 -3.600302 -0.609393 0
M  V30 48 H 2.230839 -1.887717 -1.319308 0
M  V30 49 H 3.273502 -3.127680 -2.101500 0
M  V30 50 H 1.715177 -1.696256 -3.556378 0
M  V30 51 H 0.358913 -2.599366 -2.809898 0
M  V30 52 H 2.987571 -5.151645 -3.276085 0
M  V30 53 H 1.440079 -5.729907 -3.984310 0
M  V30 54 H 0.157440 -5.145248 -2.163754 0
M  V30 55 H 1.543774 -6.088901 -1.611014 0
M  V30 56 H 4.747300 -3.158860 0.006338 0
M  V30 57 H 4.905704 -3.751307 1.655992 0
M  V30 58 H 4.978481 -1.697739 2.545163 0
M  V30 59 H 5.298015 -1.136341 0.916029 0
M  V30 60 H 0.051236 0.771487 1.236497 0
M  V30 61 H 0.666759 2.414841 1.624087 0
M  V30 62 H -2.493184 1.474940 0.236258 0
M  V30 63 H -4.335413 0.977702 0.986403 0
M  V30 64 H -8.135802 0.498090 1.567535 0
M  V30 65 H -5.427109 -0.997740 1.426339 0
M  V30 66 H -7.099419 -1.759929 1.757808 0
M  V30 67 H -7.239004 -0.755252 3.927956 0
M  V30 68 H -5.370809 -0.639217 3.856260 0
M  V30 69 H -7.185276 1.565737 3.488731 0
M  V30 70 H -5.453387 1.454190 2.769450 0
M  V30 71 H -8.082479 1.315494 -0.936290 0
M  V30 72 H 1.184546 3.152174 -3.204565 0
M  V30 73 H 3.473319 2.622572 -2.124545 0
M  V30 74 H 3.455425 0.891215 -1.658851 0
M  V30 75 H 4.486143 2.073207 -0.696378 0
M  V30 76 H 1.898168 4.241190 0.159199 0
M  V30 77 H 2.529127 3.310799 1.544732 0
M  V30 78 H 3.651137 3.887390 0.278179 0
M  V30 END ATOM
M  V30 BEGIN BOND
M  V30 1 1 1 2
M  V30 2 1 2 3
M  V30 3 1 3 4
M  V30 4 1 4 5
M  V30 5 1 5 6
M  V30 6 1 6 7
M  V30 7 1 7 8
M  V30 8 1 8 9
M  V30 9 1 9 10
M  V30 10 1 10 11
M  V30 11 1 4 12
M  V30 12 1 12 13
M  V30 13 1 13 14
M  V30 14 1 14 15
M  V30 15 2 15 16
M  V30 16 1 15 17
M  V30 17 1 17 18
M  V30 18 1 18 19
M  V30 19 1 19 20
M  V30 20 1 20 21
M  V30 21 1 21 22
M  V30 22 2 22 23
M  V30 23 1 22 24
M  V30 24 2 24 25
M  V30 25 1 25 26
M  V30 26 1 26 27
M  V30 27 1 27 28
M  V30 28 1 28 29
M  V30 29 1 29 30
M  V30 30 1 26 31
M  V30 31 2 31 32
M  V30 32 2 20 33
M  V30 33 1 33 34
M  V30 34 1 34 35
M  V30 35 1 35 36
M  V30 36 1 36 37
M  V30 37 1 36 38
M  V30 38 1 14 2
M  V30 39 1 36 17
M  V30 40 1 11 6
M  V30 41 2 35 19
M  V30 42 1 32 24
M  V30 43 1 30 27
M  V30 44 1 1 39
M  V30 45 1 1 40
M  V30 46 1 1 41
M  V30 47 1 2 42 CFG=1
M  V30 48 1 3 43
M  V30 49 1 3 44
M  V30 50 1 5 45
M  V30 51 1 5 46
M  V30 52 1 6 47
M  V30 53 1 7 48
M  V30 54 1 7 49
M  V30 55 1 8 50
M  V30 56 1 8 51
M  V30 57 1 10 52
M  V30 58 1 10 53
M  V30 59 1 11 54
M  V30 60 1 11 55
M  V30 61 1 12 56
M  V30 62 1 12 57
M  V30 63 1 13 58
M  V30 64 1 13 59
M  V30 65 1 18 60
M  V30 66 1 18 61
M  V30 67 1 21 62
M  V30 68 1 25 63
M  V30 69 1 27 64
M  V30 70 1 28 65
M  V30 71 1 28 66
M  V30 72 1 29 67
M  V30 73 1 29 68
M  V30 74 1 30 69
M  V30 75 1 30 70
M  V30 76 1 31 71
M  V30 77 1 34 72
M  V30 78 1 37 73
M  V30 79 1 37 74
M  V30 80 1 37 75
M  V30 81 1 38 76
M  V30 82 1 38 77
M  V30 83 1 38 78
M  V30 END BOND
M  V30 END CTAB
M  END
>  <Dataset>  (93) 
ChEMBL_Kinases

>  <Ligand_Instance>  (93) 
nan

>  <PDB_ID>  (93) 
nan

>  <Standardized_SMILES>  (93) 
C[C@H]1CN(CC2CCOCC2)CCN1C(=O)N1Cc2c(NC(=O)c3cn(C4CCC4)cn3)n[nH]c2C1(C)C

>  <Name>  (93) 
nan

>  <Pocket>  (93) 
nan

>  <ATP_Site>  (93) 
nan

>  <Peripheral>  (93) 
nan

>  <Num_H_Atoms_ProtBoundConf>  (93) 
nan

>  <Num_Resolved_Atoms>  (93) 
nan

>  <Num_Not_Resolved_Atoms>  (93) 
nan

$$$$
CHEMBL3918278
     RDKit          3D

  0  0  0  0  0  0  0  0  0  0999 V3000
M  V30 BEGIN CTAB
M  V30 COUNTS 55 59 0 0 0
M  V30 BEGIN ATOM
M  V30 1 C 2.219302 -2.854566 0.915397 0
M  V30 2 C 0.984236 -2.300551 0.307897 0
M  V30 3 C 0.822401 -1.000854 0.406507 0
M  V30 4 C 1.625701 0.032028 1.003561 0
M  V30 5 O 1.259086 1.258405 0.977077 0
M  V30 6 N 2.823186 0.243219 1.700803 0
M  V30 7 C 3.142213 1.586284 2.073025 0
M  V30 8 C 2.687159 2.032824 3.315628 0
M  V30 9 C 2.971376 3.322401 3.716793 0
M  V30 10 C 3.700546 4.204864 2.925064 0
M  V30 11 N 4.105372 5.484273 3.078021 0
M  V30 12 N 4.786038 5.856940 2.000295 0
M  V30 13 C 4.822205 4.803239 1.137273 0
M  V30 14 C 4.143345 3.730142 1.685729 0
M  V30 15 C 3.869670 2.439318 1.262624 0
M  V30 16 C -0.451404 -0.482982 -0.225586 0
M  V30 17 C -1.268522 0.281857 0.793565 0
M  V30 18 C -1.794210 -0.620820 1.725601 0
M  V30 19 C -2.593037 -0.181669 2.761180 0
M  V30 20 C -2.886066 1.160295 2.892768 0
M  V30 21 F -3.640391 1.765680 3.831008 0
M  V30 22 C -2.352466 2.022240 1.957552 0
M  V30 23 C -1.551774 1.623294 0.910378 0
M  V30 24 N -1.208925 -1.516371 -0.807306 0
M  V30 25 C -1.057693 -2.753293 -0.903750 0
M  V30 26 C -2.026099 -3.610176 -1.578383 0
M  V30 27 C -3.153331 -3.014246 -2.129536 0
M  V30 28 C -4.107596 -3.798455 -2.785205 0
M  V30 29 C -3.876153 -5.155502 -2.853181 0
M  V30 30 C -4.897103 -6.010377 -3.556526 0
M  V30 31 F -6.014473 -6.053341 -2.743376 0
M  V30 32 F -5.243368 -5.450741 -4.769329 0
M  V30 33 F -4.417117 -7.277008 -3.770575 0
M  V30 34 C -2.770867 -5.794747 -2.320817 0
M  V30 35 C -1.843845 -4.973865 -1.675217 0
M  V30 36 N 0.119594 -3.232566 -0.313178 0
M  V30 37 H 2.263281 -3.969557 0.779462 0
M  V30 38 H 3.090878 -2.407946 0.400338 0
M  V30 39 H 2.294153 -2.683141 1.992121 0
M  V30 40 H 3.313539 -0.664259 1.842262 0
M  V30 41 H 2.120185 1.374149 3.951967 0
M  V30 42 H 2.606259 3.652179 4.692437 0
M  V30 43 H 3.854871 5.997128 3.962618 0
M  V30 44 H 5.310666 4.802964 0.162505 0
M  V30 45 H 4.221382 2.091448 0.299941 0
M  V30 46 H -0.118628 0.218258 -1.017559 0
M  V30 47 H -1.661042 -1.695582 1.763689 0
M  V30 48 H -3.037107 -0.811832 3.520651 0
M  V30 49 H -2.526358 3.108976 1.974488 0
M  V30 50 H -1.105371 2.199718 0.139388 0
M  V30 51 H -3.341295 -1.954349 -2.080425 0
M  V30 52 H -4.997310 -3.389252 -3.229180 0
M  V30 53 H -2.637070 -6.861918 -2.401566 0
M  V30 54 H -0.989687 -5.460969 -1.262850 0
M  V30 55 H 0.356747 -4.252121 -0.328824 0
M  V30 END ATOM
M  V30 BEGIN BOND
M  V30 1 1 1 2
M  V30 2 2 2 3
M  V30 3 1 3 4
M  V30 4 2 4 5
M  V30 5 1 4 6
M  V30 6 1 6 7
M  V30 7 2 7 8
M  V30 8 1 8 9
M  V30 9 2 9 10
M  V30 10 1 10 11
M  V30 11 1 11 12
M  V30 12 2 12 13
M  V30 13 1 13 14
M  V30 14 2 14 15
M  V30 15 1 3 16
M  V30 16 1 16 17
M  V30 17 2 17 18
M  V30 18 1 18 19
M  V30 19 2 19 20
M  V30 20 1 20 21
M  V30 21 1 20 22
M  V30 22 2 22 23
M  V30 23 1 16 24
M  V30 24 2 24 25
M  V30 25 1 25 26
M  V30 26 2 26 27
M  V30 27 1 27 28
M  V30 28 2 28 29
M  V30 29 1 29 30
M  V30 30 1 30 31
M  V30 31 1 30 32
M  V30 32 1 30 33
M  V30 33 1 29 34
M  V30 34 2 34 35
M  V30 35 1 25 36
M  V30 36 1 36 2
M  V30 37 1 15 7
M  V30 38 1 23 17
M  V30 39 1 35 26
M  V30 40 1 14 10
M  V30 41 1 1 37
M  V30 42 1 1 38
M  V30 43 1 1 39
M  V30 44 1 6 40
M  V30 45 1 8 41
M  V30 46 1 9 42
M  V30 47 1 11 43
M  V30 48 1 13 44
M  V30 49 1 15 45
M  V30 50 1 16 46
M  V30 51 1 18 47
M  V30 52 1 19 48
M  V30 53 1 22 49
M  V30 54 1 23 50
M  V30 55 1 27 51
M  V30 56 1 28 52
M  V30 57 1 34 53
M  V30 58 1 35 54
M  V30 59 1 36 55
M  V30 END BOND
M  V30 END CTAB
M  END
>  <Dataset>  (94) 
ChEMBL_Kinases

>  <Ligand_Instance>  (94) 
nan

>  <PDB_ID>  (94) 
nan

>  <Standardized_SMILES>  (94) 
CC1=C(C(=O)Nc2ccc3[nH]ncc3c2)C(c2ccc(F)cc2)N=C(c2ccc(C(F)(F)F)cc2)N1

>  <Name>  (94) 
nan

>  <Pocket>  (94) 
nan

>  <ATP_Site>  (94) 
nan

>  <Peripheral>  (94) 
nan

>  <Num_H_Atoms_ProtBoundConf>  (94) 
nan

>  <Num_Resolved_Atoms>  (94) 
nan

>  <Num_Not_Resolved_Atoms>  (94) 
nan

$$$$
CHEMBL3918000
     RDKit          3D

  0  0  0  0  0  0  0  0  0  0999 V3000
M  V30 BEGIN CTAB
M  V30 COUNTS 46 50 0 0 0
M  V30 BEGIN ATOM
M  V30 1 N 3.541983 -2.118920 -0.713460 0
M  V30 2 C 3.187434 -2.328135 0.630821 0
M  V30 3 C 3.693602 -3.458931 1.229111 0
M  V30 4 C 3.393743 -3.737175 2.546804 0
M  V30 5 C 2.577815 -2.864816 3.258322 0
M  V30 6 C 2.102186 -1.748141 2.600904 0
M  V30 7 C 2.373821 -1.426822 1.285335 0
M  V30 8 N 1.853074 -0.257756 0.661208 0
M  V30 9 C 2.688731 0.907761 0.777662 0
M  V30 10 O 3.813058 1.132675 1.325346 0
M  V30 11 C 2.026813 2.029555 0.090182 0
M  V30 12 C 2.255295 3.367405 -0.174854 0
M  V30 13 C 1.352326 4.129930 -0.889423 0
M  V30 14 C 0.198368 3.556530 -1.351774 0
M  V30 15 C -0.073318 2.224789 -1.112076 0
M  V30 16 C 0.850201 1.490145 -0.394413 0
M  V30 17 C 0.669087 0.040283 -0.070380 0
M  V30 18 O 0.684756 -0.643216 -1.285500 0
M  V30 19 C -0.591937 -0.243543 0.601860 0
M  V30 20 C -0.825984 0.278217 1.873234 0
M  V30 21 C -1.997642 0.046174 2.559095 0
M  V30 22 C -3.001402 -0.732353 1.988967 0
M  V30 23 C -2.812724 -1.276883 0.716698 0
M  V30 24 C -1.617307 -1.007990 0.081324 0
M  V30 25 N -3.788008 -2.083423 0.060033 0
M  V30 26 C -5.020634 -2.350771 0.732204 0
M  V30 27 O -6.035614 -2.651176 0.077423 0
M  V30 28 C -4.933395 -2.229167 2.229692 0
M  V30 29 O -4.219689 -1.039332 2.571186 0
M  V30 30 H 4.543904 -2.215374 -0.991281 0
M  V30 31 H 3.117012 -1.878610 -1.616358 0
M  V30 32 H 4.323835 -4.156856 0.722271 0
M  V30 33 H 3.738144 -4.598897 3.115764 0
M  V30 34 H 2.318639 -3.052192 4.302436 0
M  V30 35 H 1.468711 -1.085993 3.180139 0
M  V30 36 H 3.184552 3.759932 0.217913 0
M  V30 37 H 1.651246 5.162181 -1.026867 0
M  V30 38 H -0.480974 4.173254 -1.901961 0
M  V30 39 H -1.002422 1.856048 -1.511022 0
M  V30 40 H 1.279316 -0.211301 -1.925551 0
M  V30 41 H -0.073064 0.889949 2.356210 0
M  V30 42 H -2.199583 0.441379 3.546246 0
M  V30 43 H -1.429549 -1.414450 -0.913855 0
M  V30 44 H -3.592561 -2.464338 -0.891805 0
M  V30 45 H -5.942896 -2.181563 2.668729 0
M  V30 46 H -4.360654 -3.074546 2.651363 0
M  V30 END ATOM
M  V30 BEGIN BOND
M  V30 1 1 1 2
M  V30 2 2 2 3
M  V30 3 1 3 4
M  V30 4 2 4 5
M  V30 5 1 5 6
M  V30 6 2 6 7
M  V30 7 1 7 8
M  V30 8 1 8 9
M  V30 9 2 9 10
M  V30 10 1 9 11
M  V30 11 2 11 12
M  V30 12 1 12 13
M  V30 13 2 13 14
M  V30 14 1 14 15
M  V30 15 2 15 16
M  V30 16 1 16 17
M  V30 17 1 17 18
M  V30 18 1 17 19
M  V30 19 2 19 20
M  V30 20 1 20 21
M  V30 21 2 21 22
M  V30 22 1 22 23
M  V30 23 2 23 24
M  V30 24 1 23 25
M  V30 25 1 25 26
M  V30 26 2 26 27
M  V30 27 1 26 28
M  V30 28 1 28 29
M  V30 29 1 7 2
M  V30 30 1 17 8
M  V30 31 1 24 19
M  V30 32 1 16 11
M  V30 33 1 29 22
M  V30 34 1 1 30
M  V30 35 1 1 31
M  V30 36 1 3 32
M  V30 37 1 4 33
M  V30 38 1 5 34
M  V30 39 1 6 35
M  V30 40 1 12 36
M  V30 41 1 13 37
M  V30 42 1 14 38
M  V30 43 1 15 39
M  V30 44 1 18 40
M  V30 45 1 20 41
M  V30 46 1 21 42
M  V30 47 1 24 43
M  V30 48 1 25 44
M  V30 49 1 28 45
M  V30 50 1 28 46
M  V30 END BOND
M  V30 END CTAB
M  END
>  <Dataset>  (95) 
ChEMBL_Kinases

>  <Ligand_Instance>  (95) 
nan

>  <PDB_ID>  (95) 
nan

>  <Standardized_SMILES>  (95) 
Nc1ccccc1N1C(=O)c2ccccc2C1(O)c1ccc2c(c1)NC(=O)CO2

>  <Name>  (95) 
nan

>  <Pocket>  (95) 
nan

>  <ATP_Site>  (95) 
nan

>  <Peripheral>  (95) 
nan

>  <Num_H_Atoms_ProtBoundConf>  (95) 
nan

>  <Num_Resolved_Atoms>  (95) 
nan

>  <Num_Not_Resolved_Atoms>  (95) 
nan

$$$$
CHEMBL3917936
     RDKit          3D

  0  0  0  0  0  0  0  0  0  0999 V3000
M  V30 BEGIN CTAB
M  V30 COUNTS 54 57 0 0 0
M  V30 BEGIN ATOM
M  V30 1 C 1.508083 -1.495479 4.748826 0
M  V30 2 C 2.652031 -0.706070 4.085127 0
M  V30 3 N 2.986264 -1.231078 2.808579 0
M  V30 4 N 3.878233 -2.237428 2.678231 0
M  V30 5 C 4.007750 -2.581002 1.392376 0
M  V30 6 C 3.139353 -1.725002 0.723208 0
M  V30 7 C 2.952386 -1.741922 -0.645788 0
M  V30 8 C 2.044503 -0.798027 -0.980714 0
M  V30 9 N 1.385373 0.060660 -0.194206 0
M  V30 10 C 1.561780 0.080337 1.116201 0
M  V30 11 C 2.486624 -0.865164 1.601944 0
M  V30 12 C 0.990256 0.979443 2.092959 0
M  V30 13 C -0.017155 1.941130 1.595707 0
M  V30 14 C -1.428308 1.690849 1.381580 0
M  V30 15 O -2.059898 0.828860 0.594341 0
M  V30 16 C -1.822370 0.756581 -0.726136 0 CFG=2
M  V30 17 C -2.936886 1.833534 -1.241830 0
M  V30 18 O -4.155627 1.339213 -0.825191 0
M  V30 19 C -2.080674 -0.474918 -1.485906 0 CFG=2
M  V30 20 C -2.003512 -1.773972 -0.878233 0
M  V30 21 C -1.664227 -2.170954 0.396258 0
M  V30 22 C -1.651914 -3.490049 0.803500 0
M  V30 23 C -1.988135 -4.491651 -0.074068 0
M  V30 24 C -2.331144 -4.118426 -1.355362 0
M  V30 25 C -2.346971 -2.804700 -1.772940 0
M  V30 26 N -1.408130 -0.384433 -2.833736 0
M  V30 27 C 0.073074 -0.478618 -2.733581 0
M  V30 28 O -0.465129 -0.590283 -1.614392 0
M  V30 29 N 1.489984 -0.607987 -2.320782 0
M  V30 30 H 1.269161 -0.989676 5.684598 0
M  V30 31 H 1.913744 -2.533809 4.920375 0
M  V30 32 H 0.653725 -1.643233 4.072066 0
M  V30 33 H 3.510293 -0.952907 4.790207 0
M  V30 34 H 2.548599 0.356194 4.217187 0
M  V30 35 H 4.649382 -3.355754 0.969895 0
M  V30 36 H 3.318476 -2.281999 -1.480552 0
M  V30 37 H 1.851044 1.630741 2.446043 0
M  V30 38 H 0.511605 0.476778 2.961822 0
M  V30 39 H 0.432071 2.494999 0.657792 0
M  V30 40 H -0.007617 2.890516 2.287674 0
M  V30 41 H -1.978582 2.718436 1.274979 0
M  V30 42 H -1.840248 1.442329 2.455176 0
M  V30 43 H -0.958386 1.339629 -1.031250 0
M  V30 44 H -2.885242 1.855305 -2.324011 0
M  V30 45 H -2.710460 2.779619 -0.760222 0
M  V30 46 H -4.696273 0.935854 -1.550422 0
M  V30 47 H -3.155483 -0.390525 -1.854724 0
M  V30 48 H -1.414768 -1.350229 1.013820 0
M  V30 49 H -1.370831 -3.701249 1.827290 0
M  V30 50 H -1.979865 -5.520850 0.239125 0
M  V30 51 H -2.590968 -4.951780 -2.017360 0
M  V30 52 H -2.640124 -2.676369 -2.815326 0
M  V30 53 H -1.540140 -0.279145 -3.861136 0
M  V30 54 H 2.206233 -0.559772 -3.050323 0
M  V30 END ATOM
M  V30 BEGIN BOND
M  V30 1 1 1 2
M  V30 2 1 2 3
M  V30 3 1 3 4
M  V30 4 2 4 5
M  V30 5 1 5 6
M  V30 6 2 6 7
M  V30 7 1 7 8
M  V30 8 2 8 9
M  V30 9 1 9 10
M  V30 10 2 10 11
M  V30 11 1 10 12
M  V30 12 1 12 13
M  V30 13 1 13 14
M  V30 14 1 14 15
M  V30 15 1 15 16
M  V30 16 1 16 17
M  V30 17 1 17 18
M  V30 18 1 16 19
M  V30 19 1 19 20
M  V30 20 2 20 21
M  V30 21 1 21 22
M  V30 22 2 22 23
M  V30 23 1 23 24
M  V30 24 2 24 25
M  V30 25 1 19 26
M  V30 26 1 26 27
M  V30 27 2 27 28
M  V30 28 1 27 29
M  V30 29 1 11 3
M  V30 30 1 25 20
M  V30 31 1 11 6
M  V30 32 1 29 8
M  V30 33 1 1 30
M  V30 34 1 1 31
M  V30 35 1 1 32
M  V30 36 1 2 33
M  V30 37 1 2 34
M  V30 38 1 5 35
M  V30 39 1 7 36
M  V30 40 1 12 37
M  V30 41 1 12 38
M  V30 42 1 13 39
M  V30 43 1 13 40
M  V30 44 1 14 41
M  V30 45 1 14 42
M  V30 46 1 16 43 CFG=1
M  V30 47 1 17 44
M  V30 48 1 17 45
M  V30 49 1 18 46
M  V30 50 1 19 47 CFG=3
M  V30 51 1 21 48
M  V30 52 1 22 49
M  V30 53 1 23 50
M  V30 54 1 24 51
M  V30 55 1 25 52
M  V30 56 1 26 53
M  V30 57 1 29 54
M  V30 END BOND
M  V30 END CTAB
M  END
>  <Dataset>  (96) 
ChEMBL_Kinases

>  <Ligand_Instance>  (96) 
nan

>  <PDB_ID>  (96) 
nan

>  <Standardized_SMILES>  (96) 
CCn1ncc2cc3nc(c21)CCCO[C@H](CO)[C@H](c1ccccc1)NC(=O)N3

>  <Name>  (96) 
nan

>  <Pocket>  (96) 
nan

>  <ATP_Site>  (96) 
nan

>  <Peripheral>  (96) 
nan

>  <Num_H_Atoms_ProtBoundConf>  (96) 
nan

>  <Num_Resolved_Atoms>  (96) 
nan

>  <Num_Not_Resolved_Atoms>  (96) 
nan

$$$$
CHEMBL3917808
     RDKit          3D

  0  0  0  0  0  0  0  0  0  0999 V3000
M  V30 BEGIN CTAB
M  V30 COUNTS 62 64 0 0 0
M  V30 BEGIN ATOM
M  V30 1 C 0.172381 3.507566 6.758544 0
M  V30 2 C 0.871191 2.247043 6.302716 0
M  V30 3 C -0.121029 1.102944 6.424892 0
M  V30 4 C 2.090530 2.017223 7.155693 0
M  V30 5 O 1.147773 2.353369 4.922670 0
M  V30 6 C 1.934083 3.340482 4.348393 0
M  V30 7 O 2.326212 4.079100 5.256995 0
M  V30 8 C 2.180687 3.390744 2.909594 0
M  V30 9 C 1.628677 2.436410 2.090458 0
M  V30 10 C 1.946633 2.607072 0.747462 0
M  V30 11 O 1.535697 1.810625 -0.271502 0
M  V30 12 C 0.717589 0.666631 -0.221947 0
M  V30 13 C -0.496919 0.873154 -1.055171 0
M  V30 14 C -0.444738 0.287495 -2.436244 0
M  V30 15 C -0.048063 -1.137563 -2.408712 0
M  V30 16 N -0.899652 -2.020201 -1.668965 0
M  V30 17 C -1.412905 -3.230196 -2.261271 0
M  V30 18 O -1.070794 -3.468749 -3.445749 0
M  V30 19 N -2.268306 -4.189494 -1.650380 0
M  V30 20 C -2.585970 -5.285323 -2.515713 0
M  V30 21 C -1.675583 -6.335550 -2.380205 0
M  V30 22 C -1.835332 -7.475625 -3.147176 0
M  V30 23 C -2.916888 -7.494517 -4.018407 0
M  V30 24 Cl -3.077590 -8.970652 -4.974373 0
M  V30 25 C -3.814918 -6.450346 -4.147534 0
M  V30 26 C -4.915097 -6.590713 -5.106446 0
M  V30 27 F -5.688783 -5.468301 -5.092709 0
M  V30 28 F -4.435510 -6.903452 -6.384020 0
M  V30 29 F -5.714723 -7.684304 -4.752394 0
M  V30 30 C -3.649682 -5.328253 -3.386473 0
M  V30 31 C 1.351731 -1.190862 -1.838353 0
M  V30 32 C 1.523087 -0.552950 -0.518250 0
M  V30 33 C 2.744757 3.660093 0.361878 0
M  V30 34 C 3.277038 4.597161 1.226132 0
M  V30 35 N 2.957710 4.417116 2.537171 0
M  V30 36 H -0.657016 3.209432 7.429962 0
M  V30 37 H -0.207326 4.124483 5.915130 0
M  V30 38 H 0.897115 4.138235 7.340131 0
M  V30 39 H -1.063416 1.462197 6.008576 0
M  V30 40 H -0.181489 0.698839 7.452330 0
M  V30 41 H 0.271750 0.279945 5.779101 0
M  V30 42 H 3.031601 2.058222 6.573226 0
M  V30 43 H 2.002539 0.977112 7.573759 0
M  V30 44 H 2.064104 2.683077 8.019457 0
M  V30 45 H 1.011886 1.628336 2.409654 0
M  V30 46 H 0.390748 0.562789 0.834627 0
M  V30 47 H -0.736102 1.949760 -1.174548 0
M  V30 48 H -1.396985 0.426645 -0.557198 0
M  V30 49 H 0.274223 0.824538 -3.080088 0
M  V30 50 H -1.443401 0.391834 -2.888875 0
M  V30 51 H 0.021520 -1.538271 -3.445543 0
M  V30 52 H -1.207811 -1.868765 -0.684504 0
M  V30 53 H -2.544696 -3.960810 -0.655021 0
M  V30 54 H -0.826421 -6.330797 -1.699277 0
M  V30 55 H -1.142965 -8.302022 -3.059112 0
M  V30 56 H -4.307836 -4.475088 -3.432500 0
M  V30 57 H 2.034402 -0.742967 -2.607565 0
M  V30 58 H 1.613237 -2.274716 -1.798199 0
M  V30 59 H 2.619939 -0.282326 -0.444292 0
M  V30 60 H 1.419114 -1.345477 0.256158 0
M  V30 61 H 3.026433 3.842775 -0.672041 0
M  V30 62 H 3.902379 5.423605 0.929756 0
M  V30 END ATOM
M  V30 BEGIN BOND
M  V30 1 1 1 2
M  V30 2 1 2 3
M  V30 3 1 2 4
M  V30 4 1 2 5
M  V30 5 1 5 6
M  V30 6 2 6 7
M  V30 7 1 6 8
M  V30 8 2 8 9
M  V30 9 1 9 10
M  V30 10 1 10 11
M  V30 11 1 11 12
M  V30 12 1 12 13
M  V30 13 1 13 14
M  V30 14 1 14 15
M  V30 15 1 15 16
M  V30 16 1 16 17
M  V30 17 2 17 18
M  V30 18 1 17 19
M  V30 19 1 19 20
M  V30 20 2 20 21
M  V30 21 1 21 22
M  V30 22 2 22 23
M  V30 23 1 23 24
M  V30 24 1 23 25
M  V30 25 1 25 26
M  V30 26 1 26 27
M  V30 27 1 26 28
M  V30 28 1 26 29
M  V30 29 2 25 30
M  V30 30 1 15 31
M  V30 31 1 31 32
M  V30 32 2 10 33
M  V30 33 1 33 34
M  V30 34 2 34 35
M  V30 35 1 35 8
M  V30 36 1 32 12
M  V30 37 1 30 20
M  V30 38 1 1 36
M  V30 39 1 1 37
M  V30 40 1 1 38
M  V30 41 1 3 39
M  V30 42 1 3 40
M  V30 43 1 3 41
M  V30 44 1 4 42
M  V30 45 1 4 43
M  V30 46 1 4 44
M  V30 47 1 9 45
M  V30 48 1 12 46
M  V30 49 1 13 47
M  V30 50 1 13 48
M  V30 51 1 14 49
M  V30 52 1 14 50
M  V30 53 1 15 51
M  V30 54 1 16 52
M  V30 55 1 19 53
M  V30 56 1 21 54
M  V30 57 1 22 55
M  V30 58 1 30 56
M  V30 59 1 31 57
M  V30 60 1 31 58
M  V30 61 1 32 59
M  V30 62 1 32 60
M  V30 63 1 33 61
M  V30 64 1 34 62
M  V30 END BOND
M  V30 END CTAB
M  END
>  <Dataset>  (97) 
ChEMBL_Kinases

>  <Ligand_Instance>  (97) 
nan

>  <PDB_ID>  (97) 
nan

>  <Standardized_SMILES>  (97) 
CC(C)(C)OC(=O)c1cc(OC2CCC(NC(=O)Nc3ccc(Cl)c(C(F)(F)F)c3)CC2)ccn1

>  <Name>  (97) 
nan

>  <Pocket>  (97) 
nan

>  <ATP_Site>  (97) 
nan

>  <Peripheral>  (97) 
nan

>  <Num_H_Atoms_ProtBoundConf>  (97) 
nan

>  <Num_Resolved_Atoms>  (97) 
nan

>  <Num_Not_Resolved_Atoms>  (97) 
nan

$$$$
CHEMBL3917641
     RDKit          3D

  0  0  0  0  0  0  0  0  0  0999 V3000
M  V30 BEGIN CTAB
M  V30 COUNTS 51 55 0 0 0
M  V30 BEGIN ATOM
M  V30 1 C 0.837306 -6.381270 6.149502 0
M  V30 2 O 1.869188 -5.664877 5.450585 0
M  V30 3 C 1.604226 -4.605464 4.630734 0
M  V30 4 O 0.346716 -4.426795 4.637317 0
M  V30 5 N 2.582607 -3.863350 3.917258 0
M  V30 6 C 2.074374 -2.799512 3.120479 0
M  V30 7 N 1.796871 -1.474053 3.271213 0
M  V30 8 C 1.318081 -0.986397 2.110231 0
M  V30 9 C 0.902770 0.285644 1.772431 0
M  V30 10 C 0.438993 0.558233 0.488613 0
M  V30 11 C -0.008215 1.901959 0.085390 0
M  V30 12 O -0.001777 2.814390 1.117602 0
M  V30 13 C 1.012677 2.381956 -0.913899 0
M  V30 14 C 2.352946 2.586911 -0.610821 0
M  V30 15 C 3.155764 3.017196 -1.646018 0
M  V30 16 C 2.603150 3.219411 -2.905797 0
M  V30 17 C 1.256452 3.007315 -3.185275 0
M  V30 18 C 0.463700 2.579374 -2.149682 0
M  V30 19 C -0.926904 2.257306 -1.990688 0
M  V30 20 O -1.749745 2.332226 -2.963405 0
M  V30 21 N -1.243392 1.856761 -0.639484 0
M  V30 22 C -2.593592 1.515989 -0.249799 0
M  V30 23 C -2.938003 0.097309 -0.415825 0
M  V30 24 C -2.813130 -0.946608 0.504697 0
M  V30 25 C -3.194634 -2.226727 0.160861 0
M  V30 26 C -3.706997 -2.534117 -1.080436 0
M  V30 27 N -3.832526 -1.538090 -1.976622 0
M  V30 28 C -3.464543 -0.283921 -1.655655 0
M  V30 29 C 0.401955 -0.462361 -0.437333 0
M  V30 30 C 0.824359 -1.722418 -0.067434 0
M  V30 31 C 1.291090 -2.033847 1.195382 0
M  V30 32 N 1.755408 -3.120150 1.836891 0
M  V30 33 H 0.041305 -6.731701 5.457173 0
M  V30 34 H 1.251273 -7.155792 6.792293 0
M  V30 35 H 0.357258 -5.585580 6.782507 0
M  V30 36 H 3.586194 -4.152367 4.030196 0
M  V30 37 H 0.941694 1.074321 2.521336 0
M  V30 38 H -0.836405 3.364178 1.004427 0
M  V30 39 H 2.798952 2.435483 0.358878 0
M  V30 40 H 4.203038 3.185421 -1.441142 0
M  V30 41 H 3.271122 3.556233 -3.684885 0
M  V30 42 H 0.831859 3.165977 -4.166906 0
M  V30 43 H -2.804058 1.819807 0.808680 0
M  V30 44 H -3.313388 2.127172 -0.847300 0
M  V30 45 H -2.404663 -0.630166 1.455471 0
M  V30 46 H -3.082646 -3.005368 0.899654 0
M  V30 47 H -4.004000 -3.545152 -1.340613 0
M  V30 48 H -3.640260 0.389084 -2.511487 0
M  V30 49 H 0.043400 -0.266581 -1.442376 0
M  V30 50 H 0.790852 -2.508435 -0.796463 0
M  V30 51 H 1.801001 -4.005263 1.284206 0
M  V30 END ATOM
M  V30 BEGIN BOND
M  V30 1 1 1 2
M  V30 2 1 2 3
M  V30 3 2 3 4
M  V30 4 1 3 5
M  V30 5 1 5 6
M  V30 6 2 6 7
M  V30 7 1 7 8
M  V30 8 2 8 9
M  V30 9 1 9 10
M  V30 10 1 10 11
M  V30 11 1 11 12
M  V30 12 1 11 13
M  V30 13 2 13 14
M  V30 14 1 14 15
M  V30 15 2 15 16
M  V30 16 1 16 17
M  V30 17 2 17 18
M  V30 18 1 18 19
M  V30 19 2 19 20
M  V30 20 1 19 21
M  V30 21 1 21 22
M  V30 22 1 22 23
M  V30 23 2 23 24
M  V30 24 1 24 25
M  V30 25 2 25 26
M  V30 26 1 26 27
M  V30 27 2 27 28
M  V30 28 2 10 29
M  V30 29 1 29 30
M  V30 30 2 30 31
M  V30 31 1 31 32
M  V30 32 1 32 6
M  V30 33 1 31 8
M  V30 34 1 21 11
M  V30 35 1 28 23
M  V30 36 1 18 13
M  V30 37 1 1 33
M  V30 38 1 1 34
M  V30 39 1 1 35
M  V30 40 1 5 36
M  V30 41 1 9 37
M  V30 42 1 12 38
M  V30 43 1 14 39
M  V30 44 1 15 40
M  V30 45 1 16 41
M  V30 46 1 17 42
M  V30 47 1 22 43
M  V30 48 1 22 44
M  V30 49 1 24 45
M  V30 50 1 25 46
M  V30 51 1 26 47
M  V30 52 1 28 48
M  V30 53 1 29 49
M  V30 54 1 30 50
M  V30 55 1 32 51
M  V30 END BOND
M  V30 END CTAB
M  END
>  <Dataset>  (98) 
ChEMBL_Kinases

>  <Ligand_Instance>  (98) 
nan

>  <PDB_ID>  (98) 
nan

>  <Standardized_SMILES>  (98) 
COC(=O)Nc1nc2cc(C3(O)c4ccccc4C(=O)N3Cc3cccnc3)ccc2[nH]1

>  <Name>  (98) 
nan

>  <Pocket>  (98) 
nan

>  <ATP_Site>  (98) 
nan

>  <Peripheral>  (98) 
nan

>  <Num_H_Atoms_ProtBoundConf>  (98) 
nan

>  <Num_Resolved_Atoms>  (98) 
nan

>  <Num_Not_Resolved_Atoms>  (98) 
nan

$$$$
CHEMBL3917582
     RDKit          3D

  0  0  0  0  0  0  0  0  0  0999 V3000
M  V30 BEGIN CTAB
M  V30 COUNTS 47 51 0 0 0
M  V30 BEGIN ATOM
M  V30 1 O -1.326628 -3.175054 4.888757 0
M  V30 2 C -0.736249 -3.274605 3.794738 0
M  V30 3 C -0.159008 -4.470033 3.136193 0
M  V30 4 O 1.005664 -4.169048 2.401947 0
M  V30 5 C 1.176656 -2.999954 1.681142 0
M  V30 6 C 2.114359 -2.912550 0.667672 0
M  V30 7 C 2.259552 -1.731365 -0.032033 0
M  V30 8 C 1.451275 -0.646141 0.302109 0
M  V30 9 C 1.506609 0.701144 -0.374475 0
M  V30 10 O 2.349765 0.717144 -1.464781 0
M  V30 11 C 1.863726 1.678285 0.686982 0
M  V30 12 C 3.127762 1.723203 1.256496 0
M  V30 13 C 3.378287 2.635014 2.271748 0
M  V30 14 C 2.377135 3.471653 2.692326 0
M  V30 15 C 1.152316 3.386229 2.097495 0
M  V30 16 C 0.838975 2.505930 1.086628 0
M  V30 17 C -0.258793 2.126427 0.207815 0
M  V30 18 O -1.343978 2.781459 0.409200 0
M  V30 19 N 0.151982 1.074961 -0.703240 0
M  V30 20 C -0.874701 0.744355 -1.648212 0
M  V30 21 C -1.770492 -0.311982 -1.176828 0
M  V30 22 C -2.982296 0.137619 -0.641047 0
M  V30 23 C -3.915482 -0.753332 -0.141398 0
M  V30 24 C -3.704282 -2.106522 -0.145270 0
M  V30 25 C -2.515198 -2.584647 -0.668793 0
M  V30 26 C -1.605186 -1.675430 -1.159280 0
M  V30 27 F -0.447437 -2.127656 -1.693869 0
M  V30 28 C 0.516387 -0.745872 1.318342 0
M  V30 29 C 0.369270 -1.934385 2.023389 0
M  V30 30 N -0.606271 -2.029119 3.080165 0
M  V30 31 H -0.967369 -4.914673 2.508127 0
M  V30 32 H 0.060201 -5.213897 3.931539 0
M  V30 33 H 2.740498 -3.761519 0.412082 0
M  V30 34 H 2.967029 -1.583523 -0.834399 0
M  V30 35 H 3.241682 0.389413 -1.275664 0
M  V30 36 H 3.975738 1.118603 1.004203 0
M  V30 37 H 4.339387 2.732259 2.767889 0
M  V30 38 H 2.476686 4.210353 3.472992 0
M  V30 39 H 0.320960 4.039197 2.404379 0
M  V30 40 H -1.447269 1.610989 -2.040327 0
M  V30 41 H -0.329130 0.331754 -2.542406 0
M  V30 42 H -3.347613 1.166115 -0.544155 0
M  V30 43 H -4.875794 -0.480478 0.289328 0
M  V30 44 H -4.366746 -2.872880 0.219007 0
M  V30 45 H -2.273399 -3.633560 -0.707900 0
M  V30 46 H -0.125944 0.065015 1.608430 0
M  V30 47 H -1.192549 -1.183166 3.294551 0
M  V30 END ATOM
M  V30 BEGIN BOND
M  V30 1 2 1 2
M  V30 2 1 2 3
M  V30 3 1 3 4
M  V30 4 1 4 5
M  V30 5 2 5 6
M  V30 6 1 6 7
M  V30 7 2 7 8
M  V30 8 1 8 9
M  V30 9 1 9 10
M  V30 10 1 9 11
M  V30 11 2 11 12
M  V30 12 1 12 13
M  V30 13 2 13 14
M  V30 14 1 14 15
M  V30 15 2 15 16
M  V30 16 1 16 17
M  V30 17 2 17 18
M  V30 18 1 17 19
M  V30 19 1 19 20
M  V30 20 1 20 21
M  V30 21 2 21 22
M  V30 22 1 22 23
M  V30 23 2 23 24
M  V30 24 1 24 25
M  V30 25 2 25 26
M  V30 26 1 26 27
M  V30 27 1 8 28
M  V30 28 2 28 29
M  V30 29 1 29 30
M  V30 30 1 30 2
M  V30 31 1 29 5
M  V30 32 1 19 9
M  V30 33 1 26 21
M  V30 34 1 16 11
M  V30 35 1 3 31
M  V30 36 1 3 32
M  V30 37 1 6 33
M  V30 38 1 7 34
M  V30 39 1 10 35
M  V30 40 1 12 36
M  V30 41 1 13 37
M  V30 42 1 14 38
M  V30 43 1 15 39
M  V30 44 1 20 40
M  V30 45 1 20 41
M  V30 46 1 22 42
M  V30 47 1 23 43
M  V30 48 1 24 44
M  V30 49 1 25 45
M  V30 50 1 28 46
M  V30 51 1 30 47
M  V30 END BOND
M  V30 END CTAB
M  END
>  <Dataset>  (99) 
ChEMBL_Kinases

>  <Ligand_Instance>  (99) 
nan

>  <PDB_ID>  (99) 
nan

>  <Standardized_SMILES>  (99) 
O=C1COc2ccc(C3(O)c4ccccc4C(=O)N3Cc3ccccc3F)cc2N1

>  <Name>  (99) 
nan

>  <Pocket>  (99) 
nan

>  <ATP_Site>  (99) 
nan

>  <Peripheral>  (99) 
nan

>  <Num_H_Atoms_ProtBoundConf>  (99) 
nan

>  <Num_Resolved_Atoms>  (99) 
nan

>  <Num_Not_Resolved_Atoms>  (99) 
nan

$$$$
CHEMBL487660
     RDKit          3D

  0  0  0  0  0  0  0  0  0  0999 V3000
M  V30 BEGIN CTAB
M  V30 COUNTS 57 58 0 0 0
M  V30 BEGIN ATOM
M  V30 1 C -1.265532 -2.944115 3.212778 0
M  V30 2 C 0.023137 -3.684774 2.921326 0
M  V30 3 C 0.539828 -3.151714 1.588134 0
M  V30 4 C 1.815032 -3.795804 1.170739 0
M  V30 5 C 2.223352 -3.160297 -0.182653 0
M  V30 6 C 2.366220 -1.755323 0.068974 0
M  V30 7 C 2.013675 -0.539165 -0.216304 0
M  V30 8 C 2.328405 0.837082 0.214071 0
M  V30 9 C 1.637209 1.674094 -0.807355 0
M  V30 10 C 2.640695 2.606963 -1.440086 0
M  V30 11 O 3.199875 3.498619 -0.501565 0
M  V30 12 C 0.536799 2.474014 -0.130606 0
M  V30 13 O -0.395715 1.732862 0.411074 0
M  V30 14 C -1.300351 1.013702 0.936730 0
M  V30 15 O -0.588676 0.396348 1.739054 0
M  V30 16 C -2.737007 0.841670 0.774513 0
M  V30 17 C -3.368429 -0.078606 1.569038 0
M  V30 18 C -4.731701 -0.322369 1.496382 0
M  V30 19 C -5.480341 0.380604 0.598082 0
M  V30 20 C -4.889820 1.314112 -0.219679 0
M  V30 21 C -3.533231 1.535737 -0.125877 0
M  V30 22 C -2.858032 2.540380 -0.996606 0
M  V30 23 O 1.139907 0.825687 -1.831653 0
M  V30 24 C 1.013604 -0.449914 -1.271641 0
M  V30 25 O 0.188398 -1.274230 -1.657671 0
M  V30 26 C 1.302188 -3.752639 -1.183592 0
M  V30 27 C 1.527877 -5.315360 -1.167648 0
M  V30 28 H -1.808684 -3.378599 4.082909 0
M  V30 29 H -1.072838 -1.885488 3.508523 0
M  V30 30 H -1.924876 -2.893381 2.331096 0
M  V30 31 H -0.152793 -4.761311 2.919881 0
M  V30 32 H 0.757564 -3.420117 3.726437 0
M  V30 33 H -0.309875 -3.263761 0.891038 0
M  V30 34 H 0.654210 -2.053421 1.777538 0
M  V30 35 H 1.784284 -4.879213 1.130796 0
M  V30 36 H 2.616179 -3.492992 1.870606 0
M  V30 37 H 3.276811 -3.630073 -0.366344 0
M  V30 38 H 3.138681 -1.681231 0.891039 0
M  V30 39 H 3.441672 0.942040 0.159667 0
M  V30 40 H 2.006096 0.994068 1.256983 0
M  V30 41 H 3.463030 1.997477 -1.873794 0
M  V30 42 H 2.175020 3.179922 -2.266951 0
M  V30 43 H 3.135600 3.033611 0.385253 0
M  V30 44 H 1.102841 3.043756 0.687666 0
M  V30 45 H 0.195443 3.301591 -0.822911 0
M  V30 46 H -2.820651 -0.654246 2.289030 0
M  V30 47 H -5.249860 -1.037624 2.107434 0
M  V30 48 H -6.543241 0.265741 0.464389 0
M  V30 49 H -5.474827 1.888311 -0.947261 0
M  V30 50 H -2.341215 3.302421 -0.375052 0
M  V30 51 H -2.136553 2.073671 -1.684982 0
M  V30 52 H -3.638699 3.089020 -1.565730 0
M  V30 53 H 0.224828 -3.701072 -0.971030 0
M  V30 54 H 1.460919 -3.428589 -2.237845 0
M  V30 55 H 2.611021 -5.478826 -1.010769 0
M  V30 56 H 0.874292 -5.789187 -0.440828 0
M  V30 57 H 1.270271 -5.643813 -2.193656 0
M  V30 END ATOM
M  V30 BEGIN BOND
M  V30 1 1 1 2
M  V30 2 1 2 3
M  V30 3 1 3 4
M  V30 4 1 4 5
M  V30 5 1 5 6
M  V30 6 2 6 7
M  V30 7 1 7 8
M  V30 8 1 8 9
M  V30 9 1 9 10
M  V30 10 1 10 11
M  V30 11 1 9 12
M  V30 12 1 12 13
M  V30 13 1 13 14
M  V30 14 2 14 15
M  V30 15 1 14 16
M  V30 16 2 16 17
M  V30 17 1 17 18
M  V30 18 2 18 19
M  V30 19 1 19 20
M  V30 20 2 20 21
M  V30 21 1 21 22
M  V30 22 1 9 23
M  V30 23 1 23 24
M  V30 24 2 24 25
M  V30 25 1 5 26
M  V30 26 1 26 27
M  V30 27 1 24 7
M  V30 28 1 21 16
M  V30 29 1 1 28
M  V30 30 1 1 29
M  V30 31 1 1 30
M  V30 32 1 2 31
M  V30 33 1 2 32
M  V30 34 1 3 33
M  V30 35 1 3 34
M  V30 36 1 4 35
M  V30 37 1 4 36
M  V30 38 1 5 37
M  V30 39 1 6 38
M  V30 40 1 8 39
M  V30 41 1 8 40
M  V30 42 1 10 41
M  V30 43 1 10 42
M  V30 44 1 11 43
M  V30 45 1 12 44
M  V30 46 1 12 45
M  V30 47 1 17 46
M  V30 48 1 18 47
M  V30 49 1 19 48
M  V30 50 1 20 49
M  V30 51 1 22 50
M  V30 52 1 22 51
M  V30 53 1 22 52
M  V30 54 1 26 53
M  V30 55 1 26 54
M  V30 56 1 27 55
M  V30 57 1 27 56
M  V30 58 1 27 57
M  V30 END BOND
M  V30 END CTAB
M  END
>  <Dataset>  (100) 
ChEMBL_Kinases

>  <Ligand_Instance>  (100) 
nan

>  <PDB_ID>  (100) 
nan

>  <Standardized_SMILES>  (100) 
CCCCC(/C=C1/CC(CO)(COC(=O)c2ccccc2C)OC1=O)CC

>  <Name>  (100) 
nan

>  <Pocket>  (100) 
nan

>  <ATP_Site>  (100) 
nan

>  <Peripheral>  (100) 
nan

>  <Num_H_Atoms_ProtBoundConf>  (100) 
nan

>  <Num_Resolved_Atoms>  (100) 
nan

>  <Num_Not_Resolved_Atoms>  (100) 
nan

$$$$
CHEMBL3917344
     RDKit          3D

  0  0  0  0  0  0  0  0  0  0999 V3000
M  V30 BEGIN CTAB
M  V30 COUNTS 64 68 0 0 0
M  V30 BEGIN ATOM
M  V30 1 C 5.861727 -1.044066 6.083923 0
M  V30 2 O 5.939912 -0.743810 4.686961 0
M  V30 3 C 4.818132 -0.501380 3.909530 0
M  V30 4 O 3.650623 -0.537483 4.421047 0
M  V30 5 N 4.909496 -0.202142 2.511962 0
M  V30 6 C 3.712245 0.033534 1.776712 0
M  V30 7 N 2.455729 0.008402 2.239092 0
M  V30 8 C 1.579477 0.280861 1.248795 0
M  V30 9 C 0.197860 0.358544 1.277330 0
M  V30 10 C -0.399383 0.661012 0.071211 0
M  V30 11 C -1.888459 0.780373 -0.045899 0
M  V30 12 O -2.532792 -0.167528 0.775136 0
M  V30 13 C -2.304234 2.100269 0.488409 0
M  V30 14 C -2.121484 2.630447 1.734352 0
M  V30 15 C -2.598095 3.915603 2.018378 0
M  V30 16 C -3.251193 4.657842 1.058372 0
M  V30 17 C -3.413280 4.081908 -0.186132 0
M  V30 18 C -2.952237 2.814763 -0.492162 0
M  V30 19 C -2.976812 1.949383 -1.687832 0
M  V30 20 O -3.519682 2.387097 -2.721428 0
M  V30 21 N -2.335381 0.716452 -1.396469 0
M  V30 22 C -2.189941 -0.348115 -2.306642 0
M  V30 23 C -2.617444 -0.377939 -3.612877 0
M  V30 24 C -2.448146 -1.461461 -4.459790 0
M  V30 25 C -1.797128 -2.586191 -3.927857 0
M  V30 26 C -1.330151 -2.634992 -2.602249 0
M  V30 27 O -0.771534 -3.824992 -2.426496 0
M  V30 28 C -0.145167 -4.591286 -1.511263 0
M  V30 29 C -0.853089 -4.954724 -0.245653 0
M  V30 30 N -1.242433 -3.876194 0.596859 0
M  V30 31 C -0.098748 -3.222135 1.215797 0
M  V30 32 C -2.196450 -4.224378 1.598473 0
M  V30 33 C -1.565971 -1.494369 -1.882215 0
M  V30 34 C 0.331320 0.872763 -1.088983 0
M  V30 35 C 1.723030 0.786972 -1.083648 0
M  V30 36 C 2.345680 0.482602 0.123325 0
M  V30 37 N 3.650024 0.327110 0.465306 0
M  V30 38 H 5.654263 -2.127765 6.153543 0
M  V30 39 H 6.757588 -0.721267 6.629629 0
M  V30 40 H 4.936510 -0.518653 6.438449 0
M  V30 41 H 5.838703 -0.169158 2.087573 0
M  V30 42 H -0.362595 0.195299 2.166372 0
M  V30 43 H -3.429440 0.161475 1.021231 0
M  V30 44 H -1.634534 2.176470 2.582984 0
M  V30 45 H -2.502357 4.422354 2.974505 0
M  V30 46 H -3.639394 5.644256 1.209001 0
M  V30 47 H -3.931132 4.653037 -0.971711 0
M  V30 48 H -3.115029 0.505441 -3.989232 0
M  V30 49 H -2.828589 -1.354393 -5.456360 0
M  V30 50 H -1.741844 -3.354329 -4.721222 0
M  V30 51 H 0.864443 -4.146156 -1.282112 0
M  V30 52 H 0.118544 -5.582851 -2.006643 0
M  V30 53 H -0.167405 -5.642058 0.329415 0
M  V30 54 H -1.737844 -5.579713 -0.489569 0
M  V30 55 H 0.437815 -2.567038 0.515573 0
M  V30 56 H -0.483063 -2.610462 2.055303 0
M  V30 57 H 0.591852 -3.997093 1.664867 0
M  V30 58 H -2.839333 -3.340543 1.889704 0
M  V30 59 H -2.874396 -5.061906 1.275894 0
M  V30 60 H -1.675063 -4.544565 2.531007 0
M  V30 61 H -1.193207 -1.569343 -0.877874 0
M  V30 62 H -0.164047 1.106347 -2.011030 0
M  V30 63 H 2.285180 0.950721 -1.978245 0
M  V30 64 H 4.418821 0.433761 -0.230717 0
M  V30 END ATOM
M  V30 BEGIN BOND
M  V30 1 1 1 2
M  V30 2 1 2 3
M  V30 3 2 3 4
M  V30 4 1 3 5
M  V30 5 1 5 6
M  V30 6 2 6 7
M  V30 7 1 7 8
M  V30 8 2 8 9
M  V30 9 1 9 10
M  V30 10 1 10 11
M  V30 11 1 11 12
M  V30 12 1 11 13
M  V30 13 2 13 14
M  V30 14 1 14 15
M  V30 15 2 15 16
M  V30 16 1 16 17
M  V30 17 2 17 18
M  V30 18 1 18 19
M  V30 19 2 19 20
M  V30 20 1 19 21
M  V30 21 1 21 22
M  V30 22 2 22 23
M  V30 23 1 23 24
M  V30 24 2 24 25
M  V30 25 1 25 26
M  V30 26 1 26 27
M  V30 27 1 27 28
M  V30 28 1 28 29
M  V30 29 1 29 30
M  V30 30 1 30 31
M  V30 31 1 30 32
M  V30 32 2 26 33
M  V30 33 2 10 34
M  V30 34 1 34 35
M  V30 35 2 35 36
M  V30 36 1 36 37
M  V30 37 1 37 6
M  V30 38 1 36 8
M  V30 39 1 21 11
M  V30 40 1 33 22
M  V30 41 1 18 13
M  V30 42 1 1 38
M  V30 43 1 1 39
M  V30 44 1 1 40
M  V30 45 1 5 41
M  V30 46 1 9 42
M  V30 47 1 12 43
M  V30 48 1 14 44
M  V30 49 1 15 45
M  V30 50 1 16 46
M  V30 51 1 17 47
M  V30 52 1 23 48
M  V30 53 1 24 49
M  V30 54 1 25 50
M  V30 55 1 28 51
M  V30 56 1 28 52
M  V30 57 1 29 53
M  V30 58 1 29 54
M  V30 59 1 31 55
M  V30 60 1 31 56
M  V30 61 1 31 57
M  V30 62 1 32 58
M  V30 63 1 32 59
M  V30 64 1 32 60
M  V30 65 1 33 61
M  V30 66 1 34 62
M  V30 67 1 35 63
M  V30 68 1 37 64
M  V30 END BOND
M  V30 END CTAB
M  END
>  <Dataset>  (101) 
ChEMBL_Kinases

>  <Ligand_Instance>  (101) 
nan

>  <PDB_ID>  (101) 
nan

>  <Standardized_SMILES>  (101) 
COC(=O)Nc1nc2cc(C3(O)c4ccccc4C(=O)N3c3cccc(OCCN(C)C)c3)ccc2[nH]1

>  <Name>  (101) 
nan

>  <Pocket>  (101) 
nan

>  <ATP_Site>  (101) 
nan

>  <Peripheral>  (101) 
nan

>  <Num_H_Atoms_ProtBoundConf>  (101) 
nan

>  <Num_Resolved_Atoms>  (101) 
nan

>  <Num_Not_Resolved_Atoms>  (101) 
nan

$$$$
CHEMBL3917094
     RDKit          3D

  0  0  0  0  0  0  0  0  0  0999 V3000
M  V30 BEGIN CTAB
M  V30 COUNTS 62 65 0 0 0
M  V30 BEGIN ATOM
M  V30 1 C 3.386490 -0.004279 5.848454 0
M  V30 2 C 3.566676 -1.174386 4.883588 0
M  V30 3 C 2.334411 -1.217273 4.019851 0
M  V30 4 N 2.373655 -2.303633 3.035350 0
M  V30 5 C 3.400987 -1.968282 2.101365 0
M  V30 6 C 3.235509 -2.578103 0.728972 0
M  V30 7 N 1.903853 -2.401549 0.208438 0
M  V30 8 C 1.797644 -1.669716 -1.016096 0
M  V30 9 O 2.986108 -1.376688 -1.308563 0
M  V30 10 N 0.643708 -1.324001 -1.771107 0
M  V30 11 C -0.805564 -1.460274 -1.779254 0
M  V30 12 C -1.190909 -0.014295 -1.960826 0
M  V30 13 C -2.156338 0.934008 -1.639485 0
M  V30 14 N -3.332277 0.743972 -0.859234 0
M  V30 15 C -4.214636 1.837648 -0.620479 0
M  V30 16 O -3.976073 2.976777 -1.089361 0
M  V30 17 C -5.416203 1.609796 0.188128 0
M  V30 18 C -6.284172 2.661018 0.432634 0
M  V30 19 C -7.433704 2.450194 1.204814 0
M  V30 20 C -7.609566 1.162125 1.674176 0
M  V30 21 C -6.757012 0.106870 1.440210 0
M  V30 22 N -5.678841 0.371984 0.697135 0
M  V30 23 N -1.716329 2.058083 -2.233815 0
M  V30 24 N -0.578479 1.827465 -2.867074 0
M  V30 25 C -0.199193 0.551071 -2.733043 0
M  V30 26 C 0.762846 -0.564716 -3.001199 0
M  V30 27 C 0.247981 -1.323850 -4.195559 0
M  V30 28 C 2.133267 0.010588 -3.234836 0
M  V30 29 C 1.018496 -3.061609 1.144694 0 CFG=1
M  V30 30 C 1.498436 -4.457249 1.387165 0
M  V30 31 C 1.060091 -2.294980 2.423346 0
M  V30 32 H 2.779639 -0.262588 6.726743 0
M  V30 33 H 4.368421 0.380238 6.200848 0
M  V30 34 H 2.876827 0.835201 5.331868 0
M  V30 35 H 4.456214 -0.924158 4.266483 0
M  V30 36 H 3.711602 -2.103494 5.453074 0
M  V30 37 H 2.312003 -0.282643 3.406391 0
M  V30 38 H 1.404801 -1.220897 4.620361 0
M  V30 39 H 4.355791 -2.388202 2.533189 0
M  V30 40 H 3.473745 -0.864932 2.034478 0
M  V30 41 H 4.021713 -2.120515 0.100406 0
M  V30 42 H 3.518243 -3.654518 0.805039 0
M  V30 43 H -1.200633 -1.994842 -2.648464 0
M  V30 44 H -1.218079 -1.853551 -0.830343 0
M  V30 45 H -3.513241 -0.213583 -0.480181 0
M  V30 46 H -6.108065 3.662572 0.043688 0
M  V30 47 H -8.122648 3.260394 1.405574 0
M  V30 48 H -8.497999 0.956742 2.283217 0
M  V30 49 H -6.965108 -0.878425 1.843824 0
M  V30 50 H 0.012364 2.503511 -3.427346 0
M  V30 51 H 0.279666 -2.412953 -3.980169 0
M  V30 52 H 0.811122 -1.081103 -5.121692 0
M  V30 53 H -0.809424 -1.077576 -4.419787 0
M  V30 54 H 2.485324 0.618726 -2.402406 0
M  V30 55 H 2.040566 0.669858 -4.139936 0
M  V30 56 H 2.807524 -0.803158 -3.554023 0
M  V30 57 H -0.024205 -3.131789 0.785965 0
M  V30 58 H 0.672371 -5.157483 1.686001 0
M  V30 59 H 2.257707 -4.555744 2.169167 0
M  V30 60 H 1.918976 -4.940670 0.462589 0
M  V30 61 H 0.302706 -2.683023 3.135377 0
M  V30 62 H 0.790033 -1.210350 2.285387 0
M  V30 END ATOM
M  V30 BEGIN BOND
M  V30 1 1 1 2
M  V30 2 1 2 3
M  V30 3 1 3 4
M  V30 4 1 4 5
M  V30 5 1 5 6
M  V30 6 1 6 7
M  V30 7 1 7 8
M  V30 8 2 8 9
M  V30 9 1 8 10
M  V30 10 1 10 11
M  V30 11 1 11 12
M  V30 12 1 12 13
M  V30 13 1 13 14
M  V30 14 1 14 15
M  V30 15 2 15 16
M  V30 16 1 15 17
M  V30 17 2 17 18
M  V30 18 1 18 19
M  V30 19 2 19 20
M  V30 20 1 20 21
M  V30 21 2 21 22
M  V30 22 2 13 23
M  V30 23 1 23 24
M  V30 24 1 24 25
M  V30 25 1 25 26
M  V30 26 1 26 27
M  V30 27 1 26 28
M  V30 28 1 7 29
M  V30 29 1 29 30
M  V30 30 1 29 31
M  V30 31 1 31 4
M  V30 32 1 26 10
M  V30 33 2 25 12
M  V30 34 1 22 17
M  V30 35 1 1 32
M  V30 36 1 1 33
M  V30 37 1 1 34
M  V30 38 1 2 35
M  V30 39 1 2 36
M  V30 40 1 3 37
M  V30 41 1 3 38
M  V30 42 1 5 39
M  V30 43 1 5 40
M  V30 44 1 6 41
M  V30 45 1 6 42
M  V30 46 1 11 43
M  V30 47 1 11 44
M  V30 48 1 14 45
M  V30 49 1 18 46
M  V30 50 1 19 47
M  V30 51 1 20 48
M  V30 52 1 21 49
M  V30 53 1 24 50
M  V30 54 1 27 51
M  V30 55 1 27 52
M  V30 56 1 27 53
M  V30 57 1 28 54
M  V30 58 1 28 55
M  V30 59 1 28 56
M  V30 60 1 29 57 CFG=3
M  V30 61 1 30 58
M  V30 62 1 30 59
M  V30 63 1 30 60
M  V30 64 1 31 61
M  V30 65 1 31 62
M  V30 END BOND
M  V30 END CTAB
M  END
>  <Dataset>  (102) 
ChEMBL_Kinases

>  <Ligand_Instance>  (102) 
nan

>  <PDB_ID>  (102) 
nan

>  <Standardized_SMILES>  (102) 
CCCN1CCN(C(=O)N2Cc3c(NC(=O)c4ccccn4)n[nH]c3C2(C)C)[C@@H](C)C1

>  <Name>  (102) 
nan

>  <Pocket>  (102) 
nan

>  <ATP_Site>  (102) 
nan

>  <Peripheral>  (102) 
nan

>  <Num_H_Atoms_ProtBoundConf>  (102) 
nan

>  <Num_Resolved_Atoms>  (102) 
nan

>  <Num_Not_Resolved_Atoms>  (102) 
nan

$$$$
CHEMBL3917001
     RDKit          3D

  0  0  0  0  0  0  0  0  0  0999 V3000
M  V30 BEGIN CTAB
M  V30 COUNTS 44 47 0 0 0
M  V30 BEGIN ATOM
M  V30 1 C -3.438010 -7.329964 -0.952397 0
M  V30 2 O -3.447395 -6.234962 -1.821741 0
M  V30 3 C -2.368454 -5.402849 -2.082981 0
M  V30 4 C -2.623614 -4.379607 -2.985936 0
M  V30 5 C -1.623594 -3.475564 -3.333075 0
M  V30 6 C -0.376681 -3.618052 -2.761884 0
M  V30 7 S 1.035208 -2.542038 -3.093476 0
M  V30 8 C 1.032085 -1.179492 -1.927906 0
M  V30 9 C 0.418220 0.048707 -2.074291 0
M  V30 10 C 0.531912 0.974699 -1.055131 0
M  V30 11 C 1.247428 0.669187 0.083987 0
M  V30 12 C 1.354017 1.663736 1.148197 0
M  V30 13 N 2.007688 1.531461 2.315061 0
M  V30 14 C 1.894444 2.649723 3.055007 0
M  V30 15 C 2.357882 3.037449 4.296451 0
M  V30 16 C 2.093410 4.270000 4.838449 0
M  V30 17 C 2.556458 4.731222 6.142415 0
M  V30 18 N 3.337801 3.817792 6.887823 0
M  V30 19 O 2.296002 5.872863 6.613917 0
M  V30 20 C 1.324995 5.159350 4.097942 0
M  V30 21 C 0.846096 4.787848 2.840157 0
M  V30 22 C 1.130662 3.529702 2.315510 0
M  V30 23 N 0.818802 2.897926 1.161145 0
M  V30 24 C 1.866998 -0.553153 0.246578 0
M  V30 25 C 1.756311 -1.493566 -0.779099 0
M  V30 26 C -0.098573 -4.628078 -1.860941 0
M  V30 27 C -1.100264 -5.516231 -1.526981 0
M  V30 28 H -3.323611 -8.310424 -1.437005 0
M  V30 29 H -2.706702 -7.159594 -0.126094 0
M  V30 30 H -4.439858 -7.318056 -0.436382 0
M  V30 31 H -3.580548 -4.219681 -3.464265 0
M  V30 32 H -1.728975 -2.650284 -4.024400 0
M  V30 33 H -0.104410 0.151461 -3.009893 0
M  V30 34 H 0.031472 1.921017 -1.221739 0
M  V30 35 H 2.945977 2.359779 4.865742 0
M  V30 36 H 3.200715 2.782233 6.845730 0
M  V30 37 H 4.124626 3.790207 7.572287 0
M  V30 38 H 1.098659 6.139272 4.497364 0
M  V30 39 H 0.240000 5.486274 2.253432 0
M  V30 40 H 0.243253 3.325544 0.401360 0
M  V30 41 H 2.410453 -0.730707 1.158629 0
M  V30 42 H 2.269284 -2.411031 -0.563151 0
M  V30 43 H 0.862658 -4.779503 -1.387732 0
M  V30 44 H -0.974940 -6.335436 -0.833094 0
M  V30 END ATOM
M  V30 BEGIN BOND
M  V30 1 1 1 2
M  V30 2 1 2 3
M  V30 3 2 3 4
M  V30 4 1 4 5
M  V30 5 2 5 6
M  V30 6 1 6 7
M  V30 7 1 7 8
M  V30 8 2 8 9
M  V30 9 1 9 10
M  V30 10 2 10 11
M  V30 11 1 11 12
M  V30 12 2 12 13
M  V30 13 1 13 14
M  V30 14 2 14 15
M  V30 15 1 15 16
M  V30 16 1 16 17
M  V30 17 1 17 18
M  V30 18 2 17 19
M  V30 19 2 16 20
M  V30 20 1 20 21
M  V30 21 2 21 22
M  V30 22 1 22 23
M  V30 23 1 11 24
M  V30 24 2 24 25
M  V30 25 1 6 26
M  V30 26 2 26 27
M  V30 27 1 27 3
M  V30 28 1 25 8
M  V30 29 1 23 12
M  V30 30 1 22 14
M  V30 31 1 1 28
M  V30 32 1 1 29
M  V30 33 1 1 30
M  V30 34 1 4 31
M  V30 35 1 5 32
M  V30 36 1 9 33
M  V30 37 1 10 34
M  V30 38 1 15 35
M  V30 39 1 18 36
M  V30 40 1 18 37
M  V30 41 1 20 38
M  V30 42 1 21 39
M  V30 43 1 23 40
M  V30 44 1 24 41
M  V30 45 1 25 42
M  V30 46 1 26 43
M  V30 47 1 27 44
M  V30 END BOND
M  V30 END CTAB
M  END
>  <Dataset>  (103) 
ChEMBL_Kinases

>  <Ligand_Instance>  (103) 
nan

>  <PDB_ID>  (103) 
nan

>  <Standardized_SMILES>  (103) 
COc1ccc(Sc2ccc(-c3nc4cc(C(N)=O)ccc4[nH]3)cc2)cc1

>  <Name>  (103) 
nan

>  <Pocket>  (103) 
nan

>  <ATP_Site>  (103) 
nan

>  <Peripheral>  (103) 
nan

>  <Num_H_Atoms_ProtBoundConf>  (103) 
nan

>  <Num_Resolved_Atoms>  (103) 
nan

>  <Num_Not_Resolved_Atoms>  (103) 
nan

$$$$
CHEMBL487661
     RDKit          3D

  0  0  0  0  0  0  0  0  0  0999 V3000
M  V30 BEGIN CTAB
M  V30 COUNTS 81 82 0 0 0
M  V30 BEGIN ATOM
M  V30 1 C 5.043990 0.659263 3.146461 0
M  V30 2 C 4.357897 -0.377054 2.288054 0
M  V30 3 C 3.654515 0.287395 1.103084 0
M  V30 4 C 4.695961 1.017444 0.280570 0
M  V30 5 C 4.065545 1.716321 -0.936561 0
M  V30 6 C 3.441691 0.666226 -1.737393 0
M  V30 7 C 2.217073 0.503725 -2.208893 0
M  V30 8 C 1.503936 -0.506212 -3.014056 0
M  V30 9 C 0.280900 0.196284 -3.472426 0
M  V30 10 C 0.345501 0.257114 -4.997864 0
M  V30 11 O 1.460257 0.930736 -5.437038 0
M  V30 12 C -1.002032 -0.510041 -3.122190 0
M  V30 13 O -1.210180 -0.638219 -1.752501 0
M  V30 14 C -2.338477 -1.265127 -1.283336 0
M  V30 15 O -2.806201 -1.512715 -2.417607 0
M  V30 16 C -2.759431 -1.510536 0.068328 0
M  V30 17 C -3.944593 -2.174704 0.300673 0
M  V30 18 C -4.845421 -2.674119 -0.749313 0
M  V30 19 C -5.846386 -1.600625 -1.166252 0
M  V30 20 C -5.616663 -3.862141 -0.158405 0
M  V30 21 C -4.301147 -2.384182 1.628186 0
M  V30 22 C -3.558585 -1.977754 2.715418 0
M  V30 23 C -3.937853 -2.200690 4.120125 0
M  V30 24 C -3.977038 -0.835950 4.812746 0
M  V30 25 C -2.862173 -3.000658 4.855786 0
M  V30 26 C -2.391398 -1.322910 2.389658 0
M  V30 27 C -1.959573 -1.071283 1.093780 0
M  V30 28 C -0.674294 -0.339588 0.963925 0
M  V30 29 C 0.393971 -1.398673 0.806809 0
M  V30 30 C -0.356552 0.410319 2.264816 0
M  V30 31 O 0.237993 1.488780 -2.911860 0
M  V30 32 C 1.214489 1.523358 -1.926731 0
M  V30 33 O 1.198093 2.331173 -0.952154 0
M  V30 34 C 5.236508 2.375791 -1.654685 0
M  V30 35 C 6.274241 1.395852 -2.100621 0
M  V30 36 H 6.152866 0.591581 3.003357 0
M  V30 37 H 4.842466 0.486534 4.230549 0
M  V30 38 H 4.784254 1.693105 2.859171 0
M  V30 39 H 3.639815 -0.905224 2.918247 0
M  V30 40 H 5.083538 -1.117016 1.904686 0
M  V30 41 H 3.204837 -0.526336 0.504844 0
M  V30 42 H 2.903339 0.997307 1.444371 0
M  V30 43 H 5.305670 1.692522 0.887355 0
M  V30 44 H 5.347193 0.218549 -0.140200 0
M  V30 45 H 3.404710 2.476781 -0.506768 0
M  V30 46 H 4.118681 -0.161509 -2.007249 0
M  V30 47 H 2.183491 -0.821993 -3.844301 0
M  V30 48 H 1.265454 -1.441010 -2.476729 0
M  V30 49 H 0.476187 -0.812563 -5.319979 0
M  V30 50 H -0.589424 0.624252 -5.435894 0
M  V30 51 H 1.276275 1.664835 -6.082455 0
M  V30 52 H -1.870102 0.010616 -3.583148 0
M  V30 53 H -0.999470 -1.539977 -3.569002 0
M  V30 54 H -4.351761 -3.036940 -1.649574 0
M  V30 55 H -5.410264 -0.597812 -1.034934 0
M  V30 56 H -6.771094 -1.769251 -0.574035 0
M  V30 57 H -6.078479 -1.707531 -2.244935 0
M  V30 58 H -6.504276 -3.479207 0.351598 0
M  V30 59 H -5.001342 -4.450236 0.532260 0
M  V30 60 H -5.883863 -4.555423 -0.994734 0
M  V30 61 H -5.241359 -2.911136 1.848946 0
M  V30 62 H -4.882375 -2.729408 4.240283 0
M  V30 63 H -4.666444 -0.862502 5.688218 0
M  V30 64 H -2.964555 -0.561563 5.179439 0
M  V30 65 H -4.251165 -0.038341 4.077521 0
M  V30 66 H -3.250003 -3.160667 5.893073 0
M  V30 67 H -1.977835 -2.320926 4.922938 0
M  V30 68 H -2.621838 -3.933770 4.333670 0
M  V30 69 H -1.781694 -0.988964 3.245040 0
M  V30 70 H -0.678359 0.432774 0.196006 0
M  V30 71 H -0.008128 -2.420811 0.657273 0
M  V30 72 H 0.969408 -1.157931 -0.109470 0
M  V30 73 H 1.109252 -1.408224 1.647219 0
M  V30 74 H 0.370332 1.225361 2.067420 0
M  V30 75 H 0.131866 -0.279063 2.987374 0
M  V30 76 H -1.267063 0.899562 2.667059 0
M  V30 77 H 5.750540 3.102757 -0.993236 0
M  V30 78 H 4.880770 2.994361 -2.517578 0
M  V30 79 H 5.915510 0.533760 -2.660905 0
M  V30 80 H 6.995969 1.973497 -2.737007 0
M  V30 81 H 6.864385 1.053648 -1.213143 0
M  V30 END ATOM
M  V30 BEGIN BOND
M  V30 1 1 1 2
M  V30 2 1 2 3
M  V30 3 1 3 4
M  V30 4 1 4 5
M  V30 5 1 5 6
M  V30 6 2 6 7
M  V30 7 1 7 8
M  V30 8 1 8 9
M  V30 9 1 9 10
M  V30 10 1 10 11
M  V30 11 1 9 12
M  V30 12 1 12 13
M  V30 13 1 13 14
M  V30 14 2 14 15
M  V30 15 1 14 16
M  V30 16 2 16 17
M  V30 17 1 17 18
M  V30 18 1 18 19
M  V30 19 1 18 20
M  V30 20 1 17 21
M  V30 21 2 21 22
M  V30 22 1 22 23
M  V30 23 1 23 24
M  V30 24 1 23 25
M  V30 25 1 22 26
M  V30 26 2 26 27
M  V30 27 1 27 28
M  V30 28 1 28 29
M  V30 29 1 28 30
M  V30 30 1 9 31
M  V30 31 1 31 32
M  V30 32 2 32 33
M  V30 33 1 5 34
M  V30 34 1 34 35
M  V30 35 1 32 7
M  V30 36 1 27 16
M  V30 37 1 1 36
M  V30 38 1 1 37
M  V30 39 1 1 38
M  V30 40 1 2 39
M  V30 41 1 2 40
M  V30 42 1 3 41
M  V30 43 1 3 42
M  V30 44 1 4 43
M  V30 45 1 4 44
M  V30 46 1 5 45
M  V30 47 1 6 46
M  V30 48 1 8 47
M  V30 49 1 8 48
M  V30 50 1 10 49
M  V30 51 1 10 50
M  V30 52 1 11 51
M  V30 53 1 12 52
M  V30 54 1 12 53
M  V30 55 1 18 54
M  V30 56 1 19 55
M  V30 57 1 19 56
M  V30 58 1 19 57
M  V30 59 1 20 58
M  V30 60 1 20 59
M  V30 61 1 20 60
M  V30 62 1 21 61
M  V30 63 1 23 62
M  V30 64 1 24 63
M  V30 65 1 24 64
M  V30 66 1 24 65
M  V30 67 1 25 66
M  V30 68 1 25 67
M  V30 69 1 25 68
M  V30 70 1 26 69
M  V30 71 1 28 70
M  V30 72 1 29 71
M  V30 73 1 29 72
M  V30 74 1 29 73
M  V30 75 1 30 74
M  V30 76 1 30 75
M  V30 77 1 30 76
M  V30 78 1 34 77
M  V30 79 1 34 78
M  V30 80 1 35 79
M  V30 81 1 35 80
M  V30 82 1 35 81
M  V30 END BOND
M  V30 END CTAB
M  END
>  <Dataset>  (104) 
ChEMBL_Kinases

>  <Ligand_Instance>  (104) 
nan

>  <PDB_ID>  (104) 
nan

>  <Standardized_SMILES>  (104) 
CCCCC(/C=C1/CC(CO)(COC(=O)c2c(C(C)C)cc(C(C)C)cc2C(C)C)OC1=O)CC

>  <Name>  (104) 
nan

>  <Pocket>  (104) 
nan

>  <ATP_Site>  (104) 
nan

>  <Peripheral>  (104) 
nan

>  <Num_H_Atoms_ProtBoundConf>  (104) 
nan

>  <Num_Resolved_Atoms>  (104) 
nan

>  <Num_Not_Resolved_Atoms>  (104) 
nan

$$$$
CHEMBL391830
     RDKit          3D

  0  0  0  0  0  0  0  0  0  0999 V3000
M  V30 BEGIN CTAB
M  V30 COUNTS 28 30 0 0 0
M  V30 BEGIN ATOM
M  V30 1 O -1.152019 -4.338810 1.916341 0
M  V30 2 C -0.711948 -3.720708 0.888904 0
M  V30 3 O -1.209105 -3.924836 -0.371288 0
M  V30 4 C 0.365060 -2.772568 1.140299 0
M  V30 5 N 0.751809 -2.694714 2.516177 0
M  V30 6 C 1.846931 -1.805418 2.722647 0
M  V30 7 C 2.234341 -0.973710 1.531128 0
M  V30 8 C 1.025338 -0.428212 0.850890 0
M  V30 9 C 0.059971 -1.398282 0.659313 0
M  V30 10 N -0.986458 -0.821425 0.044352 0
M  V30 11 C -0.726953 0.498281 -0.169014 0
M  V30 12 C -1.397590 1.546940 -0.732936 0
M  V30 13 C -0.797401 2.789644 -0.773787 0
M  V30 14 C 0.474662 3.022889 -0.259966 0
M  V30 15 F 1.029663 4.241245 -0.315057 0
M  V30 16 C 1.178487 1.973830 0.318982 0
M  V30 17 C 0.533746 0.753766 0.334136 0
M  V30 18 H -2.160771 -4.309561 -0.470586 0
M  V30 19 H 1.286299 -3.102925 0.581717 0
M  V30 20 H -0.023751 -2.601913 3.193090 0
M  V30 21 H 1.515589 -1.065649 3.506522 0
M  V30 22 H 2.769459 -2.307391 3.094935 0
M  V30 23 H 2.876461 -1.532918 0.816671 0
M  V30 24 H 2.817687 -0.109568 1.933187 0
M  V30 25 H -1.871927 -1.300854 -0.234005 0
M  V30 26 H -2.369281 1.384679 -1.129405 0
M  V30 27 H -1.316270 3.635269 -1.218667 0
M  V30 28 H 2.163577 2.109935 0.728030 0
M  V30 END ATOM
M  V30 BEGIN BOND
M  V30 1 2 1 2
M  V30 2 1 2 3
M  V30 3 1 2 4
M  V30 4 1 4 5
M  V30 5 1 5 6
M  V30 6 1 6 7
M  V30 7 1 7 8
M  V30 8 2 8 9
M  V30 9 1 9 10
M  V30 10 1 10 11
M  V30 11 2 11 12
M  V30 12 1 12 13
M  V30 13 2 13 14
M  V30 14 1 14 15
M  V30 15 1 14 16
M  V30 16 2 16 17
M  V30 17 1 9 4
M  V30 18 1 17 11
M  V30 19 1 17 8
M  V30 20 1 3 18
M  V30 21 1 4 19
M  V30 22 1 5 20
M  V30 23 1 6 21
M  V30 24 1 6 22
M  V30 25 1 7 23
M  V30 26 1 7 24
M  V30 27 1 10 25
M  V30 28 1 12 26
M  V30 29 1 13 27
M  V30 30 1 16 28
M  V30 END BOND
M  V30 END CTAB
M  END
>  <Dataset>  (105) 
ChEMBL_Kinases

>  <Ligand_Instance>  (105) 
nan

>  <PDB_ID>  (105) 
nan

>  <Standardized_SMILES>  (105) 
O=C(O)C1NCCc2c1[nH]c1ccc(F)cc21

>  <Name>  (105) 
nan

>  <Pocket>  (105) 
nan

>  <ATP_Site>  (105) 
nan

>  <Peripheral>  (105) 
nan

>  <Num_H_Atoms_ProtBoundConf>  (105) 
nan

>  <Num_Resolved_Atoms>  (105) 
nan

>  <Num_Not_Resolved_Atoms>  (105) 
nan

$$$$
CHEMBL4876497
     RDKit          3D

  0  0  0  0  0  0  0  0  0  0999 V3000
M  V30 BEGIN CTAB
M  V30 COUNTS 46 49 0 0 0
M  V30 BEGIN ATOM
M  V30 1 C 0.773020 -6.215060 2.991691 0
M  V30 2 C 1.528382 -5.553377 1.891463 0
M  V30 3 N 2.659325 -5.944203 1.255439 0
M  V30 4 N 2.988322 -5.044338 0.328490 0
M  V30 5 C 2.102810 -4.024569 0.304019 0
M  V30 6 C 1.971122 -2.867423 -0.435647 0
M  V30 7 C 0.885750 -2.026816 -0.166020 0
M  V30 8 C -0.044207 -2.324341 0.810006 0
M  V30 9 C -1.148436 -1.392874 1.028525 0
M  V30 10 C -0.958596 -0.027711 1.098406 0
M  V30 11 C -1.920682 0.915895 1.298582 0
M  V30 12 N -1.731691 2.299536 1.382794 0
M  V30 13 C -0.498240 3.031911 1.322674 0 CFG=1
M  V30 14 C 0.359408 2.785794 2.530971 0
M  V30 15 O 1.554707 3.523075 2.469443 0
M  V30 16 C 0.216603 2.797860 0.040910 0
M  V30 17 C 1.514438 2.482126 -0.293124 0
M  V30 18 C 1.870528 2.335839 -1.614788 0
M  V30 19 C 0.984170 2.489552 -2.658990 0
M  V30 20 C -0.331709 2.808909 -2.331563 0
M  V30 21 C -0.699534 2.959047 -0.988522 0
M  V30 22 C -3.180219 0.347131 1.432706 0
M  V30 23 N -3.427170 -0.967926 1.374060 0
M  V30 24 C -2.438260 -1.856562 1.174504 0
M  V30 25 Cl -2.825907 -3.549727 1.108912 0
M  V30 26 C 0.133529 -3.498518 1.524593 0
M  V30 27 C 1.188643 -4.356798 1.292573 0
M  V30 28 H 1.444173 -6.842963 3.610407 0
M  V30 29 H 0.364329 -5.444153 3.706623 0
M  V30 30 H -0.076291 -6.762591 2.578017 0
M  V30 31 H 3.829847 -5.113016 -0.307368 0
M  V30 32 H 2.707130 -2.631998 -1.208082 0
M  V30 33 H 0.836941 -1.122907 -0.787888 0
M  V30 34 H 0.069838 0.277416 0.966086 0
M  V30 35 H -2.623459 2.871610 1.507292 0
M  V30 36 H -0.728088 4.137695 1.337350 0
M  V30 37 H -0.185940 3.207564 3.408093 0
M  V30 38 H 0.647793 1.735875 2.692082 0
M  V30 39 H 2.043857 3.352633 3.314983 0
M  V30 40 H 2.125934 2.379218 0.577531 0
M  V30 41 H 2.909997 2.088961 -1.762175 0
M  V30 42 H 1.370706 2.352660 -3.642640 0
M  V30 43 H -0.970002 2.914060 -3.195841 0
M  V30 44 H -1.761336 3.205308 -0.959328 0
M  V30 45 H -4.073527 0.969455 1.600224 0
M  V30 46 H -0.569714 -3.747729 2.280430 0
M  V30 END ATOM
M  V30 BEGIN BOND
M  V30 1 1 1 2
M  V30 2 2 2 3
M  V30 3 1 3 4
M  V30 4 1 4 5
M  V30 5 2 5 6
M  V30 6 1 6 7
M  V30 7 2 7 8
M  V30 8 1 8 9
M  V30 9 2 9 10
M  V30 10 1 10 11
M  V30 11 1 11 12
M  V30 12 1 12 13
M  V30 13 1 13 14
M  V30 14 1 14 15
M  V30 15 1 13 16
M  V30 16 2 16 17
M  V30 17 1 17 18
M  V30 18 2 18 19
M  V30 19 1 19 20
M  V30 20 2 20 21
M  V30 21 2 11 22
M  V30 22 1 22 23
M  V30 23 2 23 24
M  V30 24 1 24 25
M  V30 25 1 8 26
M  V30 26 2 26 27
M  V30 27 1 27 2
M  V30 28 1 27 5
M  V30 29 1 24 9
M  V30 30 1 21 16
M  V30 31 1 1 28
M  V30 32 1 1 29
M  V30 33 1 1 30
M  V30 34 1 4 31
M  V30 35 1 6 32
M  V30 36 1 7 33
M  V30 37 1 10 34
M  V30 38 1 12 35
M  V30 39 1 13 36 CFG=3
M  V30 40 1 14 37
M  V30 41 1 14 38
M  V30 42 1 15 39
M  V30 43 1 17 40
M  V30 44 1 18 41
M  V30 45 1 19 42
M  V30 46 1 20 43
M  V30 47 1 21 44
M  V30 48 1 22 45
M  V30 49 1 26 46
M  V30 END BOND
M  V30 END CTAB
M  END
>  <Dataset>  (106) 
ChEMBL_Kinases

>  <Ligand_Instance>  (106) 
nan

>  <PDB_ID>  (106) 
nan

>  <Standardized_SMILES>  (106) 
Cc1n[nH]c2ccc(-c3cc(N[C@@H](CO)c4ccccc4)cnc3Cl)cc12

>  <Name>  (106) 
nan

>  <Pocket>  (106) 
nan

>  <ATP_Site>  (106) 
nan

>  <Peripheral>  (106) 
nan

>  <Num_H_Atoms_ProtBoundConf>  (106) 
nan

>  <Num_Resolved_Atoms>  (106) 
nan

>  <Num_Not_Resolved_Atoms>  (106) 
nan

$$$$
CHEMBL392052
     RDKit          3D

  0  0  0  0  0  0  0  0  0  0999 V3000
M  V30 BEGIN CTAB
M  V30 COUNTS 30 34 0 0 0
M  V30 BEGIN ATOM
M  V30 1 O 3.603248 0.230034 1.127929 0
M  V30 2 C 2.786296 -0.540950 1.646860 0
M  V30 3 N 3.292199 -1.322856 2.714738 0
M  V30 4 C 2.247924 -2.162747 3.217416 0
M  V30 5 O 2.272445 -3.002170 4.153363 0
M  V30 6 C 1.105974 -1.812961 2.368076 0
M  V30 7 C 1.409292 -0.854548 1.433921 0
M  V30 8 C 0.455427 -0.429829 0.578251 0
M  V30 9 C 0.521779 0.496440 -0.416613 0
M  V30 10 C 1.399290 1.353441 -1.005827 0
M  V30 11 C 1.126735 2.202686 -2.053260 0
M  V30 12 Cl 2.324671 3.272622 -2.747315 0
M  V30 13 C -0.169597 2.198179 -2.574429 0
M  V30 14 C -1.100838 1.350077 -2.016841 0
M  V30 15 C -0.739214 0.532608 -0.968309 0
M  V30 16 N -1.529283 -0.360148 -0.304146 0
M  V30 17 C -0.802840 -0.968246 0.661505 0
M  V30 18 C -1.104088 -1.923373 1.592876 0
M  V30 19 C -2.307448 -2.566002 1.813383 0
M  V30 20 C -2.069296 -3.426127 2.858878 0
M  V30 21 C -0.746860 -3.260291 3.212674 0
M  V30 22 N -0.146140 -2.339468 2.440690 0
M  V30 23 H 4.247869 -1.389695 3.176345 0
M  V30 24 H 2.402412 1.412117 -0.663416 0
M  V30 25 H -0.414824 2.853814 -3.397191 0
M  V30 26 H -2.090236 1.340301 -2.407621 0
M  V30 27 H -2.555039 -0.564203 -0.495370 0
M  V30 28 H -3.226132 -2.431164 1.291760 0
M  V30 29 H -2.759228 -4.117693 3.341756 0
M  V30 30 H -0.231620 -3.786988 4.002824 0
M  V30 END ATOM
M  V30 BEGIN BOND
M  V30 1 2 1 2
M  V30 2 1 2 3
M  V30 3 1 3 4
M  V30 4 2 4 5
M  V30 5 1 4 6
M  V30 6 2 6 7
M  V30 7 1 7 8
M  V30 8 1 8 9
M  V30 9 2 9 10
M  V30 10 1 10 11
M  V30 11 1 11 12
M  V30 12 2 11 13
M  V30 13 1 13 14
M  V30 14 2 14 15
M  V30 15 1 15 16
M  V30 16 1 16 17
M  V30 17 1 17 18
M  V30 18 2 18 19
M  V30 19 1 19 20
M  V30 20 2 20 21
M  V30 21 1 21 22
M  V30 22 1 7 2
M  V30 23 2 17 8
M  V30 24 1 22 18
M  V30 25 1 22 6
M  V30 26 1 15 9
M  V30 27 1 3 23
M  V30 28 1 10 24
M  V30 29 1 13 25
M  V30 30 1 14 26
M  V30 31 1 16 27
M  V30 32 1 19 28
M  V30 33 1 20 29
M  V30 34 1 21 30
M  V30 END BOND
M  V30 END CTAB
M  END
>  <Dataset>  (107) 
ChEMBL_Kinases

>  <Ligand_Instance>  (107) 
nan

>  <PDB_ID>  (107) 
nan

>  <Standardized_SMILES>  (107) 
O=C1NC(=O)c2c1c1c3cc(Cl)ccc3[nH]c1c1cccn21

>  <Name>  (107) 
nan

>  <Pocket>  (107) 
nan

>  <ATP_Site>  (107) 
nan

>  <Peripheral>  (107) 
nan

>  <Num_H_Atoms_ProtBoundConf>  (107) 
nan

>  <Num_Resolved_Atoms>  (107) 
nan

>  <Num_Not_Resolved_Atoms>  (107) 
nan

$$$$
CHEMBL3920358
     RDKit          3D

  0  0  0  0  0  0  0  0  0  0999 V3000
M  V30 BEGIN CTAB
M  V30 COUNTS 51 55 0 0 0
M  V30 BEGIN ATOM
M  V30 1 C 0.523284 -7.338499 3.501966 0
M  V30 2 O 1.567556 -6.559191 2.924105 0
M  V30 3 C 1.300764 -5.400571 2.206348 0
M  V30 4 O 0.060161 -5.273793 2.221861 0
M  V30 5 N 2.360989 -4.615049 1.623325 0
M  V30 6 C 1.826863 -3.478797 0.940413 0
M  V30 7 N 1.568426 -2.234706 1.393000 0
M  V30 8 C 1.060957 -1.483304 0.373324 0
M  V30 9 C 0.627691 -0.174480 0.255983 0
M  V30 10 C 0.155737 0.261319 -0.988870 0
M  V30 11 C -0.277759 1.693180 -0.968153 0
M  V30 12 O -0.814404 1.972800 -2.214743 0
M  V30 13 C 0.860627 2.586587 -0.630655 0
M  V30 14 C 2.036863 2.708936 -1.341636 0
M  V30 15 C 3.004730 3.585601 -0.887267 0
M  V30 16 C 2.826960 4.339018 0.254086 0
M  V30 17 C 1.649096 4.192707 0.933933 0
M  V30 18 C 0.641044 3.328180 0.525482 0
M  V30 19 C -0.689773 2.941951 0.987205 0
M  V30 20 O -1.143916 3.469167 2.029921 0
M  V30 21 N -1.241912 1.963668 0.080069 0
M  V30 22 C -2.568749 1.477560 0.374212 0
M  V30 23 C -2.622821 0.293937 1.233268 0
M  V30 24 C -2.684339 0.426073 2.626165 0
M  V30 25 C -2.737624 -0.732538 3.408808 0
M  V30 26 N -2.732348 -1.979194 2.877689 0
M  V30 27 C -2.674126 -2.149388 1.544986 0
M  V30 28 C -2.620488 -1.019002 0.745694 0
M  V30 29 C 0.120845 -0.588819 -2.076608 0
M  V30 30 C 0.554380 -1.892626 -1.952483 0
M  V30 31 C 1.021609 -2.330486 -0.727295 0
M  V30 32 N 1.489854 -3.546835 -0.376543 0
M  V30 33 H -0.384231 -7.291517 2.864391 0
M  V30 34 H 0.798979 -8.406623 3.586415 0
M  V30 35 H 0.245370 -6.931238 4.513661 0
M  V30 36 H 3.355818 -4.930401 1.747065 0
M  V30 37 H 0.679795 0.432618 1.133121 0
M  V30 38 H -0.919538 2.924704 -2.394794 0
M  V30 39 H 2.244954 2.148340 -2.247439 0
M  V30 40 H 3.941304 3.684488 -1.451574 0
M  V30 41 H 3.555672 5.023174 0.628601 0
M  V30 42 H 1.438218 4.758790 1.848828 0
M  V30 43 H -3.245104 2.262107 0.755603 0
M  V30 44 H -3.006792 1.203081 -0.630497 0
M  V30 45 H -2.691685 1.382570 3.104998 0
M  V30 46 H -2.786134 -0.668332 4.493960 0
M  V30 47 H -2.664481 -3.087936 1.021514 0
M  V30 48 H -2.572393 -1.071030 -0.326816 0
M  V30 49 H -0.267065 -0.114340 -2.968746 0
M  V30 50 H 0.500729 -2.505859 -2.841816 0
M  V30 51 H 1.574109 -4.382708 -1.009405 0
M  V30 END ATOM
M  V30 BEGIN BOND
M  V30 1 1 1 2
M  V30 2 1 2 3
M  V30 3 2 3 4
M  V30 4 1 3 5
M  V30 5 1 5 6
M  V30 6 2 6 7
M  V30 7 1 7 8
M  V30 8 2 8 9
M  V30 9 1 9 10
M  V30 10 1 10 11
M  V30 11 1 11 12
M  V30 12 1 11 13
M  V30 13 2 13 14
M  V30 14 1 14 15
M  V30 15 2 15 16
M  V30 16 1 16 17
M  V30 17 2 17 18
M  V30 18 1 18 19
M  V30 19 2 19 20
M  V30 20 1 19 21
M  V30 21 1 21 22
M  V30 22 1 22 23
M  V30 23 2 23 24
M  V30 24 1 24 25
M  V30 25 2 25 26
M  V30 26 1 26 27
M  V30 27 2 27 28
M  V30 28 2 10 29
M  V30 29 1 29 30
M  V30 30 2 30 31
M  V30 31 1 31 32
M  V30 32 1 32 6
M  V30 33 1 31 8
M  V30 34 1 21 11
M  V30 35 1 28 23
M  V30 36 1 18 13
M  V30 37 1 1 33
M  V30 38 1 1 34
M  V30 39 1 1 35
M  V30 40 1 5 36
M  V30 41 1 9 37
M  V30 42 1 12 38
M  V30 43 1 14 39
M  V30 44 1 15 40
M  V30 45 1 16 41
M  V30 46 1 17 42
M  V30 47 1 22 43
M  V30 48 1 22 44
M  V30 49 1 24 45
M  V30 50 1 25 46
M  V30 51 1 27 47
M  V30 52 1 28 48
M  V30 53 1 29 49
M  V30 54 1 30 50
M  V30 55 1 32 51
M  V30 END BOND
M  V30 END CTAB
M  END
>  <Dataset>  (108) 
ChEMBL_Kinases

>  <Ligand_Instance>  (108) 
nan

>  <PDB_ID>  (108) 
nan

>  <Standardized_SMILES>  (108) 
COC(=O)Nc1nc2cc(C3(O)c4ccccc4C(=O)N3Cc3ccncc3)ccc2[nH]1

>  <Name>  (108) 
nan

>  <Pocket>  (108) 
nan

>  <ATP_Site>  (108) 
nan

>  <Peripheral>  (108) 
nan

>  <Num_H_Atoms_ProtBoundConf>  (108) 
nan

>  <Num_Resolved_Atoms>  (108) 
nan

>  <Num_Not_Resolved_Atoms>  (108) 
nan

$$$$
CHEMBL3920342
     RDKit          3D

  0  0  0  0  0  0  0  0  0  0999 V3000
M  V30 BEGIN CTAB
M  V30 COUNTS 57 60 0 0 0
M  V30 BEGIN ATOM
M  V30 1 C 0.236952 1.092512 2.345971 0
M  V30 2 C 1.599496 1.639677 2.122734 0 CFG=1
M  V30 3 C 2.543590 1.214816 3.198510 0
M  V30 4 N 3.912657 1.583098 2.940380 0
M  V30 5 C 4.319619 2.828472 3.508504 0
M  V30 6 C 4.336245 1.329070 1.606593 0
M  V30 7 C 3.408954 2.040002 0.632550 0
M  V30 8 N 2.124333 1.396499 0.768116 0
M  V30 9 C 1.280372 0.628904 -0.024240 0
M  V30 10 O 2.364648 1.042863 -0.469935 0
M  V30 11 N 0.567730 -0.121047 -0.953617 0
M  V30 12 C -0.737396 -0.660608 -0.510860 0
M  V30 13 C -0.867021 -1.806754 -1.438142 0
M  V30 14 C -1.543460 -2.974646 -1.713153 0
M  V30 15 N -2.629187 -3.629832 -1.082124 0
M  V30 16 C -3.401601 -3.210586 -0.009708 0
M  V30 17 O -3.077943 -2.076627 0.454516 0
M  V30 18 C -4.512571 -3.851136 0.665088 0
M  V30 19 C -5.145497 -3.237105 1.723966 0
M  V30 20 C -6.203663 -3.768725 2.419959 0
M  V30 21 C -6.694832 -5.002656 2.062358 0
M  V30 22 F -7.736889 -5.549835 2.731461 0
M  V30 23 C -6.112661 -5.678218 1.011973 0
M  V30 24 C -5.056411 -5.076716 0.366096 0
M  V30 25 F -4.547346 -5.805611 -0.647234 0
M  V30 26 N -0.981709 -3.488222 -2.850019 0
M  V30 27 N -0.024664 -2.736845 -3.292536 0
M  V30 28 C 0.062353 -1.709710 -2.451318 0
M  V30 29 C 0.897582 -0.489186 -2.342339 0
M  V30 30 C 0.439483 0.591459 -3.295495 0
M  V30 31 C 2.359401 -0.735755 -2.513969 0
M  V30 32 H 0.299961 -0.001058 2.507385 0
M  V30 33 H -0.181818 1.521262 3.255768 0
M  V30 34 H -0.447571 1.387334 1.517100 0
M  V30 35 H 1.519082 2.757465 2.183254 0
M  V30 36 H 2.468633 0.151878 3.500285 0
M  V30 37 H 2.251046 1.808738 4.114291 0
M  V30 38 H 5.005017 2.585218 4.371795 0
M  V30 39 H 3.456470 3.359485 3.956120 0
M  V30 40 H 4.931949 3.451450 2.824507 0
M  V30 41 H 5.336987 1.775229 1.457700 0
M  V30 42 H 4.383647 0.249318 1.421703 0
M  V30 43 H 3.296235 3.087994 0.993366 0
M  V30 44 H 3.892377 1.982259 -0.336466 0
M  V30 45 H -1.512548 0.109248 -0.672194 0
M  V30 46 H -0.660577 -0.992809 0.546445 0
M  V30 47 H -2.922445 -4.564615 -1.442550 0
M  V30 48 H -4.818392 -2.249980 2.075833 0
M  V30 49 H -6.663486 -3.242163 3.244921 0
M  V30 50 H -6.501663 -6.647402 0.734234 0
M  V30 51 H 0.511762 -2.990045 -4.160523 0
M  V30 52 H 0.263508 1.552082 -2.768940 0
M  V30 53 H -0.479505 0.230381 -3.820851 0
M  V30 54 H 1.204235 0.685075 -4.094344 0
M  V30 55 H 2.607824 -1.484985 -3.275042 0
M  V30 56 H 2.828510 -1.042673 -1.560041 0
M  V30 57 H 2.812219 0.230008 -2.846751 0
M  V30 END ATOM
M  V30 BEGIN BOND
M  V30 1 1 1 2
M  V30 2 1 2 3
M  V30 3 1 3 4
M  V30 4 1 4 5
M  V30 5 1 4 6
M  V30 6 1 6 7
M  V30 7 1 7 8
M  V30 8 1 8 9
M  V30 9 2 9 10
M  V30 10 1 9 11
M  V30 11 1 11 12
M  V30 12 1 12 13
M  V30 13 1 13 14
M  V30 14 1 14 15
M  V30 15 1 15 16
M  V30 16 2 16 17
M  V30 17 1 16 18
M  V30 18 2 18 19
M  V30 19 1 19 20
M  V30 20 2 20 21
M  V30 21 1 21 22
M  V30 22 1 21 23
M  V30 23 2 23 24
M  V30 24 1 24 25
M  V30 25 2 14 26
M  V30 26 1 26 27
M  V30 27 1 27 28
M  V30 28 1 28 29
M  V30 29 1 29 30
M  V30 30 1 29 31
M  V30 31 1 8 2
M  V30 32 1 29 11
M  V30 33 2 28 13
M  V30 34 1 24 18
M  V30 35 1 1 32
M  V30 36 1 1 33
M  V30 37 1 1 34
M  V30 38 1 2 35 CFG=3
M  V30 39 1 3 36
M  V30 40 1 3 37
M  V30 41 1 5 38
M  V30 42 1 5 39
M  V30 43 1 5 40
M  V30 44 1 6 41
M  V30 45 1 6 42
M  V30 46 1 7 43
M  V30 47 1 7 44
M  V30 48 1 12 45
M  V30 49 1 12 46
M  V30 50 1 15 47
M  V30 51 1 19 48
M  V30 52 1 20 49
M  V30 53 1 23 50
M  V30 54 1 27 51
M  V30 55 1 30 52
M  V30 56 1 30 53
M  V30 57 1 30 54
M  V30 58 1 31 55
M  V30 59 1 31 56
M  V30 60 1 31 57
M  V30 END BOND
M  V30 END CTAB
M  END
>  <Dataset>  (109) 
ChEMBL_Kinases

>  <Ligand_Instance>  (109) 
nan

>  <PDB_ID>  (109) 
nan

>  <Standardized_SMILES>  (109) 
C[C@H]1CN(C)CCN1C(=O)N1Cc2c(NC(=O)c3ccc(F)cc3F)n[nH]c2C1(C)C

>  <Name>  (109) 
nan

>  <Pocket>  (109) 
nan

>  <ATP_Site>  (109) 
nan

>  <Peripheral>  (109) 
nan

>  <Num_H_Atoms_ProtBoundConf>  (109) 
nan

>  <Num_Resolved_Atoms>  (109) 
nan

>  <Num_Not_Resolved_Atoms>  (109) 
nan

$$$$
CHEMBL3920214
     RDKit          3D

  0  0  0  0  0  0  0  0  0  0999 V3000
M  V30 BEGIN CTAB
M  V30 COUNTS 46 50 0 0 0
M  V30 BEGIN ATOM
M  V30 1 N -3.028429 -1.123930 3.939512 0
M  V30 2 C -2.641746 0.024054 3.194566 0
M  V30 3 C -3.555709 1.043226 3.082874 0
M  V30 4 C -3.204177 2.182400 2.358629 0
M  V30 5 C -1.947660 2.217729 1.792306 0
M  V30 6 C -0.988124 1.238526 1.864089 0
M  V30 7 N 0.285893 1.303944 1.283750 0
M  V30 8 C 0.803523 2.407891 0.551481 0
M  V30 9 O 0.306810 3.498154 0.225989 0
M  V30 10 C 2.192423 2.122546 0.140277 0
M  V30 11 C 3.189202 2.801063 -0.558025 0
M  V30 12 C 4.431887 2.185726 -0.737638 0
M  V30 13 C 4.681610 0.924782 -0.235846 0
M  V30 14 C 3.697004 0.225553 0.467331 0
M  V30 15 C 2.476004 0.863490 0.627536 0
M  V30 16 C 1.293854 0.263866 1.330743 0
M  V30 17 O 1.642447 -0.131904 2.595292 0
M  V30 18 C 0.786457 -0.911324 0.533840 0
M  V30 19 C 0.275033 -0.476723 -0.693235 0
M  V30 20 C -0.247520 -1.393539 -1.602744 0
M  V30 21 C -0.234328 -2.727310 -1.236531 0
M  V30 22 C 0.268749 -3.163052 -0.027150 0
M  V30 23 C 0.782765 -2.248943 0.864693 0
M  V30 24 N 0.296941 -4.533524 0.384053 0
M  V30 25 C -0.238261 -5.507186 -0.535941 0
M  V30 26 O 0.171343 -6.691269 -0.420300 0
M  V30 27 C -1.231011 -4.957432 -1.524070 0
M  V30 28 O -0.730550 -3.725029 -2.068120 0
M  V30 29 C -1.397647 0.133570 2.596488 0
M  V30 30 H -3.533782 -0.955944 4.820138 0
M  V30 31 H -2.961865 -2.162867 3.880496 0
M  V30 32 H -4.513182 0.956991 3.543793 0
M  V30 33 H -3.910015 2.995063 2.259467 0
M  V30 34 H -1.739629 3.125799 1.246069 0
M  V30 35 H 2.955726 3.792623 -0.938625 0
M  V30 36 H 5.142269 2.786047 -1.290527 0
M  V30 37 H 5.671855 0.499972 -0.409882 0
M  V30 38 H 3.909243 -0.764269 0.855951 0
M  V30 39 H 2.621564 -0.258018 2.695943 0
M  V30 40 H 0.228739 0.543884 -1.052582 0
M  V30 41 H -0.657151 -1.091373 -2.575472 0
M  V30 42 H 1.208190 -2.437562 1.841742 0
M  V30 43 H 0.699823 -4.792068 1.330517 0
M  V30 44 H -1.443950 -5.666574 -2.321537 0
M  V30 45 H -2.160681 -4.739236 -0.944467 0
M  V30 46 H -0.765641 -0.724297 2.753029 0
M  V30 END ATOM
M  V30 BEGIN BOND
M  V30 1 1 1 2
M  V30 2 2 2 3
M  V30 3 1 3 4
M  V30 4 2 4 5
M  V30 5 1 5 6
M  V30 6 1 6 7
M  V30 7 1 7 8
M  V30 8 2 8 9
M  V30 9 1 8 10
M  V30 10 2 10 11
M  V30 11 1 11 12
M  V30 12 2 12 13
M  V30 13 1 13 14
M  V30 14 2 14 15
M  V30 15 1 15 16
M  V30 16 1 16 17
M  V30 17 1 16 18
M  V30 18 2 18 19
M  V30 19 1 19 20
M  V30 20 2 20 21
M  V30 21 1 21 22
M  V30 22 2 22 23
M  V30 23 1 22 24
M  V30 24 1 24 25
M  V30 25 2 25 26
M  V30 26 1 25 27
M  V30 27 1 27 28
M  V30 28 2 6 29
M  V30 29 1 29 2
M  V30 30 1 16 7
M  V30 31 1 23 18
M  V30 32 1 15 10
M  V30 33 1 28 21
M  V30 34 1 1 30
M  V30 35 1 1 31
M  V30 36 1 3 32
M  V30 37 1 4 33
M  V30 38 1 5 34
M  V30 39 1 11 35
M  V30 40 1 12 36
M  V30 41 1 13 37
M  V30 42 1 14 38
M  V30 43 1 17 39
M  V30 44 1 19 40
M  V30 45 1 20 41
M  V30 46 1 23 42
M  V30 47 1 24 43
M  V30 48 1 27 44
M  V30 49 1 27 45
M  V30 50 1 29 46
M  V30 END BOND
M  V30 END CTAB
M  END
>  <Dataset>  (110) 
ChEMBL_Kinases

>  <Ligand_Instance>  (110) 
nan

>  <PDB_ID>  (110) 
nan

>  <Standardized_SMILES>  (110) 
Nc1cccc(N2C(=O)c3ccccc3C2(O)c2ccc3c(c2)NC(=O)CO3)c1

>  <Name>  (110) 
nan

>  <Pocket>  (110) 
nan

>  <ATP_Site>  (110) 
nan

>  <Peripheral>  (110) 
nan

>  <Num_H_Atoms_ProtBoundConf>  (110) 
nan

>  <Num_Resolved_Atoms>  (110) 
nan

>  <Num_Not_Resolved_Atoms>  (110) 
nan

$$$$
CHEMBL610780
     RDKit          3D

  0  0  0  0  0  0  0  0  0  0999 V3000
M  V30 BEGIN CTAB
M  V30 COUNTS 43 46 0 0 0
M  V30 BEGIN ATOM
M  V30 1 C 6.943325 -5.208742 0.040060 0
M  V30 2 O 5.798061 -5.312591 0.867153 0
M  V30 3 C 4.848159 -4.305939 0.955402 0
M  V30 4 C 3.776762 -4.517013 1.791868 0
M  V30 5 C 2.831662 -3.529282 1.887273 0
M  V30 6 C 2.968879 -2.362473 1.156374 0
M  V30 7 N 2.031644 -1.261752 1.184736 0
M  V30 8 C 0.793578 -1.050428 0.668615 0
M  V30 9 C 0.432529 0.240491 1.065848 0
M  V30 10 C -0.906862 0.667693 0.596065 0
M  V30 11 C -1.385722 0.481065 -0.691232 0
M  V30 12 C -2.662831 0.941118 -0.965684 0
M  V30 13 C -3.433265 1.562826 0.003830 0
M  V30 14 C -2.926901 1.733385 1.276655 0
M  V30 15 C -1.654581 1.284067 1.579814 0
M  V30 16 C -3.811483 2.399181 2.230075 0
M  V30 17 O -3.368417 2.563609 3.393963 0
M  V30 18 N -5.094772 2.806379 1.771399 0
M  V30 19 C -5.761132 2.229209 0.622422 0
M  V30 20 C -4.773337 1.981776 -0.493664 0
M  V30 21 C 1.468233 0.772013 1.813198 0
M  V30 22 N 1.303474 2.074600 2.312329 0
M  V30 23 N 2.428948 -0.195849 1.855510 0
M  V30 24 C 4.050529 -2.155996 0.315534 0
M  V30 25 C 5.022966 -3.156184 0.208535 0
M  V30 26 H 6.698926 -5.281636 -1.037011 0
M  V30 27 H 7.352903 -4.173133 0.221118 0
M  V30 28 H 7.749826 -5.895409 0.358745 0
M  V30 29 H 3.653469 -5.424657 2.371512 0
M  V30 30 H 1.954065 -3.598043 2.515411 0
M  V30 31 H 0.436925 -1.905348 0.111845 0
M  V30 32 H -0.725430 -0.012410 -1.392398 0
M  V30 33 H -2.979314 0.763368 -1.995781 0
M  V30 34 H -1.310952 1.446178 2.596561 0
M  V30 35 H -5.556248 3.578723 2.329292 0
M  V30 36 H -6.287812 1.287019 0.918178 0
M  V30 37 H -6.521268 2.944054 0.241352 0
M  V30 38 H -4.668344 2.931897 -1.056606 0
M  V30 39 H -5.192043 1.222398 -1.191023 0
M  V30 40 H 1.486179 3.019902 1.885550 0
M  V30 41 H 0.934902 2.255299 3.284040 0
M  V30 42 H 4.176723 -1.249388 -0.265512 0
M  V30 43 H 5.853014 -2.969356 -0.452561 0
M  V30 END ATOM
M  V30 BEGIN BOND
M  V30 1 1 1 2
M  V30 2 1 2 3
M  V30 3 2 3 4
M  V30 4 1 4 5
M  V30 5 2 5 6
M  V30 6 1 6 7
M  V30 7 1 7 8
M  V30 8 2 8 9
M  V30 9 1 9 10
M  V30 10 2 10 11
M  V30 11 1 11 12
M  V30 12 2 12 13
M  V30 13 1 13 14
M  V30 14 2 14 15
M  V30 15 1 14 16
M  V30 16 2 16 17
M  V30 17 1 16 18
M  V30 18 1 18 19
M  V30 19 1 19 20
M  V30 20 1 9 21
M  V30 21 1 21 22
M  V30 22 2 21 23
M  V30 23 1 6 24
M  V30 24 2 24 25
M  V30 25 1 25 3
M  V30 26 1 23 7
M  V30 27 1 15 10
M  V30 28 1 20 13
M  V30 29 1 1 26
M  V30 30 1 1 27
M  V30 31 1 1 28
M  V30 32 1 4 29
M  V30 33 1 5 30
M  V30 34 1 8 31
M  V30 35 1 11 32
M  V30 36 1 12 33
M  V30 37 1 15 34
M  V30 38 1 18 35
M  V30 39 1 19 36
M  V30 40 1 19 37
M  V30 41 1 20 38
M  V30 42 1 20 39
M  V30 43 1 22 40
M  V30 44 1 22 41
M  V30 45 1 24 42
M  V30 46 1 25 43
M  V30 END BOND
M  V30 END CTAB
M  END
>  <Dataset>  (111) 
ChEMBL_Kinases

>  <Ligand_Instance>  (111) 
nan

>  <PDB_ID>  (111) 
nan

>  <Standardized_SMILES>  (111) 
COc1ccc(-n2cc(-c3ccc4c(c3)C(=O)NCC4)c(N)n2)cc1

>  <Name>  (111) 
nan

>  <Pocket>  (111) 
nan

>  <ATP_Site>  (111) 
nan

>  <Peripheral>  (111) 
nan

>  <Num_H_Atoms_ProtBoundConf>  (111) 
nan

>  <Num_Resolved_Atoms>  (111) 
nan

>  <Num_Not_Resolved_Atoms>  (111) 
nan

$$$$
CHEMBL4876558
     RDKit          3D

  0  0  0  0  0  0  0  0  0  0999 V3000
M  V30 BEGIN CTAB
M  V30 COUNTS 45 48 0 0 0
M  V30 BEGIN ATOM
M  V30 1 C 4.471895 -3.329805 1.493821 0
M  V30 2 O 3.601098 -2.215178 1.577297 0
M  V30 3 C 2.974947 -1.849201 2.759906 0
M  V30 4 N 3.118296 -2.492433 3.931073 0
M  V30 5 N 2.377849 -1.879436 4.865055 0
M  V30 6 C 2.270511 -2.280940 6.263986 0
M  V30 7 C 1.771954 -0.841328 4.246505 0
M  V30 8 C 2.118560 -0.780580 2.913190 0
M  V30 9 C 1.658213 0.203261 1.939326 0
M  V30 10 O 0.864863 1.104439 2.311417 0
M  V30 11 N 2.067898 0.186211 0.590274 0
M  V30 12 C 1.459272 1.271033 -0.140130 0
M  V30 13 C 2.009402 2.532840 -0.278630 0
M  V30 14 C 1.276057 3.439389 -1.016207 0
M  V30 15 C 0.060060 3.063556 -1.569785 0
M  V30 16 C -0.470251 1.797962 -1.418735 0
M  V30 17 C -1.752135 1.439174 -2.015729 0
M  V30 18 N -2.305436 2.108145 -3.031320 0
M  V30 19 N -3.457125 1.499541 -3.304293 0
M  V30 20 C -3.614426 0.448282 -2.450913 0
M  V30 21 N -2.544903 0.415985 -1.647742 0
M  V30 22 C -2.339728 -0.556260 -0.604926 0
M  V30 23 C -2.002186 -1.947229 -1.082413 0
M  V30 24 C -3.404097 -2.382366 -0.751440 0
M  V30 25 C -3.581346 -1.096820 0.040193 0
M  V30 26 F -4.761786 -0.450484 -0.254198 0
M  V30 27 F -3.420446 -1.350895 1.407618 0
M  V30 28 N 0.284275 0.930954 -0.683280 0
M  V30 29 H 4.874898 -3.544046 2.517734 0
M  V30 30 H 3.893045 -4.247933 1.192254 0
M  V30 31 H 5.287043 -3.169289 0.754636 0
M  V30 32 H 1.907412 -1.378843 6.822564 0
M  V30 33 H 1.508873 -3.069661 6.409117 0
M  V30 34 H 3.248847 -2.553771 6.700814 0
M  V30 35 H 1.108068 -0.177469 4.789614 0
M  V30 36 H 2.722390 -0.534912 0.225807 0
M  V30 37 H 2.953493 2.697105 0.196640 0
M  V30 38 H 1.697901 4.431669 -1.131273 0
M  V30 39 H -0.451031 3.832676 -2.132717 0
M  V30 40 H -4.497447 -0.173197 -2.517753 0
M  V30 41 H -1.588269 -0.261737 0.179704 0
M  V30 42 H -1.272547 -2.502959 -0.443834 0
M  V30 43 H -1.768488 -2.027491 -2.153449 0
M  V30 44 H -4.056546 -2.380150 -1.652006 0
M  V30 45 H -3.470095 -3.300815 -0.127629 0
M  V30 END ATOM
M  V30 BEGIN BOND
M  V30 1 1 1 2
M  V30 2 1 2 3
M  V30 3 2 3 4
M  V30 4 1 4 5
M  V30 5 1 5 6
M  V30 6 1 5 7
M  V30 7 2 7 8
M  V30 8 1 8 9
M  V30 9 2 9 10
M  V30 10 1 9 11
M  V30 11 1 11 12
M  V30 12 2 12 13
M  V30 13 1 13 14
M  V30 14 2 14 15
M  V30 15 1 15 16
M  V30 16 1 16 17
M  V30 17 2 17 18
M  V30 18 1 18 19
M  V30 19 2 19 20
M  V30 20 1 20 21
M  V30 21 1 21 22
M  V30 22 1 22 23
M  V30 23 1 23 24
M  V30 24 1 24 25
M  V30 25 1 25 26
M  V30 26 1 25 27
M  V30 27 2 16 28
M  V30 28 1 8 3
M  V30 29 1 28 12
M  V30 30 1 21 17
M  V30 31 1 25 22
M  V30 32 1 1 29
M  V30 33 1 1 30
M  V30 34 1 1 31
M  V30 35 1 6 32
M  V30 36 1 6 33
M  V30 37 1 6 34
M  V30 38 1 7 35
M  V30 39 1 11 36
M  V30 40 1 13 37
M  V30 41 1 14 38
M  V30 42 1 15 39
M  V30 43 1 20 40
M  V30 44 1 22 41
M  V30 45 1 23 42
M  V30 46 1 23 43
M  V30 47 1 24 44
M  V30 48 1 24 45
M  V30 END BOND
M  V30 END CTAB
M  END
>  <Dataset>  (112) 
ChEMBL_Kinases

>  <Ligand_Instance>  (112) 
nan

>  <PDB_ID>  (112) 
nan

>  <Standardized_SMILES>  (112) 
COc1nn(C)cc1C(=O)Nc1cccc(-c2nncn2C2CCC2(F)F)n1

>  <Name>  (112) 
nan

>  <Pocket>  (112) 
nan

>  <ATP_Site>  (112) 
nan

>  <Peripheral>  (112) 
nan

>  <Num_H_Atoms_ProtBoundConf>  (112) 
nan

>  <Num_Resolved_Atoms>  (112) 
nan

>  <Num_Not_Resolved_Atoms>  (112) 
nan

$$$$
CHEMBL3920194
     RDKit          3D

  0  0  0  0  0  0  0  0  0  0999 V3000
M  V30 BEGIN CTAB
M  V30 COUNTS 32 35 0 0 0
M  V30 BEGIN ATOM
M  V30 1 C -3.692454 -3.692125 3.100791 0
M  V30 2 C -2.400150 -3.347180 2.418881 0
M  V30 3 C -1.367967 -4.249466 2.440499 0
M  V30 4 C -0.187183 -3.877967 1.790372 0
M  V30 5 C -0.062190 -2.657903 1.153882 0
M  V30 6 N 0.972980 -2.119449 0.481631 0
M  V30 7 C 0.556716 -0.908424 0.065625 0
M  V30 8 N 1.361721 -0.007975 -0.688738 0
M  V30 9 C 2.149325 -0.166738 -1.765241 0
M  V30 10 O 2.248622 -1.324015 -2.271151 0
M  V30 11 N 2.709809 1.018682 -2.108666 0
M  V30 12 C 2.260135 1.930239 -1.226834 0
M  V30 13 C 2.560860 3.296868 -1.173273 0
M  V30 14 C 1.947426 4.004502 -0.144727 0
M  V30 15 C 1.094820 3.430076 0.777699 0
M  V30 16 C 0.861873 2.078444 0.640827 0
M  V30 17 C 1.420065 1.291139 -0.341778 0
M  V30 18 N -0.708997 -0.702226 0.471927 0
M  V30 19 C -1.141657 -1.793164 1.169198 0
M  V30 20 C -2.333322 -2.108370 1.796606 0
M  V30 21 H -3.706396 -3.029228 4.008404 0
M  V30 22 H -3.711762 -4.763392 3.369846 0
M  V30 23 H -4.549823 -3.367790 2.474117 0
M  V30 24 H -1.499537 -5.200005 2.950027 0
M  V30 25 H 0.601129 -4.626597 1.835496 0
M  V30 26 H 1.896264 -2.591514 0.339893 0
M  V30 27 H 3.367793 1.095486 -2.939822 0
M  V30 28 H 3.226459 3.762143 -1.887886 0
M  V30 29 H 2.139921 5.072828 -0.047464 0
M  V30 30 H 0.628939 3.998430 1.568918 0
M  V30 31 H 0.196187 1.628763 1.360639 0
M  V30 32 H -3.141721 -1.418372 1.787676 0
M  V30 END ATOM
M  V30 BEGIN BOND
M  V30 1 1 1 2
M  V30 2 2 2 3
M  V30 3 1 3 4
M  V30 4 2 4 5
M  V30 5 1 5 6
M  V30 6 1 6 7
M  V30 7 1 7 8
M  V30 8 1 8 9
M  V30 9 2 9 10
M  V30 10 1 9 11
M  V30 11 1 11 12
M  V30 12 2 12 13
M  V30 13 1 13 14
M  V30 14 2 14 15
M  V30 15 1 15 16
M  V30 16 2 16 17
M  V30 17 2 7 18
M  V30 18 1 18 19
M  V30 19 2 19 20
M  V30 20 1 20 2
M  V30 21 1 19 5
M  V30 22 1 17 8
M  V30 23 1 17 12
M  V30 24 1 1 21
M  V30 25 1 1 22
M  V30 26 1 1 23
M  V30 27 1 3 24
M  V30 28 1 4 25
M  V30 29 1 6 26
M  V30 30 1 11 27
M  V30 31 1 13 28
M  V30 32 1 14 29
M  V30 33 1 15 30
M  V30 34 1 16 31
M  V30 35 1 20 32
M  V30 END BOND
M  V30 END CTAB
M  END
>  <Dataset>  (113) 
ChEMBL_Kinases

>  <Ligand_Instance>  (113) 
nan

>  <PDB_ID>  (113) 
nan

>  <Standardized_SMILES>  (113) 
Cc1ccc2[nH]c(-n3c(=O)[nH]c4ccccc43)nc2c1

>  <Name>  (113) 
nan

>  <Pocket>  (113) 
nan

>  <ATP_Site>  (113) 
nan

>  <Peripheral>  (113) 
nan

>  <Num_H_Atoms_ProtBoundConf>  (113) 
nan

>  <Num_Resolved_Atoms>  (113) 
nan

>  <Num_Not_Resolved_Atoms>  (113) 
nan

$$$$
CHEMBL3920003
     RDKit          3D

  0  0  0  0  0  0  0  0  0  0999 V3000
M  V30 BEGIN CTAB
M  V30 COUNTS 50 53 0 0 0
M  V30 BEGIN ATOM
M  V30 1 C 0.273274 -5.845625 -4.453189 0
M  V30 2 C 1.363791 -5.544268 -3.511830 0
M  V30 3 O 1.761613 -6.398082 -2.700479 0
M  V30 4 N 2.121037 -4.348946 -3.336909 0
M  V30 5 C 3.107741 -4.470807 -2.293752 0
M  V30 6 C 3.614631 -3.126110 -1.896195 0
M  V30 7 C 2.628566 -2.022354 -2.033245 0
M  V30 8 O 1.466365 -2.103873 -1.297533 0
M  V30 9 C 0.973550 -1.239007 -0.359604 0
M  V30 10 C 1.517505 -0.053746 0.094543 0
M  V30 11 C 0.885096 0.710125 1.057342 0
M  V30 12 C -0.323788 0.311062 1.603675 0
M  V30 13 C -1.041757 1.073123 2.623614 0
M  V30 14 N -0.622309 2.246905 3.154232 0
M  V30 15 C -1.508263 2.681984 4.060920 0
M  V30 16 C -1.622755 3.772607 4.897725 0
M  V30 17 C -2.722828 3.878492 5.721426 0
M  V30 18 C -2.926778 4.995270 6.637173 0
M  V30 19 N -2.144650 6.150760 6.906825 0
M  V30 20 O -3.897784 5.173193 7.423626 0
M  V30 21 C -3.739216 2.948060 5.767078 0
M  V30 22 C -3.625920 1.842754 4.920896 0
M  V30 23 C -2.518561 1.742578 4.096204 0
M  V30 24 N -2.203736 0.777167 3.209941 0
M  V30 25 C -0.875296 -0.878226 1.151868 0
M  V30 26 C -0.246334 -1.657235 0.180895 0
M  V30 27 C 2.254309 -1.886176 -3.490202 0
M  V30 28 C 1.874442 -3.166311 -4.156556 0
M  V30 29 H 0.507586 -6.840089 -4.898302 0
M  V30 30 H 0.183670 -5.073169 -5.240801 0
M  V30 31 H -0.705784 -5.980950 -3.912999 0
M  V30 32 H 2.739933 -5.072540 -1.431817 0
M  V30 33 H 3.959448 -5.056397 -2.700021 0
M  V30 34 H 4.470656 -2.868385 -2.566456 0
M  V30 35 H 4.058345 -3.217839 -0.884861 0
M  V30 36 H 3.168238 -1.083165 -1.746581 0
M  V30 37 H 2.443213 0.214251 -0.349931 0
M  V30 38 H 1.318462 1.629157 1.401595 0
M  V30 39 H -0.869562 4.522365 4.905645 0
M  V30 40 H -1.258561 6.290723 7.464900 0
M  V30 41 H -2.333730 7.139082 6.567638 0
M  V30 42 H -4.608713 3.014647 6.406286 0
M  V30 43 H -4.383768 1.075641 4.903803 0
M  V30 44 H -2.764305 -0.062800 3.007758 0
M  V30 45 H -1.823033 -1.190968 1.580280 0
M  V30 46 H -0.764538 -2.569549 -0.100829 0
M  V30 47 H 1.463211 -1.127267 -3.656440 0
M  V30 48 H 3.147088 -1.494269 -4.059682 0
M  V30 49 H 2.350998 -3.296164 -5.155358 0
M  V30 50 H 0.780723 -3.157067 -4.343051 0
M  V30 END ATOM
M  V30 BEGIN BOND
M  V30 1 1 1 2
M  V30 2 2 2 3
M  V30 3 1 2 4
M  V30 4 1 4 5
M  V30 5 1 5 6
M  V30 6 1 6 7
M  V30 7 1 7 8
M  V30 8 1 8 9
M  V30 9 2 9 10
M  V30 10 1 10 11
M  V30 11 2 11 12
M  V30 12 1 12 13
M  V30 13 2 13 14
M  V30 14 1 14 15
M  V30 15 2 15 16
M  V30 16 1 16 17
M  V30 17 1 17 18
M  V30 18 1 18 19
M  V30 19 2 18 20
M  V30 20 2 17 21
M  V30 21 1 21 22
M  V30 22 2 22 23
M  V30 23 1 23 24
M  V30 24 1 12 25
M  V30 25 2 25 26
M  V30 26 1 7 27
M  V30 27 1 27 28
M  V30 28 1 28 4
M  V30 29 1 26 9
M  V30 30 1 24 13
M  V30 31 1 23 15
M  V30 32 1 1 29
M  V30 33 1 1 30
M  V30 34 1 1 31
M  V30 35 1 5 32
M  V30 36 1 5 33
M  V30 37 1 6 34
M  V30 38 1 6 35
M  V30 39 1 7 36
M  V30 40 1 10 37
M  V30 41 1 11 38
M  V30 42 1 16 39
M  V30 43 1 19 40
M  V30 44 1 19 41
M  V30 45 1 21 42
M  V30 46 1 22 43
M  V30 47 1 24 44
M  V30 48 1 25 45
M  V30 49 1 26 46
M  V30 50 1 27 47
M  V30 51 1 27 48
M  V30 52 1 28 49
M  V30 53 1 28 50
M  V30 END BOND
M  V30 END CTAB
M  END
>  <Dataset>  (114) 
ChEMBL_Kinases

>  <Ligand_Instance>  (114) 
nan

>  <PDB_ID>  (114) 
nan

>  <Standardized_SMILES>  (114) 
CC(=O)N1CCC(Oc2ccc(-c3nc4cc(C(N)=O)ccc4[nH]3)cc2)CC1

>  <Name>  (114) 
nan

>  <Pocket>  (114) 
nan

>  <ATP_Site>  (114) 
nan

>  <Peripheral>  (114) 
nan

>  <Num_H_Atoms_ProtBoundConf>  (114) 
nan

>  <Num_Resolved_Atoms>  (114) 
nan

>  <Num_Not_Resolved_Atoms>  (114) 
nan

$$$$
CHEMBL3919901
     RDKit          3D

  0  0  0  0  0  0  0  0  0  0999 V3000
M  V30 BEGIN CTAB
M  V30 COUNTS 51 55 0 0 0
M  V30 BEGIN ATOM
M  V30 1 N -1.330074 -5.682516 1.436501 0
M  V30 2 C -0.587273 -4.527266 1.112612 0
M  V30 3 N 0.747147 -4.665929 1.193956 0
M  V30 4 C 1.585325 -3.646539 0.915093 0
M  V30 5 C 0.966790 -2.468498 0.545342 0
M  V30 6 C 1.721267 -1.259623 0.209029 0
M  V30 7 C 2.930613 -1.028258 0.848174 0
M  V30 8 C 3.710285 0.101130 0.585855 0
M  V30 9 C 3.257474 1.034386 -0.355154 0
M  V30 10 C 4.017850 2.275830 -0.706394 0
M  V30 11 N 3.639928 3.385829 0.148768 0
M  V30 12 C 2.238532 3.714004 0.052377 0
M  V30 13 C 1.945241 4.788184 1.075958 0
M  V30 14 O 3.092692 5.389514 1.579328 0
M  V30 15 C 3.884133 4.475293 2.268496 0
M  V30 16 C 3.970394 3.149165 1.529083 0
M  V30 17 C 2.035483 0.763525 -0.975486 0
M  V30 18 C 1.257806 -0.350920 -0.722158 0
M  V30 19 C -0.422124 -2.310177 0.456519 0
M  V30 20 C -1.229814 -3.373298 0.749192 0
M  V30 21 C -2.681135 -3.253186 0.669484 0
M  V30 22 N -3.360057 -2.137203 0.315754 0
M  V30 23 N -4.647950 -2.447868 0.369714 0
M  V30 24 C -4.782009 -3.736632 0.750511 0
M  V30 25 C -6.081677 -4.476279 0.932179 0
M  V30 26 C -7.317090 -3.607168 1.167686 0
M  V30 27 C -7.128591 -4.250447 -0.171716 0
M  V30 28 O -3.573839 -4.181518 0.919788 0
M  V30 29 H -0.931624 -6.594699 1.748925 0
M  V30 30 H -2.292268 -6.048773 1.495826 0
M  V30 31 H 2.641110 -3.714753 0.966817 0
M  V30 32 H 3.356591 -1.687983 1.583338 0
M  V30 33 H 4.652208 0.293510 1.074566 0
M  V30 34 H 3.708393 2.548383 -1.737343 0
M  V30 35 H 5.108885 2.141179 -0.602694 0
M  V30 36 H 1.684124 2.800762 0.366504 0
M  V30 37 H 1.948669 4.034591 -0.973922 0
M  V30 38 H 1.334103 5.625421 0.628539 0
M  V30 39 H 1.294413 4.398993 1.902947 0
M  V30 40 H 3.467324 4.376201 3.288518 0
M  V30 41 H 4.892794 4.884975 2.335421 0
M  V30 42 H 3.329058 2.444890 2.055551 0
M  V30 43 H 5.037536 2.784100 1.525585 0
M  V30 44 H 1.629835 1.453003 -1.717750 0
M  V30 45 H 0.322699 -0.507372 -1.231739 0
M  V30 46 H -0.881953 -1.374885 0.163717 0
M  V30 47 H -6.065778 -5.517824 1.266781 0
M  V30 48 H -7.115680 -2.512293 1.261648 0
M  V30 49 H -8.086109 -3.959894 1.858992 0
M  V30 50 H -6.811540 -3.617064 -1.021854 0
M  V30 51 H -7.834412 -5.050710 -0.414205 0
M  V30 END ATOM
M  V30 BEGIN BOND
M  V30 1 1 1 2
M  V30 2 2 2 3
M  V30 3 1 3 4
M  V30 4 2 4 5
M  V30 5 1 5 6
M  V30 6 2 6 7
M  V30 7 1 7 8
M  V30 8 2 8 9
M  V30 9 1 9 10
M  V30 10 1 10 11
M  V30 11 1 11 12
M  V30 12 1 12 13
M  V30 13 1 13 14
M  V30 14 1 14 15
M  V30 15 1 15 16
M  V30 16 1 9 17
M  V30 17 2 17 18
M  V30 18 1 5 19
M  V30 19 2 19 20
M  V30 20 1 20 21
M  V30 21 2 21 22
M  V30 22 1 22 23
M  V30 23 2 23 24
M  V30 24 1 24 25
M  V30 25 1 25 26
M  V30 26 1 26 27
M  V30 27 1 24 28
M  V30 28 1 20 2
M  V30 29 1 28 21
M  V30 30 1 18 6
M  V30 31 1 27 25
M  V30 32 1 16 11
M  V30 33 1 1 29
M  V30 34 1 1 30
M  V30 35 1 4 31
M  V30 36 1 7 32
M  V30 37 1 8 33
M  V30 38 1 10 34
M  V30 39 1 10 35
M  V30 40 1 12 36
M  V30 41 1 12 37
M  V30 42 1 13 38
M  V30 43 1 13 39
M  V30 44 1 15 40
M  V30 45 1 15 41
M  V30 46 1 16 42
M  V30 47 1 16 43
M  V30 48 1 17 44
M  V30 49 1 18 45
M  V30 50 1 19 46
M  V30 51 1 25 47
M  V30 52 1 26 48
M  V30 53 1 26 49
M  V30 54 1 27 50
M  V30 55 1 27 51
M  V30 END BOND
M  V30 END CTAB
M  END
>  <Dataset>  (115) 
ChEMBL_Kinases

>  <Ligand_Instance>  (115) 
nan

>  <PDB_ID>  (115) 
nan

>  <Standardized_SMILES>  (115) 
Nc1ncc(-c2ccc(CN3CCOCC3)cc2)cc1-c1nnc(C2CC2)o1

>  <Name>  (115) 
nan

>  <Pocket>  (115) 
nan

>  <ATP_Site>  (115) 
nan

>  <Peripheral>  (115) 
nan

>  <Num_H_Atoms_ProtBoundConf>  (115) 
nan

>  <Num_Resolved_Atoms>  (115) 
nan

>  <Num_Not_Resolved_Atoms>  (115) 
nan

$$$$
CHEMBL3919874
     RDKit          3D

  0  0  0  0  0  0  0  0  0  0999 V3000
M  V30 BEGIN CTAB
M  V30 COUNTS 58 62 0 0 0
M  V30 BEGIN ATOM
M  V30 1 C 1.407887 -1.966462 2.183153 0
M  V30 2 C 1.242385 -0.987171 3.290269 0
M  V30 3 C 1.429066 0.452968 2.952035 0 CFG=1
M  V30 4 C 2.800207 0.761007 2.407238 0
M  V30 5 C 3.912856 -0.029958 2.219589 0
M  V30 6 C 5.045309 0.544913 1.688186 0
M  V30 7 C 5.113902 1.866574 1.338649 0
M  V30 8 C 4.003161 2.666624 1.523378 0
M  V30 9 C 2.841237 2.102477 2.062214 0
M  V30 10 N 0.374819 1.047304 2.167352 0
M  V30 11 C -0.369158 2.123400 2.793320 0
M  V30 12 O -0.344850 2.689717 3.943452 0
M  V30 13 C -1.376066 2.659864 1.850266 0
M  V30 14 C -2.336159 3.645311 1.832484 0
M  V30 15 C -3.115896 3.883786 0.722715 0
M  V30 16 C -2.939359 3.122230 -0.405331 0
M  V30 17 C -1.981836 2.116943 -0.430390 0
M  V30 18 C -1.218112 1.917476 0.723971 0
M  V30 19 C -0.155525 0.861433 0.866537 0
M  V30 20 O 0.734039 1.072584 -0.161357 0
M  V30 21 C -0.882964 -0.413566 0.633692 0
M  V30 22 C -1.858592 -0.881801 1.491904 0
M  V30 23 C -2.553030 -2.078050 1.285139 0
M  V30 24 C -2.237399 -2.823811 0.157404 0
M  V30 25 N -2.741788 -4.009458 -0.294077 0
M  V30 26 C -2.091926 -4.299191 -1.436559 0
M  V30 27 N -2.270857 -5.435408 -2.276125 0
M  V30 28 C -1.505389 -5.598926 -3.453450 0
M  V30 29 O -0.650717 -4.721933 -3.762915 0
M  V30 30 O -1.600795 -6.663054 -4.335240 0
M  V30 31 C -0.795919 -6.760183 -5.502301 0
M  V30 32 N -1.215104 -3.304468 -1.663502 0
M  V30 33 C -1.265509 -2.372632 -0.712081 0
M  V30 34 C -0.587395 -1.190804 -0.497194 0
M  V30 35 H 2.120634 -2.806441 2.458539 0
M  V30 36 H 1.721278 -1.524243 1.217079 0
M  V30 37 H 0.455780 -2.551183 2.002560 0
M  V30 38 H 1.954972 -1.288530 4.113843 0
M  V30 39 H 0.238859 -1.069453 3.793731 0
M  V30 40 H 1.485231 0.966659 3.968883 0
M  V30 41 H 3.716618 -1.042314 2.538435 0
M  V30 42 H 5.873181 -0.173202 1.580437 0
M  V30 43 H 6.074931 2.183574 0.929749 0
M  V30 44 H 4.121697 3.699559 1.227502 0
M  V30 45 H 2.065462 2.864759 2.141046 0
M  V30 46 H -2.458060 4.231774 2.729796 0
M  V30 47 H -3.858542 4.679234 0.774071 0
M  V30 48 H -3.555735 3.319444 -1.266141 0
M  V30 49 H -1.905202 1.562977 -1.355716 0
M  V30 50 H 0.299951 1.417221 -0.984194 0
M  V30 51 H -2.065013 -0.260650 2.355723 0
M  V30 52 H -3.310744 -2.406501 1.985352 0
M  V30 53 H -3.489988 -4.594941 0.148950 0
M  V30 54 H -2.970452 -6.172677 -2.041226 0
M  V30 55 H 0.131971 -6.183620 -5.304662 0
M  V30 56 H -1.322403 -6.198144 -6.313737 0
M  V30 57 H -0.560602 -7.799000 -5.792311 0
M  V30 58 H 0.170258 -0.889887 -1.222870 0
M  V30 END ATOM
M  V30 BEGIN BOND
M  V30 1 1 1 2
M  V30 2 1 2 3
M  V30 3 1 3 4
M  V30 4 2 4 5
M  V30 5 1 5 6
M  V30 6 2 6 7
M  V30 7 1 7 8
M  V30 8 2 8 9
M  V30 9 1 3 10
M  V30 10 1 10 11
M  V30 11 2 11 12
M  V30 12 1 11 13
M  V30 13 2 13 14
M  V30 14 1 14 15
M  V30 15 2 15 16
M  V30 16 1 16 17
M  V30 17 2 17 18
M  V30 18 1 18 19
M  V30 19 1 19 20
M  V30 20 1 19 21
M  V30 21 2 21 22
M  V30 22 1 22 23
M  V30 23 2 23 24
M  V30 24 1 24 25
M  V30 25 1 25 26
M  V30 26 1 26 27
M  V30 27 1 27 28
M  V30 28 2 28 29
M  V30 29 1 28 30
M  V30 30 1 30 31
M  V30 31 2 26 32
M  V30 32 1 32 33
M  V30 33 2 33 34
M  V30 34 1 9 4
M  V30 35 1 19 10
M  V30 36 1 34 21
M  V30 37 1 18 13
M  V30 38 1 33 24
M  V30 39 1 1 35
M  V30 40 1 1 36
M  V30 41 1 1 37
M  V30 42 1 2 38
M  V30 43 1 2 39
M  V30 44 1 3 40 CFG=1
M  V30 45 1 5 41
M  V30 46 1 6 42
M  V30 47 1 7 43
M  V30 48 1 8 44
M  V30 49 1 9 45
M  V30 50 1 14 46
M  V30 51 1 15 47
M  V30 52 1 16 48
M  V30 53 1 17 49
M  V30 54 1 20 50
M  V30 55 1 22 51
M  V30 56 1 23 52
M  V30 57 1 25 53
M  V30 58 1 27 54
M  V30 59 1 31 55
M  V30 60 1 31 56
M  V30 61 1 31 57
M  V30 62 1 34 58
M  V30 END BOND
M  V30 END CTAB
M  END
>  <Dataset>  (116) 
ChEMBL_Kinases

>  <Ligand_Instance>  (116) 
nan

>  <PDB_ID>  (116) 
nan

>  <Standardized_SMILES>  (116) 
CC[C@@H](c1ccccc1)N1C(=O)c2ccccc2C1(O)c1ccc2[nH]c(NC(=O)OC)nc2c1

>  <Name>  (116) 
nan

>  <Pocket>  (116) 
nan

>  <ATP_Site>  (116) 
nan

>  <Peripheral>  (116) 
nan

>  <Num_H_Atoms_ProtBoundConf>  (116) 
nan

>  <Num_Resolved_Atoms>  (116) 
nan

>  <Num_Not_Resolved_Atoms>  (116) 
nan

$$$$
CHEMBL391937
     RDKit          3D

  0  0  0  0  0  0  0  0  0  0999 V3000
M  V30 BEGIN CTAB
M  V30 COUNTS 64 67 0 0 0
M  V30 BEGIN ATOM
M  V30 1 C 4.568227 -1.532711 -1.370909 0
M  V30 2 C 4.918739 -1.097426 0.000685 0
M  V30 3 C 3.971986 -1.830351 0.980983 0
M  V30 4 N 4.793057 0.261263 0.245157 0
M  V30 5 C 5.182589 0.717529 1.552979 0
M  V30 6 C 4.109746 1.171066 -0.548023 0
M  V30 7 C 2.664425 0.899334 -0.649767 0
M  V30 8 C 1.972941 1.390596 0.468999 0
M  V30 9 C 0.580381 1.256519 0.562382 0
M  V30 10 N -0.124976 0.657471 -0.412968 0
M  V30 11 C -1.420037 0.369345 -0.639312 0
M  V30 12 C -2.528064 0.679794 0.263559 0
M  V30 13 C -3.597931 1.548097 0.152726 0
M  V30 14 C -4.502520 1.601325 1.207984 0
M  V30 15 N -4.296623 0.812888 2.275584 0
M  V30 16 C -3.286929 -0.025865 2.411747 0
M  V30 17 N -3.131275 -0.840673 3.583613 0
M  V30 18 C -2.027843 -1.737267 3.692780 0
M  V30 19 C -2.060168 -2.752892 2.566246 0
M  V30 20 C -0.669986 -1.077421 3.628691 0
M  V30 21 C -2.085952 -2.462080 5.031317 0
M  V30 22 N -2.435690 -0.064302 1.399603 0
M  V30 23 C -1.592106 -0.279139 -1.845537 0
M  V30 24 C -2.754465 -0.785573 -2.527540 0
M  V30 25 C -2.732397 -2.176027 -2.682641 0
M  V30 26 C -3.743539 -2.880308 -3.308027 0
M  V30 27 C -4.842205 -2.188393 -3.813413 0
M  V30 28 F -5.890244 -2.783084 -4.445552 0
M  V30 29 C -4.866397 -0.821875 -3.662689 0
M  V30 30 C -3.857911 -0.121550 -3.038789 0
M  V30 31 N -0.353456 -0.381886 -2.356085 0
M  V30 32 C 0.516911 0.179822 -1.494569 0
M  V30 33 C 1.883895 0.298145 -1.611679 0
M  V30 34 H 5.282720 -2.343648 -1.699193 0
M  V30 35 H 3.571094 -2.025459 -1.435673 0
M  V30 36 H 4.709015 -0.746172 -2.149458 0
M  V30 37 H 5.964358 -1.504047 0.204903 0
M  V30 38 H 3.648660 -2.808968 0.579759 0
M  V30 39 H 4.552979 -2.019103 1.912349 0
M  V30 40 H 3.061074 -1.235671 1.178217 0
M  V30 41 H 5.907217 0.032401 2.037474 0
M  V30 42 H 5.546649 1.759461 1.440081 0
M  V30 43 H 4.276585 0.758141 2.181621 0
M  V30 44 H 4.593724 1.168441 -1.577606 0
M  V30 45 H 4.286033 2.250382 -0.231123 0
M  V30 46 H 2.352290 1.889046 1.330302 0
M  V30 47 H -0.027342 1.604952 1.385274 0
M  V30 48 H -3.560232 2.075901 -0.786461 0
M  V30 49 H -5.301216 2.304416 1.033188 0
M  V30 50 H -3.844248 -0.750222 4.332294 0
M  V30 51 H -2.461508 -3.699137 2.987413 0
M  V30 52 H -1.051209 -2.941108 2.132979 0
M  V30 53 H -2.743651 -2.378732 1.790944 0
M  V30 54 H 0.080197 -1.845389 3.923264 0
M  V30 55 H -0.551944 -0.234040 4.322420 0
M  V30 56 H -0.437619 -0.798581 2.572021 0
M  V30 57 H -2.881117 -3.245761 5.034910 0
M  V30 58 H -1.125514 -2.980504 5.274510 0
M  V30 59 H -2.280640 -1.772363 5.865600 0
M  V30 60 H -1.930464 -2.815843 -2.328405 0
M  V30 61 H -3.730772 -3.955699 -3.429845 0
M  V30 62 H -5.690362 -0.226863 -4.032797 0
M  V30 63 H -3.801490 0.944800 -2.882995 0
M  V30 64 H 2.435017 -0.050380 -2.449792 0
M  V30 END ATOM
M  V30 BEGIN BOND
M  V30 1 1 1 2
M  V30 2 1 2 3
M  V30 3 1 2 4
M  V30 4 1 4 5
M  V30 5 1 4 6
M  V30 6 1 6 7
M  V30 7 1 7 8
M  V30 8 2 8 9
M  V30 9 1 9 10
M  V30 10 1 10 11
M  V30 11 1 11 12
M  V30 12 2 12 13
M  V30 13 1 13 14
M  V30 14 2 14 15
M  V30 15 1 15 16
M  V30 16 1 16 17
M  V30 17 1 17 18
M  V30 18 1 18 19
M  V30 19 1 18 20
M  V30 20 1 18 21
M  V30 21 2 16 22
M  V30 22 2 11 23
M  V30 23 1 23 24
M  V30 24 2 24 25
M  V30 25 1 25 26
M  V30 26 2 26 27
M  V30 27 1 27 28
M  V30 28 1 27 29
M  V30 29 2 29 30
M  V30 30 1 23 31
M  V30 31 2 31 32
M  V30 32 1 32 33
M  V30 33 2 33 7
M  V30 34 1 32 10
M  V30 35 1 22 12
M  V30 36 1 30 24
M  V30 37 1 1 34
M  V30 38 1 1 35
M  V30 39 1 1 36
M  V30 40 1 2 37
M  V30 41 1 3 38
M  V30 42 1 3 39
M  V30 43 1 3 40
M  V30 44 1 5 41
M  V30 45 1 5 42
M  V30 46 1 5 43
M  V30 47 1 6 44
M  V30 48 1 6 45
M  V30 49 1 8 46
M  V30 50 1 9 47
M  V30 51 1 13 48
M  V30 52 1 14 49
M  V30 53 1 17 50
M  V30 54 1 19 51
M  V30 55 1 19 52
M  V30 56 1 19 53
M  V30 57 1 20 54
M  V30 58 1 20 55
M  V30 59 1 20 56
M  V30 60 1 21 57
M  V30 61 1 21 58
M  V30 62 1 21 59
M  V30 63 1 25 60
M  V30 64 1 26 61
M  V30 65 1 29 62
M  V30 66 1 30 63
M  V30 67 1 33 64
M  V30 END BOND
M  V30 END CTAB
M  END
>  <Dataset>  (117) 
ChEMBL_Kinases

>  <Ligand_Instance>  (117) 
nan

>  <PDB_ID>  (117) 
nan

>  <Standardized_SMILES>  (117) 
CC(C)N(C)Cc1ccn2c(-c3ccnc(NC(C)(C)C)n3)c(-c3ccc(F)cc3)nc2c1

>  <Name>  (117) 
nan

>  <Pocket>  (117) 
nan

>  <ATP_Site>  (117) 
nan

>  <Peripheral>  (117) 
nan

>  <Num_H_Atoms_ProtBoundConf>  (117) 
nan

>  <Num_Resolved_Atoms>  (117) 
nan

>  <Num_Not_Resolved_Atoms>  (117) 
nan

$$$$
CHEMBL391983
     RDKit          3D

  0  0  0  0  0  0  0  0  0  0999 V3000
M  V30 BEGIN CTAB
M  V30 COUNTS 45 48 0 0 0
M  V30 BEGIN ATOM
M  V30 1 C 2.611362 -3.992187 2.548140 0
M  V30 2 C 1.940657 -4.163898 1.203644 0
M  V30 3 C 2.224882 -5.513500 0.596347 0
M  V30 4 N 3.592968 -5.528402 0.099428 0
M  V30 5 C 3.976505 -4.532201 -0.840127 0
M  V30 6 O 4.872489 -4.786223 -1.691698 0
M  V30 7 C 3.290031 -3.243711 -0.756946 0
M  V30 8 N 3.408612 -2.123891 -1.469951 0
M  V30 9 C 2.525852 -1.243080 -0.959090 0
M  V30 10 C 2.287505 0.053040 -1.371936 0
M  V30 11 C 1.325334 0.770354 -0.688782 0
M  V30 12 C 0.616358 0.231100 0.370328 0
M  V30 13 C -0.406606 0.957405 1.115575 0
M  V30 14 O -1.037848 0.439039 2.078573 0
M  V30 15 N -0.774405 2.289833 0.825876 0
M  V30 16 C -1.771054 2.954314 1.574415 0
M  V30 17 C -1.395684 3.661825 2.687757 0
M  V30 18 C -2.385741 4.314336 3.420290 0
M  V30 19 C -3.704482 4.215798 2.986337 0
M  V30 20 C -4.091117 3.505777 1.866858 0
M  V30 21 C -3.095709 2.864361 1.151664 0
M  V30 22 C -3.428666 2.092987 -0.045362 0
M  V30 23 N -4.758727 1.996925 -0.478303 0
M  V30 24 O -2.476157 1.526733 -0.660405 0
M  V30 25 C 0.890409 -1.068867 0.745972 0
M  V30 26 C 1.839976 -1.835856 0.102513 0
M  V30 27 C 2.337061 -3.137558 0.234168 0
M  V30 28 H 2.668890 -4.996397 3.012998 0
M  V30 29 H 3.641697 -3.607735 2.465493 0
M  V30 30 H 2.057947 -3.304136 3.220709 0
M  V30 31 H 0.843439 -4.075385 1.411759 0
M  V30 32 H 2.061200 -6.333609 1.323208 0
M  V30 33 H 1.556423 -5.651760 -0.260969 0
M  V30 34 H 4.281560 -6.252347 0.422408 0
M  V30 35 H 4.060288 -1.963894 -2.268763 0
M  V30 36 H 2.829941 0.492105 -2.196042 0
M  V30 37 H 1.123521 1.771517 -0.988217 0
M  V30 38 H -0.304179 2.800417 0.043721 0
M  V30 39 H -0.393643 3.761676 3.053883 0
M  V30 40 H -2.209410 4.907434 4.323126 0
M  V30 41 H -4.515316 4.712756 3.531736 0
M  V30 42 H -5.121473 3.442427 1.547672 0
M  V30 43 H -5.280977 2.503351 -1.248807 0
M  V30 44 H -5.261472 1.273128 0.116755 0
M  V30 45 H 0.376590 -1.557005 1.564192 0
M  V30 END ATOM
M  V30 BEGIN BOND
M  V30 1 1 1 2
M  V30 2 1 2 3
M  V30 3 1 3 4
M  V30 4 1 4 5
M  V30 5 2 5 6
M  V30 6 1 5 7
M  V30 7 1 7 8
M  V30 8 1 8 9
M  V30 9 2 9 10
M  V30 10 1 10 11
M  V30 11 2 11 12
M  V30 12 1 12 13
M  V30 13 2 13 14
M  V30 14 1 13 15
M  V30 15 1 15 16
M  V30 16 2 16 17
M  V30 17 1 17 18
M  V30 18 2 18 19
M  V30 19 1 19 20
M  V30 20 2 20 21
M  V30 21 1 21 22
M  V30 22 1 22 23
M  V30 23 2 22 24
M  V30 24 1 12 25
M  V30 25 2 25 26
M  V30 26 1 26 27
M  V30 27 1 27 2
M  V30 28 2 27 7
M  V30 29 1 26 9
M  V30 30 1 21 16
M  V30 31 1 1 28
M  V30 32 1 1 29
M  V30 33 1 1 30
M  V30 34 1 2 31
M  V30 35 1 3 32
M  V30 36 1 3 33
M  V30 37 1 4 34
M  V30 38 1 8 35
M  V30 39 1 10 36
M  V30 40 1 11 37
M  V30 41 1 15 38
M  V30 42 1 17 39
M  V30 43 1 18 40
M  V30 44 1 19 41
M  V30 45 1 20 42
M  V30 46 1 23 43
M  V30 47 1 23 44
M  V30 48 1 25 45
M  V30 END BOND
M  V30 END CTAB
M  END
>  <Dataset>  (118) 
ChEMBL_Kinases

>  <Ligand_Instance>  (118) 
nan

>  <PDB_ID>  (118) 
nan

>  <Standardized_SMILES>  (118) 
CC1CNC(=O)c2[nH]c3ccc(C(=O)Nc4ccccc4C(N)=O)cc3c21

>  <Name>  (118) 
nan

>  <Pocket>  (118) 
nan

>  <ATP_Site>  (118) 
nan

>  <Peripheral>  (118) 
nan

>  <Num_H_Atoms_ProtBoundConf>  (118) 
nan

>  <Num_Resolved_Atoms>  (118) 
nan

>  <Num_Not_Resolved_Atoms>  (118) 
nan

$$$$
CHEMBL3919791
     RDKit          3D

  0  0  0  0  0  0  0  0  0  0999 V3000
M  V30 BEGIN CTAB
M  V30 COUNTS 53 56 0 0 0
M  V30 BEGIN ATOM
M  V30 1 C -0.560383 -8.492510 2.421137 0
M  V30 2 O 0.769977 -8.416328 2.861988 0
M  V30 3 C 1.602627 -7.314122 2.716044 0
M  V30 4 C 1.407250 -6.079099 2.150155 0
M  V30 5 C 2.473391 -5.183885 2.172020 0
M  V30 6 C 2.193946 -3.895334 1.553830 0
M  V30 7 C 0.899734 -3.379254 1.604610 0
M  V30 8 C 0.568060 -2.139772 1.035178 0
M  V30 9 C 1.638424 -1.508969 0.436808 0
M  V30 10 C 1.631401 -0.288064 -0.202499 0
M  V30 11 C 0.577842 0.673994 -0.441030 0
M  V30 12 C 0.491212 1.852078 -1.037875 0
M  V30 13 C -0.693693 2.684372 -1.179366 0
M  V30 14 C -1.935236 2.313316 -0.724310 0
M  V30 15 C -2.986983 3.203758 -0.923806 0
M  V30 16 C -2.773633 4.414465 -1.558600 0
M  V30 17 N -3.853025 5.322450 -1.779391 0
M  V30 18 C -4.167897 6.269932 -0.774316 0
M  V30 19 O -3.453763 6.254873 0.288890 0
M  V30 20 C -5.221204 7.315154 -0.735810 0
M  V30 21 N -5.136404 8.024008 0.521355 0
M  V30 22 C -1.515442 4.768175 -2.007870 0
M  V30 23 C -0.445194 3.900365 -1.823835 0
M  V30 24 N 2.867936 -0.026634 -0.647609 0
M  V30 25 N 3.717874 -1.026646 -0.334168 0
M  V30 26 C 2.940053 -1.915723 0.325824 0
M  V30 27 C 3.166964 -3.156326 0.922070 0
M  V30 28 C 3.700467 -5.465956 2.724331 0
M  V30 29 C 3.890263 -6.705100 3.289186 0
M  V30 30 C 2.831526 -7.619936 3.277693 0
M  V30 31 O 3.225145 -8.823291 3.901230 0
M  V30 32 H -1.292760 -8.292461 3.252179 0
M  V30 33 H -0.767541 -9.540454 2.063428 0
M  V30 34 H -0.804167 -7.797511 1.610809 0
M  V30 35 H 0.411186 -5.965362 1.750213 0
M  V30 36 H 0.115664 -3.948475 2.099234 0
M  V30 37 H -0.422765 -1.710415 1.056494 0
M  V30 38 H -0.392666 0.339241 -0.019885 0
M  V30 39 H 1.481266 2.112003 -1.409975 0
M  V30 40 H -2.101262 1.378603 -0.235334 0
M  V30 41 H -3.959491 2.913781 -0.568411 0
M  V30 42 H -4.480116 5.400970 -2.610404 0
M  V30 43 H -5.081234 8.023521 -1.596299 0
M  V30 44 H -6.241271 6.918408 -0.835915 0
M  V30 45 H -4.158795 7.998559 0.889991 0
M  V30 46 H -5.746916 7.494947 1.194219 0
M  V30 47 H -1.320256 5.712647 -2.510438 0
M  V30 48 H 0.526834 4.191429 -2.179336 0
M  V30 49 H 4.731236 -1.193015 -0.499675 0
M  V30 50 H 4.194257 -3.546450 0.873229 0
M  V30 51 H 4.447543 -4.688075 2.680775 0
M  V30 52 H 4.869182 -6.869694 3.704138 0
M  V30 53 H 3.726906 -9.506169 3.326700 0
M  V30 END ATOM
M  V30 BEGIN BOND
M  V30 1 1 1 2
M  V30 2 1 2 3
M  V30 3 2 3 4
M  V30 4 1 4 5
M  V30 5 1 5 6
M  V30 6 2 6 7
M  V30 7 1 7 8
M  V30 8 2 8 9
M  V30 9 1 9 10
M  V30 10 1 10 11
M  V30 11 2 11 12
M  V30 12 1 12 13
M  V30 13 2 13 14
M  V30 14 1 14 15
M  V30 15 2 15 16
M  V30 16 1 16 17
M  V30 17 1 17 18
M  V30 18 2 18 19
M  V30 19 1 18 20
M  V30 20 1 20 21
M  V30 21 1 16 22
M  V30 22 2 22 23
M  V30 23 2 10 24
M  V30 24 1 24 25
M  V30 25 1 25 26
M  V30 26 2 26 27
M  V30 27 2 5 28
M  V30 28 1 28 29
M  V30 29 2 29 30
M  V30 30 1 30 31
M  V30 31 1 30 3
M  V30 32 1 27 6
M  V30 33 1 26 9
M  V30 34 1 23 13
M  V30 35 1 1 32
M  V30 36 1 1 33
M  V30 37 1 1 34
M  V30 38 1 4 35
M  V30 39 1 7 36
M  V30 40 1 8 37
M  V30 41 1 11 38
M  V30 42 1 12 39
M  V30 43 1 14 40
M  V30 44 1 15 41
M  V30 45 1 17 42
M  V30 46 1 20 43
M  V30 47 1 20 44
M  V30 48 1 21 45
M  V30 49 1 21 46
M  V30 50 1 22 47
M  V30 51 1 23 48
M  V30 52 1 25 49
M  V30 53 1 27 50
M  V30 54 1 28 51
M  V30 55 1 29 52
M  V30 56 1 31 53
M  V30 END BOND
M  V30 END CTAB
M  END
>  <Dataset>  (119) 
ChEMBL_Kinases

>  <Ligand_Instance>  (119) 
nan

>  <PDB_ID>  (119) 
nan

>  <Standardized_SMILES>  (119) 
COc1cc(-c2ccc3c(/C=C/c4ccc(NC(=O)CN)cc4)n[nH]c3c2)ccc1O

>  <Name>  (119) 
nan

>  <Pocket>  (119) 
nan

>  <ATP_Site>  (119) 
nan

>  <Peripheral>  (119) 
nan

>  <Num_H_Atoms_ProtBoundConf>  (119) 
nan

>  <Num_Resolved_Atoms>  (119) 
nan

>  <Num_Not_Resolved_Atoms>  (119) 
nan

$$$$
CHEMBL3919738
     RDKit          3D

  0  0  0  0  0  0  0  0  0  0999 V3000
M  V30 BEGIN CTAB
M  V30 COUNTS 44 47 0 0 0
M  V30 BEGIN ATOM
M  V30 1 C 2.809626 -6.688016 -3.033877 0
M  V30 2 O 3.105556 -5.333303 -2.826403 0
M  V30 3 C 2.335848 -4.316851 -3.372182 0
M  V30 4 C 1.228839 -4.535003 -4.154618 0
M  V30 5 C 0.493766 -3.486371 -4.675881 0
M  V30 6 C 0.871971 -2.182416 -4.410369 0
M  V30 7 C 1.985245 -1.919313 -3.623607 0
M  V30 8 S 2.544227 -0.266671 -3.230883 0
M  V30 9 C 1.732529 0.236721 -1.723395 0
M  V30 10 C 2.403023 -0.071605 -0.567713 0
M  V30 11 C 1.848679 0.281104 0.657050 0
M  V30 12 C 0.633598 0.933569 0.652010 0
M  V30 13 C 0.073401 1.293065 1.951919 0
M  V30 14 N -1.097963 1.932834 2.208078 0
M  V30 15 C -1.250818 2.074942 3.537437 0
M  V30 16 C -2.273527 2.655958 4.258671 0
M  V30 17 C -2.234908 2.697535 5.635776 0
M  V30 18 C -3.325703 3.315859 6.375097 0
M  V30 19 N -3.259455 3.341412 7.783181 0
M  V30 20 O -4.318613 3.824476 5.799836 0
M  V30 21 C -1.151336 2.145683 6.281073 0
M  V30 22 C -0.144526 1.572043 5.533892 0
M  V30 23 C -0.153317 1.514531 4.158203 0
M  V30 24 N 0.623070 1.052955 3.159449 0
M  V30 25 C -0.070865 1.260725 -0.489926 0
M  V30 26 C 0.514352 0.892885 -1.683114 0
M  V30 27 C 2.687096 -3.002281 -3.125762 0
M  V30 28 H 3.754057 -7.245707 -2.790942 0
M  V30 29 H 2.018521 -7.029391 -2.333107 0
M  V30 30 H 2.456676 -6.922404 -4.052557 0
M  V30 31 H 0.927081 -5.550124 -4.366461 0
M  V30 32 H -0.383898 -3.632868 -5.296283 0
M  V30 33 H 0.334896 -1.301462 -4.791492 0
M  V30 34 H 3.362375 -0.585810 -0.541001 0
M  V30 35 H 2.369240 0.042784 1.576539 0
M  V30 36 H -3.159176 3.111598 3.839460 0
M  V30 37 H -3.429794 3.982504 8.596027 0
M  V30 38 H -3.185309 3.283586 8.814637 0
M  V30 39 H -1.089757 2.161995 7.371099 0
M  V30 40 H 0.718822 1.131369 6.023863 0
M  V30 41 H 1.530259 0.575663 3.363046 0
M  V30 42 H -1.023389 1.773917 -0.457748 0
M  V30 43 H 0.032799 1.108697 -2.638733 0
M  V30 44 H 3.554687 -2.799636 -2.512700 0
M  V30 END ATOM
M  V30 BEGIN BOND
M  V30 1 1 1 2
M  V30 2 1 2 3
M  V30 3 2 3 4
M  V30 4 1 4 5
M  V30 5 2 5 6
M  V30 6 1 6 7
M  V30 7 1 7 8
M  V30 8 1 8 9
M  V30 9 2 9 10
M  V30 10 1 10 11
M  V30 11 2 11 12
M  V30 12 1 12 13
M  V30 13 2 13 14
M  V30 14 1 14 15
M  V30 15 2 15 16
M  V30 16 1 16 17
M  V30 17 1 17 18
M  V30 18 1 18 19
M  V30 19 2 18 20
M  V30 20 2 17 21
M  V30 21 1 21 22
M  V30 22 2 22 23
M  V30 23 1 23 24
M  V30 24 1 12 25
M  V30 25 2 25 26
M  V30 26 2 7 27
M  V30 27 1 27 3
M  V30 28 1 26 9
M  V30 29 1 24 13
M  V30 30 1 23 15
M  V30 31 1 1 28
M  V30 32 1 1 29
M  V30 33 1 1 30
M  V30 34 1 4 31
M  V30 35 1 5 32
M  V30 36 1 6 33
M  V30 37 1 10 34
M  V30 38 1 11 35
M  V30 39 1 16 36
M  V30 40 1 19 37
M  V30 41 1 19 38
M  V30 42 1 21 39
M  V30 43 1 22 40
M  V30 44 1 24 41
M  V30 45 1 25 42
M  V30 46 1 26 43
M  V30 47 1 27 44
M  V30 END BOND
M  V30 END CTAB
M  END
>  <Dataset>  (120) 
ChEMBL_Kinases

>  <Ligand_Instance>  (120) 
nan

>  <PDB_ID>  (120) 
nan

>  <Standardized_SMILES>  (120) 
COc1cccc(Sc2ccc(-c3nc4cc(C(N)=O)ccc4[nH]3)cc2)c1

>  <Name>  (120) 
nan

>  <Pocket>  (120) 
nan

>  <ATP_Site>  (120) 
nan

>  <Peripheral>  (120) 
nan

>  <Num_H_Atoms_ProtBoundConf>  (120) 
nan

>  <Num_Resolved_Atoms>  (120) 
nan

>  <Num_Not_Resolved_Atoms>  (120) 
nan

$$$$
CHEMBL4876578
     RDKit          3D

  0  0  0  0  0  0  0  0  0  0999 V3000
M  V30 BEGIN CTAB
M  V30 COUNTS 44 46 0 0 0
M  V30 BEGIN ATOM
M  V30 1 C -2.018547 -2.716782 5.046279 0
M  V30 2 O -0.870055 -2.257943 4.368368 0
M  V30 3 C 0.360746 -2.213950 5.002443 0
M  V30 4 C 1.484887 -1.764656 4.338337 0
M  V30 5 C 2.764274 -1.679940 4.878971 0
M  V30 6 O 3.771361 -1.201181 4.052302 0
M  V30 7 C 3.539658 -0.816118 2.737613 0
M  V30 8 C 3.612021 -1.613238 1.613501 0
M  V30 9 C 3.346420 -1.053253 0.375349 0
M  V30 10 C 3.016831 0.283483 0.294213 0
M  V30 11 N 2.754825 0.789238 -1.033001 0
M  V30 12 C 1.400156 0.684743 -1.415606 0
M  V30 13 O 0.629418 0.177166 -0.565543 0
M  V30 14 N 0.869924 1.095207 -2.640822 0
M  V30 15 C -0.457342 1.043288 -3.135903 0
M  V30 16 C -0.732245 1.517392 -4.393706 0
M  V30 17 C -1.986304 1.500800 -4.938818 0
M  V30 18 C -3.062892 0.997541 -4.241621 0
M  V30 19 C -2.819692 0.518892 -2.987774 0
M  V30 20 C -3.968749 -0.033162 -2.208082 0
M  V30 21 F -4.913198 -0.631747 -2.996017 0
M  V30 22 F -4.506347 0.969163 -1.412150 0
M  V30 23 F -3.464171 -1.015834 -1.358763 0
M  V30 24 C -1.561613 0.552396 -2.481084 0
M  V30 25 C 2.934342 1.113498 1.397297 0
M  V30 26 C 3.205087 0.529757 2.630153 0
M  V30 27 N 2.885919 -2.082201 6.177264 0
M  V30 28 C 1.804023 -2.521874 6.838491 0
M  V30 29 N 0.570038 -2.594072 6.288140 0
M  V30 30 H -2.003372 -3.845489 5.041606 0
M  V30 31 H -2.894222 -2.470619 4.380085 0
M  V30 32 H -2.148464 -2.309168 6.049758 0
M  V30 33 H 1.327506 -1.458024 3.308348 0
M  V30 34 H 3.882810 -2.657524 1.802552 0
M  V30 35 H 3.412546 -1.707740 -0.484216 0
M  V30 36 H 3.441094 1.211196 -1.718435 0
M  V30 37 H 1.611096 1.500189 -3.260225 0
M  V30 38 H 0.093823 1.930094 -4.991922 0
M  V30 39 H -2.106914 1.896489 -5.937850 0
M  V30 40 H -4.063451 0.971307 -4.645574 0
M  V30 41 H -1.447502 0.156628 -1.484910 0
M  V30 42 H 2.670234 2.148140 1.249469 0
M  V30 43 H 3.127333 1.225724 3.474008 0
M  V30 44 H 1.906592 -2.838634 7.865062 0
M  V30 END ATOM
M  V30 BEGIN BOND
M  V30 1 1 1 2
M  V30 2 1 2 3
M  V30 3 2 3 4
M  V30 4 1 4 5
M  V30 5 1 5 6
M  V30 6 1 6 7
M  V30 7 2 7 8
M  V30 8 1 8 9
M  V30 9 2 9 10
M  V30 10 1 10 11
M  V30 11 1 11 12
M  V30 12 2 12 13
M  V30 13 1 12 14
M  V30 14 1 14 15
M  V30 15 2 15 16
M  V30 16 1 16 17
M  V30 17 2 17 18
M  V30 18 1 18 19
M  V30 19 1 19 20
M  V30 20 1 20 21
M  V30 21 1 20 22
M  V30 22 1 20 23
M  V30 23 2 19 24
M  V30 24 1 10 25
M  V30 25 2 25 26
M  V30 26 2 5 27
M  V30 27 1 27 28
M  V30 28 2 28 29
M  V30 29 1 29 3
M  V30 30 1 26 7
M  V30 31 1 24 15
M  V30 32 1 1 30
M  V30 33 1 1 31
M  V30 34 1 1 32
M  V30 35 1 4 33
M  V30 36 1 8 34
M  V30 37 1 9 35
M  V30 38 1 11 36
M  V30 39 1 14 37
M  V30 40 1 16 38
M  V30 41 1 17 39
M  V30 42 1 18 40
M  V30 43 1 24 41
M  V30 44 1 25 42
M  V30 45 1 26 43
M  V30 46 1 28 44
M  V30 END BOND
M  V30 END CTAB
M  END
>  <Dataset>  (121) 
ChEMBL_Kinases

>  <Ligand_Instance>  (121) 
nan

>  <PDB_ID>  (121) 
nan

>  <Standardized_SMILES>  (121) 
COc1cc(Oc2ccc(NC(=O)Nc3cccc(C(F)(F)F)c3)cc2)ncn1

>  <Name>  (121) 
nan

>  <Pocket>  (121) 
nan

>  <ATP_Site>  (121) 
nan

>  <Peripheral>  (121) 
nan

>  <Num_H_Atoms_ProtBoundConf>  (121) 
nan

>  <Num_Resolved_Atoms>  (121) 
nan

>  <Num_Not_Resolved_Atoms>  (121) 
nan

$$$$
CHEMBL610775
     RDKit          3D

  0  0  0  0  0  0  0  0  0  0999 V3000
M  V30 BEGIN CTAB
M  V30 COUNTS 50 52 0 0 0
M  V30 BEGIN ATOM
M  V30 1 N 6.129451 -4.536332 3.996620 0
M  V30 2 C 5.610725 -4.292074 3.003890 0
M  V30 3 C 4.963992 -4.009423 1.760860 0
M  V30 4 C 4.308618 -5.007969 1.077096 0
M  V30 5 C 3.686206 -4.692428 -0.138223 0
M  V30 6 C 3.761558 -3.372460 -0.599436 0
M  V30 7 C 4.429950 -2.384945 0.111440 0
M  V30 8 N 4.345052 -1.158965 -0.588281 0
M  V30 9 C 3.306466 -0.210657 -0.402379 0
M  V30 10 O 2.402024 -0.447752 0.428752 0
M  V30 11 N 3.379191 0.946697 -1.186790 0
M  V30 12 C 2.488864 2.084392 -1.238029 0
M  V30 13 C 1.609790 2.039155 -0.046409 0
M  V30 14 C 2.021150 2.687328 1.122241 0
M  V30 15 C 1.189227 2.639932 2.213039 0
M  V30 16 C -0.012107 1.969651 2.143238 0
M  V30 17 C -0.460530 1.315966 1.014903 0
M  V30 18 C -1.722509 0.602521 0.892433 0
M  V30 19 O -1.958886 0.000036 -0.179141 0
M  V30 20 N -2.717068 0.530901 1.890901 0
M  V30 21 C -3.984719 -0.110826 1.934401 0
M  V30 22 C -4.971554 0.332626 0.887349 0
M  V30 23 C -6.282775 -0.415868 0.940520 0
M  V30 24 C -5.932849 -1.692810 0.215175 0
M  V30 25 C -4.883181 -1.213151 -0.742500 0
M  V30 26 O -4.560561 0.102713 -0.416208 0
M  V30 27 C 0.404060 1.389206 -0.053552 0
M  V30 28 C 5.037068 -2.711394 1.305511 0
M  V30 29 H 4.287799 -6.026582 1.496530 0
M  V30 30 H 3.179203 -5.498466 -0.651649 0
M  V30 31 H 3.231172 -3.280592 -1.556916 0
M  V30 32 H 5.129646 -0.994450 -1.278092 0
M  V30 33 H 4.171307 1.102111 -1.879676 0
M  V30 34 H 3.005495 3.052065 -1.327984 0
M  V30 35 H 1.827909 1.940904 -2.136698 0
M  V30 36 H 2.957084 3.216337 1.197573 0
M  V30 37 H 1.481145 3.133548 3.136256 0
M  V30 38 H -0.625643 1.965378 3.030174 0
M  V30 39 H -2.408898 1.078553 2.754939 0
M  V30 40 H -3.909871 -1.230653 1.886799 0
M  V30 41 H -4.463764 0.087159 2.912277 0
M  V30 42 H -5.130720 1.422091 1.042886 0
M  V30 43 H -6.998578 0.129805 0.293421 0
M  V30 44 H -6.652047 -0.559545 1.967928 0
M  V30 45 H -5.460048 -2.386025 0.944895 0
M  V30 46 H -6.781301 -2.152432 -0.317369 0
M  V30 47 H -5.241739 -1.236488 -1.794171 0
M  V30 48 H -3.951632 -1.827506 -0.665247 0
M  V30 49 H 0.149079 0.908893 -0.995088 0
M  V30 50 H 5.519266 -1.869611 1.761059 0
M  V30 END ATOM
M  V30 BEGIN BOND
M  V30 1 3 1 2
M  V30 2 1 2 3
M  V30 3 2 3 4
M  V30 4 1 4 5
M  V30 5 2 5 6
M  V30 6 1 6 7
M  V30 7 1 7 8
M  V30 8 1 8 9
M  V30 9 2 9 10
M  V30 10 1 9 11
M  V30 11 1 11 12
M  V30 12 1 12 13
M  V30 13 2 13 14
M  V30 14 1 14 15
M  V30 15 2 15 16
M  V30 16 1 16 17
M  V30 17 1 17 18
M  V30 18 2 18 19
M  V30 19 1 18 20
M  V30 20 1 20 21
M  V30 21 1 21 22
M  V30 22 1 22 23
M  V30 23 1 23 24
M  V30 24 1 24 25
M  V30 25 1 25 26
M  V30 26 2 17 27
M  V30 27 2 7 28
M  V30 28 1 28 3
M  V30 29 1 27 13
M  V30 30 1 26 22
M  V30 31 1 4 29
M  V30 32 1 5 30
M  V30 33 1 6 31
M  V30 34 1 8 32
M  V30 35 1 11 33
M  V30 36 1 12 34
M  V30 37 1 12 35
M  V30 38 1 14 36
M  V30 39 1 15 37
M  V30 40 1 16 38
M  V30 41 1 20 39
M  V30 42 1 21 40
M  V30 43 1 21 41
M  V30 44 1 22 42
M  V30 45 1 23 43
M  V30 46 1 23 44
M  V30 47 1 24 45
M  V30 48 1 24 46
M  V30 49 1 25 47
M  V30 50 1 25 48
M  V30 51 1 27 49
M  V30 52 1 28 50
M  V30 END BOND
M  V30 END CTAB
M  END
>  <Dataset>  (122) 
ChEMBL_Kinases

>  <Ligand_Instance>  (122) 
nan

>  <PDB_ID>  (122) 
nan

>  <Standardized_SMILES>  (122) 
N#Cc1cccc(NC(=O)NCc2cccc(C(=O)NCC3CCCO3)c2)c1

>  <Name>  (122) 
nan

>  <Pocket>  (122) 
nan

>  <ATP_Site>  (122) 
nan

>  <Peripheral>  (122) 
nan

>  <Num_H_Atoms_ProtBoundConf>  (122) 
nan

>  <Num_Resolved_Atoms>  (122) 
nan

>  <Num_Not_Resolved_Atoms>  (122) 
nan

$$$$
CHEMBL3919553
     RDKit          3D

  0  0  0  0  0  0  0  0  0  0999 V3000
M  V30 BEGIN CTAB
M  V30 COUNTS 48 51 0 0 0
M  V30 BEGIN ATOM
M  V30 1 O -2.671271 -2.093376 2.105980 0
M  V30 2 C -2.004757 -1.753342 1.098258 0
M  V30 3 C -0.996388 -0.715151 0.980600 0
M  V30 4 C -0.350552 -0.436289 -0.127508 0
M  V30 5 C 0.649555 0.615374 -0.184477 0
M  V30 6 C 1.314790 0.889410 -1.361501 0
M  V30 7 N 2.250987 1.844508 -1.490335 0
M  V30 8 C 2.628306 2.630239 -0.467312 0
M  V30 9 N 3.523356 3.622945 -0.373302 0
M  V30 10 C 3.473772 4.037853 0.885760 0
M  V30 11 C 2.549387 3.319662 1.614878 0
M  V30 12 C 2.220802 3.492587 3.024932 0
M  V30 13 C 3.259234 3.635421 3.949597 0
M  V30 14 C 3.035656 3.807702 5.307468 0
M  V30 15 C 1.725878 3.841886 5.785741 0
M  V30 16 C 0.714390 3.699250 4.859693 0
M  V30 17 C 0.939982 3.526794 3.500010 0
M  V30 18 C 1.978803 2.385541 0.743407 0
M  V30 19 C 1.021456 1.410116 0.878608 0
M  V30 20 N -2.392109 -2.580938 -0.004156 0
M  V30 21 C -3.400148 -3.583786 0.205748 0
M  V30 22 C -3.714083 -4.397305 -1.002658 0
M  V30 23 C -2.580799 -5.152972 -1.554930 0
M  V30 24 C -2.388409 -6.432871 -1.015569 0
M  V30 25 C -1.329725 -7.142624 -1.536743 0
M  V30 26 C -0.475764 -6.682986 -2.525901 0
M  V30 27 N -0.689937 -5.444966 -3.023762 0
M  V30 28 C -1.713478 -4.728516 -2.536386 0
M  V30 29 H -0.832100 -0.191688 1.910642 0
M  V30 30 H -0.555977 -0.994575 -1.028480 0
M  V30 31 H 1.048124 0.280370 -2.230244 0
M  V30 32 H 4.109598 3.951654 -1.177714 0
M  V30 33 H 4.114608 4.849421 1.222047 0
M  V30 34 H 4.299222 3.614673 3.622393 0
M  V30 35 H 3.851636 3.916624 6.008429 0
M  V30 36 H 1.467180 3.972491 6.826242 0
M  V30 37 H -0.316472 3.725549 5.228751 0
M  V30 38 H 0.118096 3.418716 2.806113 0
M  V30 39 H 0.561975 1.271275 1.827351 0
M  V30 40 H -1.944209 -2.455682 -0.956613 0
M  V30 41 H -3.077811 -4.195258 1.059324 0
M  V30 42 H -4.379315 -3.128831 0.536780 0
M  V30 43 H -4.575440 -5.063444 -0.731334 0
M  V30 44 H -4.112175 -3.775166 -1.836708 0
M  V30 45 H -3.021353 -6.849440 -0.241301 0
M  V30 46 H -1.076287 -8.143302 -1.202390 0
M  V30 47 H 0.350547 -7.241068 -2.931944 0
M  V30 48 H -1.864756 -3.743698 -2.952760 0
M  V30 END ATOM
M  V30 BEGIN BOND
M  V30 1 2 1 2
M  V30 2 1 2 3
M  V30 3 2 3 4
M  V30 4 1 4 5
M  V30 5 2 5 6
M  V30 6 1 6 7
M  V30 7 2 7 8
M  V30 8 1 8 9
M  V30 9 1 9 10
M  V30 10 2 10 11
M  V30 11 1 11 12
M  V30 12 2 12 13
M  V30 13 1 13 14
M  V30 14 2 14 15
M  V30 15 1 15 16
M  V30 16 2 16 17
M  V30 17 1 11 18
M  V30 18 2 18 19
M  V30 19 1 2 20
M  V30 20 1 20 21
M  V30 21 1 21 22
M  V30 22 1 22 23
M  V30 23 2 23 24
M  V30 24 1 24 25
M  V30 25 2 25 26
M  V30 26 1 26 27
M  V30 27 2 27 28
M  V30 28 1 19 5
M  V30 29 1 28 23
M  V30 30 1 18 8
M  V30 31 1 17 12
M  V30 32 1 3 29
M  V30 33 1 4 30
M  V30 34 1 6 31
M  V30 35 1 9 32
M  V30 36 1 10 33
M  V30 37 1 13 34
M  V30 38 1 14 35
M  V30 39 1 15 36
M  V30 40 1 16 37
M  V30 41 1 17 38
M  V30 42 1 19 39
M  V30 43 1 20 40
M  V30 44 1 21 41
M  V30 45 1 21 42
M  V30 46 1 22 43
M  V30 47 1 22 44
M  V30 48 1 24 45
M  V30 49 1 25 46
M  V30 50 1 26 47
M  V30 51 1 28 48
M  V30 END BOND
M  V30 END CTAB
M  END
>  <Dataset>  (123) 
ChEMBL_Kinases

>  <Ligand_Instance>  (123) 
nan

>  <PDB_ID>  (123) 
nan

>  <Standardized_SMILES>  (123) 
O=C(/C=C/c1cnc2[nH]cc(-c3ccccc3)c2c1)NCCc1cccnc1

>  <Name>  (123) 
nan

>  <Pocket>  (123) 
nan

>  <ATP_Site>  (123) 
nan

>  <Peripheral>  (123) 
nan

>  <Num_H_Atoms_ProtBoundConf>  (123) 
nan

>  <Num_Resolved_Atoms>  (123) 
nan

>  <Num_Not_Resolved_Atoms>  (123) 
nan

$$$$
CHEMBL3919545
     RDKit          3D

  0  0  0  0  0  0  0  0  0  0999 V3000
M  V30 BEGIN CTAB
M  V30 COUNTS 43 47 0 0 0
M  V30 BEGIN ATOM
M  V30 1 O 4.304093 0.679393 0.846141 0
M  V30 2 C 3.091106 0.802445 0.488011 0
M  V30 3 N 2.829256 1.920144 -0.344973 0
M  V30 4 C 3.729173 2.909146 -0.827442 0
M  V30 5 C 3.893696 4.042645 -0.024611 0
M  V30 6 C 4.754515 5.046500 -0.432133 0
M  V30 7 C 5.427710 4.873748 -1.646677 0
M  V30 8 O 6.303247 5.882092 -2.073029 0
M  V30 9 C 5.257989 3.747938 -2.434180 0
M  V30 10 F 5.927734 3.608359 -3.612306 0
M  V30 11 C 4.393177 2.745869 -2.018739 0
M  V30 12 C 1.997310 -0.094027 0.862771 0
M  V30 13 C 0.670720 0.004801 0.496075 0
M  V30 14 C -0.239016 -0.933679 0.941278 0
M  V30 15 C 0.095481 -1.994194 1.750719 0
M  V30 16 C -0.652057 -3.013750 2.288515 0
M  V30 17 C -2.062395 -3.329459 2.189999 0
M  V30 18 N -2.570637 -4.418329 2.829675 0
M  V30 19 C -3.867137 -4.564191 2.639183 0
M  V30 20 C -4.794042 -5.495951 3.075952 0
M  V30 21 C -6.113094 -5.335811 2.668509 0
M  V30 22 C -6.524648 -4.281276 1.845805 0
M  V30 23 C -5.562997 -3.386744 1.442626 0
M  V30 24 C -4.260374 -3.524364 1.830785 0
M  V30 25 N -3.137649 -2.841987 1.610725 0
M  V30 26 N 0.283333 -3.710817 2.981439 0
M  V30 27 N 1.474798 -3.163104 2.870130 0
M  V30 28 C 1.427418 -2.063311 2.098048 0
M  V30 29 C 2.367081 -1.147753 1.675447 0
M  V30 30 H 1.884890 2.158774 -0.722720 0
M  V30 31 H 3.352895 4.150378 0.922030 0
M  V30 32 H 4.912923 5.940599 0.156346 0
M  V30 33 H 6.118661 6.495314 -2.843161 0
M  V30 34 H 4.213356 1.848807 -2.576485 0
M  V30 35 H 0.435259 0.847273 -0.140168 0
M  V30 36 H -1.253796 -0.797651 0.618951 0
M  V30 37 H -4.473186 -6.302317 3.706436 0
M  V30 38 H -6.847299 -6.055700 3.001904 0
M  V30 39 H -7.544984 -4.173138 1.541527 0
M  V30 40 H -5.814076 -2.542231 0.801399 0
M  V30 41 H -3.137717 -1.996222 1.025099 0
M  V30 42 H 2.307199 -3.577274 3.344028 0
M  V30 43 H 3.377055 -1.340328 2.035861 0
M  V30 END ATOM
M  V30 BEGIN BOND
M  V30 1 2 1 2
M  V30 2 1 2 3
M  V30 3 1 3 4
M  V30 4 2 4 5
M  V30 5 1 5 6
M  V30 6 2 6 7
M  V30 7 1 7 8
M  V30 8 1 7 9
M  V30 9 1 9 10
M  V30 10 2 9 11
M  V30 11 1 2 12
M  V30 12 2 12 13
M  V30 13 1 13 14
M  V30 14 2 14 15
M  V30 15 1 15 16
M  V30 16 1 16 17
M  V30 17 2 17 18
M  V30 18 1 18 19
M  V30 19 2 19 20
M  V30 20 1 20 21
M  V30 21 2 21 22
M  V30 22 1 22 23
M  V30 23 2 23 24
M  V30 24 1 24 25
M  V30 25 2 16 26
M  V30 26 1 26 27
M  V30 27 1 27 28
M  V30 28 2 28 29
M  V30 29 1 11 4
M  V30 30 1 29 12
M  V30 31 1 28 15
M  V30 32 1 25 17
M  V30 33 1 24 19
M  V30 34 1 3 30
M  V30 35 1 5 31
M  V30 36 1 6 32
M  V30 37 1 8 33
M  V30 38 1 11 34
M  V30 39 1 13 35
M  V30 40 1 14 36
M  V30 41 1 20 37
M  V30 42 1 21 38
M  V30 43 1 22 39
M  V30 44 1 23 40
M  V30 45 1 25 41
M  V30 46 1 27 42
M  V30 47 1 29 43
M  V30 END BOND
M  V30 END CTAB
M  END
>  <Dataset>  (124) 
ChEMBL_Kinases

>  <Ligand_Instance>  (124) 
nan

>  <PDB_ID>  (124) 
nan

>  <Standardized_SMILES>  (124) 
O=C(Nc1ccc(O)c(F)c1)c1ccc2c(-c3nc4ccccc4[nH]3)n[nH]c2c1

>  <Name>  (124) 
nan

>  <Pocket>  (124) 
nan

>  <ATP_Site>  (124) 
nan

>  <Peripheral>  (124) 
nan

>  <Num_H_Atoms_ProtBoundConf>  (124) 
nan

>  <Num_Resolved_Atoms>  (124) 
nan

>  <Num_Not_Resolved_Atoms>  (124) 
nan

$$$$
CHEMBL3919437
     RDKit          3D

  0  0  0  0  0  0  0  0  0  0999 V3000
M  V30 BEGIN CTAB
M  V30 COUNTS 49 52 0 0 0
M  V30 BEGIN ATOM
M  V30 1 C 1.040405 -7.404587 0.772382 0
M  V30 2 C 0.689612 -6.161692 0.026897 0
M  V30 3 C 1.101594 -4.917077 0.447399 0
M  V30 4 C 0.802215 -3.741173 -0.208143 0
M  V30 5 C 0.031941 -3.824761 -1.371759 0
M  V30 6 C -0.365307 -2.618410 -2.181991 0
M  V30 7 O -1.714384 -2.793580 -2.475861 0
M  V30 8 C -0.205669 -1.379082 -1.382133 0
M  V30 9 C 0.763257 -0.420004 -1.601424 0
M  V30 10 C 0.850355 0.718735 -0.807351 0
M  V30 11 C -0.071676 0.853734 0.211347 0
M  V30 12 C 0.018475 2.050922 1.047605 0
M  V30 13 N -0.749711 2.415489 2.091271 0
M  V30 14 C -0.314176 3.609364 2.582479 0
M  V30 15 C -0.767554 4.386087 3.632648 0
M  V30 16 C -0.110672 5.570548 3.897088 0
M  V30 17 C -0.474933 6.489769 4.969065 0
M  V30 18 N -1.581274 6.129347 5.787433 0
M  V30 19 O 0.079467 7.572804 5.256757 0
M  V30 20 C 0.986718 6.003160 3.143352 0
M  V30 21 C 1.403389 5.178650 2.092633 0
M  V30 22 C 0.762974 3.988417 1.807402 0
M  V30 23 N 0.936563 3.015720 0.883165 0
M  V30 24 C -1.047023 -0.096850 0.443573 0
M  V30 25 C -1.120873 -1.229389 -0.358844 0
M  V30 26 C -0.373233 -5.078114 -1.780389 0
M  V30 27 C -0.082059 -6.262493 -1.135965 0
M  V30 28 C -0.548102 -7.573016 -1.628048 0
M  V30 29 H 1.629329 -8.097921 0.175598 0
M  V30 30 H 1.661272 -7.094669 1.651060 0
M  V30 31 H 0.107826 -7.924836 1.085003 0
M  V30 32 H 1.707441 -4.842402 1.361132 0
M  V30 33 H 1.124015 -2.761668 0.119078 0
M  V30 34 H 0.262850 -2.646716 -3.092940 0
M  V30 35 H -1.874790 -2.690406 -3.451948 0
M  V30 36 H 1.439483 -0.607457 -2.416938 0
M  V30 37 H 1.638573 1.433667 -1.036214 0
M  V30 38 H -1.608395 4.112266 4.254762 0
M  V30 39 H -1.895440 6.315960 6.742556 0
M  V30 40 H -2.430851 5.533172 5.617025 0
M  V30 41 H 1.513179 6.929747 3.337731 0
M  V30 42 H 2.245022 5.448076 1.466353 0
M  V30 43 H 1.683738 3.070552 0.184616 0
M  V30 44 H -1.744591 0.072346 1.266132 0
M  V30 45 H -1.911964 -1.935266 -0.120136 0
M  V30 46 H -0.978597 -5.141441 -2.695293 0
M  V30 47 H -1.648718 -7.654485 -1.705104 0
M  V30 48 H -0.107246 -8.363140 -0.987550 0
M  V30 49 H -0.159554 -7.745349 -2.669914 0
M  V30 END ATOM
M  V30 BEGIN BOND
M  V30 1 1 1 2
M  V30 2 2 2 3
M  V30 3 1 3 4
M  V30 4 2 4 5
M  V30 5 1 5 6
M  V30 6 1 6 7
M  V30 7 1 6 8
M  V30 8 2 8 9
M  V30 9 1 9 10
M  V30 10 2 10 11
M  V30 11 1 11 12
M  V30 12 2 12 13
M  V30 13 1 13 14
M  V30 14 2 14 15
M  V30 15 1 15 16
M  V30 16 1 16 17
M  V30 17 1 17 18
M  V30 18 2 17 19
M  V30 19 2 16 20
M  V30 20 1 20 21
M  V30 21 2 21 22
M  V30 22 1 22 23
M  V30 23 1 11 24
M  V30 24 2 24 25
M  V30 25 1 5 26
M  V30 26 2 26 27
M  V30 27 1 27 28
M  V30 28 1 27 2
M  V30 29 1 25 8
M  V30 30 1 23 12
M  V30 31 1 22 14
M  V30 32 1 1 29
M  V30 33 1 1 30
M  V30 34 1 1 31
M  V30 35 1 3 32
M  V30 36 1 4 33
M  V30 37 1 6 34
M  V30 38 1 7 35
M  V30 39 1 9 36
M  V30 40 1 10 37
M  V30 41 1 15 38
M  V30 42 1 18 39
M  V30 43 1 18 40
M  V30 44 1 20 41
M  V30 45 1 21 42
M  V30 46 1 23 43
M  V30 47 1 24 44
M  V30 48 1 25 45
M  V30 49 1 26 46
M  V30 50 1 28 47
M  V30 51 1 28 48
M  V30 52 1 28 49
M  V30 END BOND
M  V30 END CTAB
M  END
>  <Dataset>  (125) 
ChEMBL_Kinases

>  <Ligand_Instance>  (125) 
nan

>  <PDB_ID>  (125) 
nan

>  <Standardized_SMILES>  (125) 
Cc1ccc(C(O)c2ccc(-c3nc4cc(C(N)=O)ccc4[nH]3)cc2)cc1C

>  <Name>  (125) 
nan

>  <Pocket>  (125) 
nan

>  <ATP_Site>  (125) 
nan

>  <Peripheral>  (125) 
nan

>  <Num_H_Atoms_ProtBoundConf>  (125) 
nan

>  <Num_Resolved_Atoms>  (125) 
nan

>  <Num_Not_Resolved_Atoms>  (125) 
nan

$$$$
CHEMBL3919431
     RDKit          3D

  0  0  0  0  0  0  0  0  0  0999 V3000
M  V30 BEGIN CTAB
M  V30 COUNTS 44 48 0 0 0
M  V30 BEGIN ATOM
M  V30 1 O -2.360458 -1.237277 5.603477 0
M  V30 2 C -1.577660 -1.696711 4.744355 0
M  V30 3 C -0.918506 -3.036691 4.824276 0
M  V30 4 O 0.383220 -3.029668 4.260818 0
M  V30 5 C 0.701985 -2.284974 3.136992 0
M  V30 6 C 1.813250 -2.601263 2.386158 0
M  V30 7 C 2.167916 -1.888390 1.261802 0
M  V30 8 C 1.366851 -0.827613 0.897488 0
M  V30 9 C 1.508114 0.114116 -0.259800 0
M  V30 10 O 2.543634 -0.205760 -1.104214 0
M  V30 11 C 1.742588 1.464036 0.362598 0
M  V30 12 C 2.837960 1.793146 1.123959 0
M  V30 13 C 2.973447 3.059519 1.661737 0
M  V30 14 C 1.986248 3.998562 1.422617 0
M  V30 15 C 0.904413 3.622429 0.652123 0
M  V30 16 C 0.726551 2.380031 0.098189 0
M  V30 17 C -0.223772 1.655120 -0.720989 0
M  V30 18 O -1.262988 2.235341 -1.120288 0
M  V30 19 N 0.244663 0.327095 -0.926651 0
M  V30 20 C -0.419457 -0.677020 -1.679726 0
M  V30 21 C -1.623964 -0.515626 -2.317162 0
M  V30 22 C -2.267403 -1.491723 -3.049855 0
M  V30 23 F -3.474202 -1.233857 -3.652247 0
M  V30 24 C -1.682690 -2.735320 -3.170857 0
M  V30 25 C -0.470586 -2.957466 -2.551573 0
M  V30 26 I 0.410324 -4.857845 -2.743933 0
M  V30 27 C 0.113263 -1.939560 -1.837735 0
M  V30 28 C 0.238221 -0.501787 1.655007 0
M  V30 29 C -0.123203 -1.214089 2.785506 0
M  V30 30 N -1.259928 -0.914615 3.580173 0
M  V30 31 H -1.565105 -3.737394 4.254219 0
M  V30 32 H -0.900561 -3.322138 5.891683 0
M  V30 33 H 2.477734 -3.421346 2.623860 0
M  V30 34 H 3.001261 -2.030233 0.594836 0
M  V30 35 H 3.344954 0.366324 -1.007885 0
M  V30 36 H 3.649842 1.104215 1.350742 0
M  V30 37 H 3.845769 3.310418 2.265183 0
M  V30 38 H 2.038815 5.002474 1.816285 0
M  V30 39 H 0.087309 4.327038 0.427454 0
M  V30 40 H -2.137747 0.431178 -2.265091 0
M  V30 41 H -2.178448 -3.506770 -3.743383 0
M  V30 42 H 1.057366 -2.214304 -1.393009 0
M  V30 43 H -0.461641 0.318783 1.452923 0
M  V30 44 H -1.859492 -0.101207 3.287525 0
M  V30 END ATOM
M  V30 BEGIN BOND
M  V30 1 2 1 2
M  V30 2 1 2 3
M  V30 3 1 3 4
M  V30 4 1 4 5
M  V30 5 2 5 6
M  V30 6 1 6 7
M  V30 7 2 7 8
M  V30 8 1 8 9
M  V30 9 1 9 10
M  V30 10 1 9 11
M  V30 11 2 11 12
M  V30 12 1 12 13
M  V30 13 2 13 14
M  V30 14 1 14 15
M  V30 15 2 15 16
M  V30 16 1 16 17
M  V30 17 2 17 18
M  V30 18 1 17 19
M  V30 19 1 19 20
M  V30 20 2 20 21
M  V30 21 1 21 22
M  V30 22 1 22 23
M  V30 23 2 22 24
M  V30 24 1 24 25
M  V30 25 1 25 26
M  V30 26 2 25 27
M  V30 27 1 8 28
M  V30 28 2 28 29
M  V30 29 1 29 30
M  V30 30 1 30 2
M  V30 31 1 29 5
M  V30 32 1 19 9
M  V30 33 1 27 20
M  V30 34 1 16 11
M  V30 35 1 3 31
M  V30 36 1 3 32
M  V30 37 1 6 33
M  V30 38 1 7 34
M  V30 39 1 10 35
M  V30 40 1 12 36
M  V30 41 1 13 37
M  V30 42 1 14 38
M  V30 43 1 15 39
M  V30 44 1 21 40
M  V30 45 1 24 41
M  V30 46 1 27 42
M  V30 47 1 28 43
M  V30 48 1 30 44
M  V30 END BOND
M  V30 END CTAB
M  END
>  <Dataset>  (126) 
ChEMBL_Kinases

>  <Ligand_Instance>  (126) 
nan

>  <PDB_ID>  (126) 
nan

>  <Standardized_SMILES>  (126) 
O=C1COc2ccc(C3(O)c4ccccc4C(=O)N3c3cc(F)cc(I)c3)cc2N1

>  <Name>  (126) 
nan

>  <Pocket>  (126) 
nan

>  <ATP_Site>  (126) 
nan

>  <Peripheral>  (126) 
nan

>  <Num_H_Atoms_ProtBoundConf>  (126) 
nan

>  <Num_Resolved_Atoms>  (126) 
nan

>  <Num_Not_Resolved_Atoms>  (126) 
nan

$$$$
CHEMBL3919402
     RDKit          3D

  0  0  0  0  0  0  0  0  0  0999 V3000
M  V30 BEGIN CTAB
M  V30 COUNTS 45 48 0 0 0
M  V30 BEGIN ATOM
M  V30 1 C 3.583626 -2.856516 1.389434 0
M  V30 2 O 3.780926 -1.791465 0.480987 0
M  V30 3 C 4.790133 -0.869450 0.716832 0
M  V30 4 C 5.660138 -0.875401 1.782834 0
M  V30 5 C 6.624831 0.103344 1.896193 0
M  V30 6 C 6.747277 1.096336 0.967891 0
M  V30 7 C 5.858377 1.084538 -0.099596 0
M  V30 8 C 4.862857 0.129541 -0.274260 0
M  V30 9 C 3.931491 0.182668 -1.408361 0
M  V30 10 O 4.392954 0.336373 -2.570875 0
M  V30 11 C 2.500843 0.045222 -1.054335 0
M  V30 12 C 2.054805 0.328198 0.243492 0
M  V30 13 C 0.715750 0.181926 0.535633 0
M  V30 14 C -0.223156 -0.230663 -0.382152 0
M  V30 15 C -1.629996 -0.369214 -0.003190 0
M  V30 16 N -2.121500 -0.126118 1.225602 0
M  V30 17 C -3.449781 -0.350933 1.243709 0
M  V30 18 C -4.376542 -0.243146 2.256989 0
M  V30 19 C -5.725785 -0.539879 2.028565 0
M  V30 20 C -6.750957 -0.450738 3.060458 0
M  V30 21 N -6.336368 -0.066382 4.380215 0
M  V30 22 O -7.977897 -0.677164 2.919276 0
M  V30 23 C -6.059385 -0.941479 0.740521 0
M  V30 24 C -5.122869 -1.053762 -0.294588 0
M  V30 25 C -3.805934 -0.750573 -0.022673 0
M  V30 26 N -2.681922 -0.754263 -0.764168 0
M  V30 27 C 0.219674 -0.508503 -1.663228 0
M  V30 28 C 1.571474 -0.375522 -2.010851 0
M  V30 29 H 4.514623 -3.275409 1.802116 0
M  V30 30 H 2.855546 -2.558440 2.199354 0
M  V30 31 H 3.118141 -3.698733 0.798446 0
M  V30 32 H 5.545438 -1.681328 2.519326 0
M  V30 33 H 7.284881 0.035791 2.776237 0
M  V30 34 H 7.512145 1.841779 1.091258 0
M  V30 35 H 5.967636 1.876143 -0.825317 0
M  V30 36 H 2.753176 0.666742 1.021687 0
M  V30 37 H 0.420313 0.409350 1.543122 0
M  V30 38 H -4.101469 0.077161 3.270871 0
M  V30 39 H -5.878773 -0.521499 5.200249 0
M  V30 40 H -6.358390 0.807329 4.957367 0
M  V30 41 H -7.112141 -1.181322 0.527588 0
M  V30 42 H -5.444482 -1.373875 -1.287361 0
M  V30 43 H -2.647454 -1.015720 -1.767950 0
M  V30 44 H -0.501157 -0.837104 -2.416357 0
M  V30 45 H 1.867737 -0.600846 -3.010846 0
M  V30 END ATOM
M  V30 BEGIN BOND
M  V30 1 1 1 2
M  V30 2 1 2 3
M  V30 3 2 3 4
M  V30 4 1 4 5
M  V30 5 2 5 6
M  V30 6 1 6 7
M  V30 7 2 7 8
M  V30 8 1 8 9
M  V30 9 2 9 10
M  V30 10 1 9 11
M  V30 11 2 11 12
M  V30 12 1 12 13
M  V30 13 2 13 14
M  V30 14 1 14 15
M  V30 15 2 15 16
M  V30 16 1 16 17
M  V30 17 2 17 18
M  V30 18 1 18 19
M  V30 19 1 19 20
M  V30 20 1 20 21
M  V30 21 2 20 22
M  V30 22 2 19 23
M  V30 23 1 23 24
M  V30 24 2 24 25
M  V30 25 1 25 26
M  V30 26 1 14 27
M  V30 27 2 27 28
M  V30 28 1 8 3
M  V30 29 1 28 11
M  V30 30 1 26 15
M  V30 31 1 25 17
M  V30 32 1 1 29
M  V30 33 1 1 30
M  V30 34 1 1 31
M  V30 35 1 4 32
M  V30 36 1 5 33
M  V30 37 1 6 34
M  V30 38 1 7 35
M  V30 39 1 12 36
M  V30 40 1 13 37
M  V30 41 1 18 38
M  V30 42 1 21 39
M  V30 43 1 21 40
M  V30 44 1 23 41
M  V30 45 1 24 42
M  V30 46 1 26 43
M  V30 47 1 27 44
M  V30 48 1 28 45
M  V30 END BOND
M  V30 END CTAB
M  END
>  <Dataset>  (127) 
ChEMBL_Kinases

>  <Ligand_Instance>  (127) 
nan

>  <PDB_ID>  (127) 
nan

>  <Standardized_SMILES>  (127) 
COc1ccccc1C(=O)c1ccc(-c2nc3cc(C(N)=O)ccc3[nH]2)cc1

>  <Name>  (127) 
nan

>  <Pocket>  (127) 
nan

>  <ATP_Site>  (127) 
nan

>  <Peripheral>  (127) 
nan

>  <Num_H_Atoms_ProtBoundConf>  (127) 
nan

>  <Num_Resolved_Atoms>  (127) 
nan

>  <Num_Not_Resolved_Atoms>  (127) 
nan

$$$$
CHEMBL391938
     RDKit          3D

  0  0  0  0  0  0  0  0  0  0999 V3000
M  V30 BEGIN CTAB
M  V30 COUNTS 61 64 0 0 0
M  V30 BEGIN ATOM
M  V30 1 C 2.247756 -0.604980 3.368387 0
M  V30 2 C 3.321568 -1.303616 2.530276 0
M  V30 3 C 4.233929 -2.046892 3.463021 0
M  V30 4 N 4.066193 -0.245153 1.829092 0
M  V30 5 C 3.394393 0.633034 0.934720 0
M  V30 6 N 4.100996 1.598674 0.305514 0
M  V30 7 C 3.522287 2.446923 -0.540949 0
M  V30 8 C 2.183780 2.358751 -0.795793 0
M  V30 9 C 1.434417 1.385981 -0.170860 0
M  V30 10 C 0.014176 1.063629 -0.247489 0
M  V30 11 C -1.086880 1.790793 0.151368 0
M  V30 12 C -1.067581 3.111108 0.769991 0
M  V30 13 C -0.657935 4.325540 0.261868 0
M  V30 14 C -0.726369 5.462857 1.032563 0
M  V30 15 C -1.193767 5.480799 2.330446 0
M  V30 16 F -1.193424 6.683177 2.941632 0
M  V30 17 C -1.605307 4.270222 2.846226 0
M  V30 18 C -1.542928 3.125390 2.088671 0
M  V30 19 N -2.141958 1.034183 -0.148915 0
M  V30 20 C -1.744133 -0.137444 -0.719699 0
M  V30 21 C -2.476008 -1.210736 -1.187595 0
M  V30 22 C -1.846169 -2.323747 -1.745018 0
M  V30 23 C -2.698740 -3.428567 -2.221843 0
M  V30 24 N -2.983265 -4.438742 -1.255270 0
M  V30 25 C -3.659663 -3.843211 -0.119319 0
M  V30 26 C -1.867560 -5.190582 -0.782077 0
M  V30 27 C -1.135880 -5.937273 -1.852911 0
M  V30 28 C -2.402609 -6.217693 0.215527 0
M  V30 29 C -0.471377 -2.262628 -1.787932 0
M  V30 30 C 0.244310 -1.184903 -1.317139 0
M  V30 31 N -0.397740 -0.123356 -0.783363 0
M  V30 32 N 2.096701 0.551665 0.684408 0
M  V30 33 H 1.235850 -0.818199 2.937689 0
M  V30 34 H 2.324865 -0.916798 4.423189 0
M  V30 35 H 2.382243 0.500056 3.352634 0
M  V30 36 H 2.884489 -2.025551 1.819511 0
M  V30 37 H 4.616805 -2.968985 3.017738 0
M  V30 38 H 3.621336 -2.342237 4.344411 0
M  V30 39 H 5.030225 -1.350995 3.798109 0
M  V30 40 H 5.091426 -0.147677 1.995970 0
M  V30 41 H 4.028613 3.250532 -1.086331 0
M  V30 42 H 1.576274 2.966007 -1.451530 0
M  V30 43 H -0.305803 4.254161 -0.753188 0
M  V30 44 H -0.375541 6.348000 0.521645 0
M  V30 45 H -1.969670 4.298532 3.863296 0
M  V30 46 H -1.898344 2.253550 2.619041 0
M  V30 47 H -3.545728 -1.181616 -1.117749 0
M  V30 48 H -2.224982 -3.814544 -3.146453 0
M  V30 49 H -3.678099 -2.998539 -2.548394 0
M  V30 50 H -4.566316 -3.271910 -0.430394 0
M  V30 51 H -3.968143 -4.581626 0.644459 0
M  V30 52 H -3.016644 -3.097350 0.400950 0
M  V30 53 H -1.203013 -4.530100 -0.187740 0
M  V30 54 H -0.928293 -7.001614 -1.537818 0
M  V30 55 H -0.126391 -5.494191 -1.970370 0
M  V30 56 H -1.688334 -6.041622 -2.805144 0
M  V30 57 H -1.787593 -7.137735 0.140840 0
M  V30 58 H -3.409511 -6.509754 -0.125430 0
M  V30 59 H -2.439310 -5.815910 1.231290 0
M  V30 60 H 0.028930 -3.114026 -2.215074 0
M  V30 61 H 1.321630 -1.193679 -1.377266 0
M  V30 END ATOM
M  V30 BEGIN BOND
M  V30 1 1 1 2
M  V30 2 1 2 3
M  V30 3 1 2 4
M  V30 4 1 4 5
M  V30 5 2 5 6
M  V30 6 1 6 7
M  V30 7 2 7 8
M  V30 8 1 8 9
M  V30 9 1 9 10
M  V30 10 2 10 11
M  V30 11 1 11 12
M  V30 12 2 12 13
M  V30 13 1 13 14
M  V30 14 2 14 15
M  V30 15 1 15 16
M  V30 16 1 15 17
M  V30 17 2 17 18
M  V30 18 1 11 19
M  V30 19 2 19 20
M  V30 20 1 20 21
M  V30 21 2 21 22
M  V30 22 1 22 23
M  V30 23 1 23 24
M  V30 24 1 24 25
M  V30 25 1 24 26
M  V30 26 1 26 27
M  V30 27 1 26 28
M  V30 28 1 22 29
M  V30 29 2 29 30
M  V30 30 1 30 31
M  V30 31 2 9 32
M  V30 32 1 32 5
M  V30 33 1 31 10
M  V30 34 1 18 12
M  V30 35 1 31 20
M  V30 36 1 1 33
M  V30 37 1 1 34
M  V30 38 1 1 35
M  V30 39 1 2 36
M  V30 40 1 3 37
M  V30 41 1 3 38
M  V30 42 1 3 39
M  V30 43 1 4 40
M  V30 44 1 7 41
M  V30 45 1 8 42
M  V30 46 1 13 43
M  V30 47 1 14 44
M  V30 48 1 17 45
M  V30 49 1 18 46
M  V30 50 1 21 47
M  V30 51 1 23 48
M  V30 52 1 23 49
M  V30 53 1 25 50
M  V30 54 1 25 51
M  V30 55 1 25 52
M  V30 56 1 26 53
M  V30 57 1 27 54
M  V30 58 1 27 55
M  V30 59 1 27 56
M  V30 60 1 28 57
M  V30 61 1 28 58
M  V30 62 1 28 59
M  V30 63 1 29 60
M  V30 64 1 30 61
M  V30 END BOND
M  V30 END CTAB
M  END
>  <Dataset>  (128) 
ChEMBL_Kinases

>  <Ligand_Instance>  (128) 
nan

>  <PDB_ID>  (128) 
nan

>  <Standardized_SMILES>  (128) 
CC(C)Nc1nccc(-c2c(-c3ccc(F)cc3)nc3cc(CN(C)C(C)C)ccn23)n1

>  <Name>  (128) 
nan

>  <Pocket>  (128) 
nan

>  <ATP_Site>  (128) 
nan

>  <Peripheral>  (128) 
nan

>  <Num_H_Atoms_ProtBoundConf>  (128) 
nan

>  <Num_Resolved_Atoms>  (128) 
nan

>  <Num_Not_Resolved_Atoms>  (128) 
nan

$$$$
CHEMBL3919862
     RDKit          3D

  0  0  0  0  0  0  0  0  0  0999 V3000
M  V30 BEGIN CTAB
M  V30 COUNTS 43 46 0 0 0
M  V30 BEGIN ATOM
M  V30 1 C -0.933497 -3.065991 5.057252 0
M  V30 2 C -0.695856 -3.618443 3.701930 0
M  V30 3 C -0.363701 -2.711842 2.699387 0
M  V30 4 C -0.140607 -3.138705 1.386742 0
M  V30 5 C 0.210278 -2.080796 0.459563 0
M  V30 6 C 1.331019 -1.378136 0.838827 0
M  V30 7 C 1.757839 -0.380004 -0.004101 0
M  V30 8 N 2.847955 0.569625 0.058276 0
M  V30 9 C 2.334194 1.882246 0.354223 0
M  V30 10 N 1.789083 2.458663 -0.739286 0
M  V30 11 N 1.317739 3.673167 -0.452114 0
M  V30 12 C 0.663377 4.525665 -1.442259 0
M  V30 13 C 1.576733 3.855739 0.851562 0
M  V30 14 C 2.212892 2.755692 1.389081 0
M  V30 15 C 2.718814 2.423897 2.731502 0
M  V30 16 N 1.083674 -0.135099 -1.135055 0
M  V30 17 C -0.004317 -0.767886 -1.566156 0
M  V30 18 N -0.856540 -0.692450 -2.629843 0
M  V30 19 C -1.780944 -1.648913 -2.403354 0
M  V30 20 C -1.556707 -2.332842 -1.240887 0
M  V30 21 C -2.407677 -3.380860 -0.760762 0
M  V30 22 N -3.090300 -4.240544 -0.361722 0
M  V30 23 C -0.435270 -1.783890 -0.704457 0
M  V30 24 C -0.283636 -4.490224 1.236053 0
M  V30 25 C -0.607233 -5.422488 2.188324 0
M  V30 26 N -0.806885 -4.936578 3.422065 0
M  V30 27 H 0.067990 -2.887806 5.525311 0
M  V30 28 H -1.443199 -3.812642 5.656448 0
M  V30 29 H -1.538177 -2.135850 5.037960 0
M  V30 30 H -0.277685 -1.643159 2.965756 0
M  V30 31 H 1.982139 -1.452265 1.706646 0
M  V30 32 H 3.889817 0.554303 -0.055561 0
M  V30 33 H -0.015372 5.224810 -0.925357 0
M  V30 34 H 0.106109 3.904989 -2.183471 0
M  V30 35 H 1.439872 5.091441 -1.963705 0
M  V30 36 H 1.329085 4.735296 1.408120 0
M  V30 37 H 2.997843 3.399076 3.214564 0
M  V30 38 H 1.943613 1.939750 3.368583 0
M  V30 39 H 3.628571 1.786520 2.622025 0
M  V30 40 H -0.670663 0.020027 -3.368574 0
M  V30 41 H -2.575322 -1.785283 -3.121310 0
M  V30 42 H -0.098070 -4.803507 0.186652 0
M  V30 43 H -0.672010 -6.454085 1.879913 0
M  V30 END ATOM
M  V30 BEGIN BOND
M  V30 1 1 1 2
M  V30 2 2 2 3
M  V30 3 1 3 4
M  V30 4 1 4 5
M  V30 5 2 5 6
M  V30 6 1 6 7
M  V30 7 1 7 8
M  V30 8 1 8 9
M  V30 9 2 9 10
M  V30 10 1 10 11
M  V30 11 1 11 12
M  V30 12 1 11 13
M  V30 13 2 13 14
M  V30 14 1 14 15
M  V30 15 2 7 16
M  V30 16 1 16 17
M  V30 17 1 17 18
M  V30 18 1 18 19
M  V30 19 2 19 20
M  V30 20 1 20 21
M  V30 21 3 21 22
M  V30 22 1 20 23
M  V30 23 2 4 24
M  V30 24 1 24 25
M  V30 25 2 25 26
M  V30 26 1 26 2
M  V30 27 1 23 5
M  V30 28 1 14 9
M  V30 29 2 23 17
M  V30 30 1 1 27
M  V30 31 1 1 28
M  V30 32 1 1 29
M  V30 33 1 3 30
M  V30 34 1 6 31
M  V30 35 1 8 32
M  V30 36 1 12 33
M  V30 37 1 12 34
M  V30 38 1 12 35
M  V30 39 1 13 36
M  V30 40 1 15 37
M  V30 41 1 15 38
M  V30 42 1 15 39
M  V30 43 1 18 40
M  V30 44 1 19 41
M  V30 45 1 24 42
M  V30 46 1 25 43
M  V30 END BOND
M  V30 END CTAB
M  END
>  <Dataset>  (129) 
ChEMBL_Kinases

>  <Ligand_Instance>  (129) 
nan

>  <PDB_ID>  (129) 
nan

>  <Standardized_SMILES>  (129) 
Cc1cc(-c2cc(Nc3nn(C)cc3C)nc3[nH]cc(C#N)c23)ccn1

>  <Name>  (129) 
nan

>  <Pocket>  (129) 
nan

>  <ATP_Site>  (129) 
nan

>  <Peripheral>  (129) 
nan

>  <Num_H_Atoms_ProtBoundConf>  (129) 
nan

>  <Num_Resolved_Atoms>  (129) 
nan

>  <Num_Not_Resolved_Atoms>  (129) 
nan

$$$$
CHEMBL3928698
     RDKit          3D

  0  0  0  0  0  0  0  0  0  0999 V3000
M  V30 BEGIN CTAB
M  V30 COUNTS 41 45 0 0 0
M  V30 BEGIN ATOM
M  V30 1 N 5.943479 -4.035272 2.161322 0
M  V30 2 C 4.914250 -3.650342 2.527167 0
M  V30 3 C 3.609076 -3.143098 2.993671 0
M  V30 4 C 2.992503 -2.359224 1.875083 0
M  V30 5 C 3.194716 -1.011571 1.704026 0
M  V30 6 C 2.619730 -0.297883 0.667221 0
M  V30 7 C 1.795024 -0.958299 -0.255620 0
M  V30 8 N 1.289796 -0.130539 -1.259821 0
M  V30 9 C 2.039178 -0.001713 -2.373943 0
M  V30 10 N 1.387378 0.837970 -3.230862 0
M  V30 11 C 0.233681 1.236661 -2.660927 0
M  V30 12 C -0.753641 2.076186 -3.127956 0
M  V30 13 N -1.788257 2.258611 -2.279513 0
M  V30 14 C -1.852407 1.670373 -1.076754 0
M  V30 15 C -2.967245 1.938784 -0.299592 0
M  V30 16 C -3.011511 1.322764 0.934114 0
M  V30 17 C -2.034614 0.484647 1.410294 0
M  V30 18 C -2.153042 -0.128246 2.728971 0
M  V30 19 C -1.643813 -1.344442 3.030714 0
M  V30 20 C -1.786062 -1.854139 4.274731 0
M  V30 21 S -2.707825 -0.620037 5.242010 0
M  V30 22 C -2.822734 0.556034 3.763166 0
M  V30 23 C -0.926572 0.220687 0.632436 0
M  V30 24 C -0.872413 0.828606 -0.597072 0
M  V30 25 C 0.195525 0.618715 -1.431358 0
M  V30 26 C 1.586277 -2.334772 -0.084053 0
M  V30 27 C 2.181759 -2.991510 0.962225 0
M  V30 28 H 2.919179 -3.939723 3.287780 0
M  V30 29 H 3.770954 -2.384735 3.802928 0
M  V30 30 H 3.839287 -0.539673 2.440235 0
M  V30 31 H 2.865014 0.757236 0.654256 0
M  V30 32 H 3.004575 -0.419184 -2.689477 0
M  V30 33 H -0.740628 2.569649 -4.089746 0
M  V30 34 H -3.733366 2.591995 -0.665346 0
M  V30 35 H -3.863432 1.498110 1.585394 0
M  V30 36 H -1.108120 -1.978323 2.337920 0
M  V30 37 H -1.482834 -2.767104 4.752604 0
M  V30 38 H -3.295665 1.568175 3.667272 0
M  V30 39 H -0.197869 -0.439501 1.054577 0
M  V30 40 H 0.944106 -2.754435 -0.834414 0
M  V30 41 H 1.969400 -4.047487 1.021417 0
M  V30 END ATOM
M  V30 BEGIN BOND
M  V30 1 3 1 2
M  V30 2 1 2 3
M  V30 3 1 3 4
M  V30 4 2 4 5
M  V30 5 1 5 6
M  V30 6 2 6 7
M  V30 7 1 7 8
M  V30 8 1 8 9
M  V30 9 2 9 10
M  V30 10 1 10 11
M  V30 11 2 11 12
M  V30 12 1 12 13
M  V30 13 2 13 14
M  V30 14 1 14 15
M  V30 15 2 15 16
M  V30 16 1 16 17
M  V30 17 1 17 18
M  V30 18 1 18 19
M  V30 19 2 19 20
M  V30 20 1 20 21
M  V30 21 1 21 22
M  V30 22 2 17 23
M  V30 23 1 23 24
M  V30 24 2 24 25
M  V30 25 1 7 26
M  V30 26 2 26 27
M  V30 27 1 27 4
M  V30 28 1 25 8
M  V30 29 1 25 11
M  V30 30 1 24 14
M  V30 31 2 22 18
M  V30 32 1 3 28
M  V30 33 1 3 29
M  V30 34 1 5 30
M  V30 35 1 6 31
M  V30 36 1 9 32
M  V30 37 1 12 33
M  V30 38 1 15 34
M  V30 39 1 16 35
M  V30 40 1 19 36
M  V30 41 1 20 37
M  V30 42 1 22 38
M  V30 43 1 23 39
M  V30 44 1 26 40
M  V30 45 1 27 41
M  V30 END BOND
M  V30 END CTAB
M  END
>  <Dataset>  (130) 
ChEMBL_Kinases

>  <Ligand_Instance>  (130) 
nan

>  <PDB_ID>  (130) 
nan

>  <Standardized_SMILES>  (130) 
N#CCc1ccc(-n2cnc3cnc4ccc(-c5ccsc5)cc4c32)cc1

>  <Name>  (130) 
nan

>  <Pocket>  (130) 
nan

>  <ATP_Site>  (130) 
nan

>  <Peripheral>  (130) 
nan

>  <Num_H_Atoms_ProtBoundConf>  (130) 
nan

>  <Num_Resolved_Atoms>  (130) 
nan

>  <Num_Not_Resolved_Atoms>  (130) 
nan

$$$$
CHEMBL3702177
     RDKit          3D

  0  0  0  0  0  0  0  0  0  0999 V3000
M  V30 BEGIN CTAB
M  V30 COUNTS 66 71 0 0 0
M  V30 BEGIN ATOM
M  V30 1 C 6.247706 0.610744 4.423504 0
M  V30 2 N 5.389903 0.006357 3.464915 0
M  V30 3 C 4.840066 -1.262515 3.818574 0
M  V30 4 C 4.460083 0.898646 2.841123 0
M  V30 5 C 3.507887 1.582211 3.795602 0
M  V30 6 C 2.675246 2.544599 2.948994 0
M  V30 7 N 2.975566 2.449864 1.554750 0
M  V30 8 C 2.069051 2.089877 0.540186 0
M  V30 9 C 0.761716 1.784456 0.809611 0
M  V30 10 C -0.128185 1.429019 -0.202245 0
M  V30 11 C 0.394496 1.404496 -1.497994 0
M  V30 12 N -0.458652 1.048807 -2.577656 0
M  V30 13 C -1.805935 0.738178 -2.251437 0
M  V30 14 N -2.850654 1.591817 -2.202348 0
M  V30 15 C -4.091386 1.182499 -1.877822 0
M  V30 16 C -4.321330 -0.140939 -1.584301 0
M  V30 17 C -5.394170 -0.899322 -1.227245 0
M  V30 18 C -6.718097 -0.576463 -1.022171 0
M  V30 19 C -7.618563 -1.546421 -0.659278 0
M  V30 20 N -7.155379 -2.800040 -0.516606 0
M  V30 21 C -5.879157 -3.128626 -0.711084 0
M  V30 22 C -4.936596 -2.193686 -1.075989 0
M  V30 23 N -3.613432 -2.304486 -1.320109 0
M  V30 24 C -2.757414 -3.457864 -1.274570 0
M  V30 25 C -3.203139 -4.492958 -2.259885 0
M  V30 26 C -1.953836 -5.194438 -2.787141 0
M  V30 27 S -0.897834 -5.526081 -1.349703 0
M  V30 28 C -1.977200 -5.381033 0.126211 0
M  V30 29 C -2.614078 -4.010740 0.127785 0
M  V30 30 C -3.268623 -1.027721 -1.628762 0
M  V30 31 N -2.045105 -0.552812 -1.962189 0
M  V30 32 N 1.694909 1.710342 -1.749471 0
M  V30 33 N 2.479369 2.039035 -0.732922 0
M  V30 34 C 4.355396 2.768711 1.238792 0
M  V30 35 C 5.245476 1.989216 2.146857 0
M  V30 36 H 6.953742 1.283952 3.907504 0
M  V30 37 H 5.718868 1.132991 5.245487 0
M  V30 38 H 6.847684 -0.183675 4.912010 0
M  V30 39 H 4.229455 -1.251081 4.731157 0
M  V30 40 H 4.244290 -1.602619 2.925184 0
M  V30 41 H 5.672066 -2.001477 3.905828 0
M  V30 42 H 3.830558 0.322917 2.131930 0
M  V30 43 H 4.027451 2.081946 4.619922 0
M  V30 44 H 2.793948 0.871689 4.263448 0
M  V30 45 H 3.019371 3.573440 3.264192 0
M  V30 46 H 1.624837 2.497048 3.227535 0
M  V30 47 H 0.357196 1.800481 1.791203 0
M  V30 48 H -1.160044 1.186030 -0.002391 0
M  V30 49 H -0.108840 1.020470 -3.543866 0
M  V30 50 H -4.909325 1.869949 -1.843440 0
M  V30 51 H -7.035257 0.459428 -1.152978 0
M  V30 52 H -8.646369 -1.206964 -0.516867 0
M  V30 53 H -5.594472 -4.159755 -0.574364 0
M  V30 54 H -1.729226 -3.120901 -1.581069 0
M  V30 55 H -3.874388 -5.271132 -1.809875 0
M  V30 56 H -3.691081 -3.994306 -3.116920 0
M  V30 57 H -1.445496 -4.466995 -3.435414 0
M  V30 58 H -2.220036 -6.126538 -3.325284 0
M  V30 59 H -1.315285 -5.480602 1.000925 0
M  V30 60 H -2.706510 -6.207192 0.120025 0
M  V30 61 H -1.952287 -3.334578 0.706134 0
M  V30 62 H -3.564301 -4.049856 0.692944 0
M  V30 63 H 4.554337 2.453363 0.184908 0
M  V30 64 H 4.496307 3.870610 1.330335 0
M  V30 65 H 5.695237 2.628001 2.930107 0
M  V30 66 H 6.036249 1.458326 1.562952 0
M  V30 END ATOM
M  V30 BEGIN BOND
M  V30 1 1 1 2
M  V30 2 1 2 3
M  V30 3 1 2 4
M  V30 4 1 4 5
M  V30 5 1 5 6
M  V30 6 1 6 7
M  V30 7 1 7 8
M  V30 8 2 8 9
M  V30 9 1 9 10
M  V30 10 2 10 11
M  V30 11 1 11 12
M  V30 12 1 12 13
M  V30 13 2 13 14
M  V30 14 1 14 15
M  V30 15 2 15 16
M  V30 16 1 16 17
M  V30 17 2 17 18
M  V30 18 1 18 19
M  V30 19 2 19 20
M  V30 20 1 20 21
M  V30 21 2 21 22
M  V30 22 1 22 23
M  V30 23 1 23 24
M  V30 24 1 24 25
M  V30 25 1 25 26
M  V30 26 1 26 27
M  V30 27 1 27 28
M  V30 28 1 28 29
M  V30 29 1 23 30
M  V30 30 2 30 31
M  V30 31 1 11 32
M  V30 32 2 32 33
M  V30 33 1 7 34
M  V30 34 1 34 35
M  V30 35 1 35 4
M  V30 36 1 33 8
M  V30 37 1 31 13
M  V30 38 1 30 16
M  V30 39 1 22 17
M  V30 40 1 29 24
M  V30 41 1 1 36
M  V30 42 1 1 37
M  V30 43 1 1 38
M  V30 44 1 3 39
M  V30 45 1 3 40
M  V30 46 1 3 41
M  V30 47 1 4 42
M  V30 48 1 5 43
M  V30 49 1 5 44
M  V30 50 1 6 45
M  V30 51 1 6 46
M  V30 52 1 9 47
M  V30 53 1 10 48
M  V30 54 1 12 49
M  V30 55 1 15 50
M  V30 56 1 18 51
M  V30 57 1 19 52
M  V30 58 1 21 53
M  V30 59 1 24 54
M  V30 60 1 25 55
M  V30 61 1 25 56
M  V30 62 1 26 57
M  V30 63 1 26 58
M  V30 64 1 28 59
M  V30 65 1 28 60
M  V30 66 1 29 61
M  V30 67 1 29 62
M  V30 68 1 34 63
M  V30 69 1 34 64
M  V30 70 1 35 65
M  V30 71 1 35 66
M  V30 END BOND
M  V30 END CTAB
M  END
>  <Dataset>  (131) 
ChEMBL_Kinases

>  <Ligand_Instance>  (131) 
nan

>  <PDB_ID>  (131) 
nan

>  <Standardized_SMILES>  (131) 
CN(C)C1CCN(c2ccc(Nc3ncc4c5ccncc5n(C5CCSCC5)c4n3)nn2)CC1

>  <Name>  (131) 
nan

>  <Pocket>  (131) 
nan

>  <ATP_Site>  (131) 
nan

>  <Peripheral>  (131) 
nan

>  <Num_H_Atoms_ProtBoundConf>  (131) 
nan

>  <Num_Resolved_Atoms>  (131) 
nan

>  <Num_Not_Resolved_Atoms>  (131) 
nan

$$$$
CHEMBL3928607
     RDKit          3D

  0  0  0  0  0  0  0  0  0  0999 V3000
M  V30 BEGIN CTAB
M  V30 COUNTS 23 25 0 0 0
M  V30 BEGIN ATOM
M  V30 1 N 0.775740 -0.063841 4.191638 0
M  V30 2 C 0.888227 -0.603525 3.177123 0
M  V30 3 C 1.020951 -1.290781 1.936855 0
M  V30 4 C 1.495664 -2.588334 1.846107 0
M  V30 5 N 1.478423 -2.951132 0.537832 0
M  V30 6 C 1.007673 -1.936780 -0.244664 0
M  V30 7 N 0.788777 -1.789299 -1.555947 0
M  V30 8 C 0.287835 -0.634268 -2.058984 0
M  V30 9 C -0.003461 0.420649 -1.187033 0
M  V30 10 C 0.232663 0.240873 0.157999 0
M  V30 11 C -0.064505 1.418305 0.951073 0
M  V30 12 C -1.271105 2.049940 1.011582 0
M  V30 13 C -1.291115 3.256004 1.869822 0
M  V30 14 S 0.446723 3.355931 2.506313 0
M  V30 15 C 1.076776 1.917906 1.680004 0
M  V30 16 C 0.735506 -0.926135 0.652581 0
M  V30 17 H 1.827928 -3.221866 2.661514 0
M  V30 18 H 1.783253 -3.886768 0.152550 0
M  V30 19 H 0.161484 -0.656159 -3.137441 0
M  V30 20 H -0.395119 1.294118 -1.670200 0
M  V30 21 H -2.109615 1.664618 0.462825 0
M  V30 22 H -2.391098 3.759244 1.873117 0
M  V30 23 H 2.033041 1.648142 1.794447 0
M  V30 END ATOM
M  V30 BEGIN BOND
M  V30 1 3 1 2
M  V30 2 1 2 3
M  V30 3 2 3 4
M  V30 4 1 4 5
M  V30 5 1 5 6
M  V30 6 2 6 7
M  V30 7 1 7 8
M  V30 8 2 8 9
M  V30 9 1 9 10
M  V30 10 1 10 11
M  V30 11 1 11 12
M  V30 12 2 12 13
M  V30 13 1 13 14
M  V30 14 1 14 15
M  V30 15 2 10 16
M  V30 16 1 16 3
M  V30 17 1 16 6
M  V30 18 2 15 11
M  V30 19 1 4 17
M  V30 20 1 5 18
M  V30 21 1 8 19
M  V30 22 1 9 20
M  V30 23 1 12 21
M  V30 24 1 13 22
M  V30 25 1 15 23
M  V30 END BOND
M  V30 END CTAB
M  END
>  <Dataset>  (132) 
ChEMBL_Kinases

>  <Ligand_Instance>  (132) 
nan

>  <PDB_ID>  (132) 
nan

>  <Standardized_SMILES>  (132) 
N#Cc1c[nH]c2nccc(-c3ccsc3)c12

>  <Name>  (132) 
nan

>  <Pocket>  (132) 
nan

>  <ATP_Site>  (132) 
nan

>  <Peripheral>  (132) 
nan

>  <Num_H_Atoms_ProtBoundConf>  (132) 
nan

>  <Num_Resolved_Atoms>  (132) 
nan

>  <Num_Not_Resolved_Atoms>  (132) 
nan

$$$$
CHEMBL3928559
     RDKit          3D

  0  0  0  0  0  0  0  0  0  0999 V3000
M  V30 BEGIN CTAB
M  V30 COUNTS 51 54 0 0 0
M  V30 BEGIN ATOM
M  V30 1 C 2.128390 -4.298988 1.592203 0
M  V30 2 O 2.343615 -2.912617 1.566331 0
M  V30 3 C 2.926590 -2.245515 0.495434 0
M  V30 4 C 3.365838 -2.843571 -0.668185 0
M  V30 5 C 3.935573 -2.070333 -1.675464 0
M  V30 6 C 4.074403 -0.690671 -1.534819 0
M  V30 7 F 4.630967 0.064860 -2.518728 0
M  V30 8 C 3.622420 -0.125449 -0.353701 0
M  V30 9 C 3.047914 -0.882541 0.669329 0
M  V30 10 C 2.632171 -0.110132 1.837552 0
M  V30 11 C 3.431810 0.160437 2.940082 0
M  V30 12 C 2.931931 0.902823 3.989506 0
M  V30 13 N 1.669611 1.371920 3.958502 0
M  V30 14 C 0.843528 1.145413 2.920600 0
M  V30 15 N -0.427902 1.474987 2.616942 0
M  V30 16 C -0.799462 0.979284 1.399308 0
M  V30 17 C -2.160241 1.197925 0.789475 0
M  V30 18 C -2.102635 1.736801 -0.602937 0
M  V30 19 C -2.661062 0.893110 -1.681181 0
M  V30 20 N -3.769852 0.065341 -1.343065 0
M  V30 21 C -4.226746 0.181485 -0.004333 0
M  V30 22 C -3.131859 0.109643 1.042166 0
M  V30 23 S -2.559034 -1.516130 1.220879 0
M  V30 24 C -1.651626 -2.223217 -0.077707 0
M  V30 25 N -3.806965 -2.435676 1.511344 0
M  V30 26 O -1.714856 -1.653672 2.485943 0
M  V30 27 C 0.333886 0.319576 0.971357 0
M  V30 28 C 1.336234 0.412019 1.883068 0
M  V30 29 H 1.856844 -4.599563 2.620697 0
M  V30 30 H 2.987213 -4.884528 1.247895 0
M  V30 31 H 1.267839 -4.619530 0.938432 0
M  V30 32 H 3.236755 -3.914653 -0.730311 0
M  V30 33 H 4.268762 -2.574804 -2.574591 0
M  V30 34 H 3.744824 0.947060 -0.276292 0
M  V30 35 H 4.447258 -0.258048 2.886585 0
M  V30 36 H 3.595571 1.091093 4.835315 0
M  V30 37 H -0.981125 2.052386 3.312357 0
M  V30 38 H -2.556679 2.077355 1.404826 0
M  V30 39 H -1.012422 1.914025 -0.849228 0
M  V30 40 H -2.532942 2.778446 -0.703343 0
M  V30 41 H -1.841142 0.321306 -2.211117 0
M  V30 42 H -3.032924 1.568686 -2.505662 0
M  V30 43 H -3.843412 -0.841564 -1.802789 0
M  V30 44 H -4.704529 1.190442 0.125891 0
M  V30 45 H -4.951445 -0.621088 0.217949 0
M  V30 46 H -3.711141 0.320077 2.006010 0
M  V30 47 H -1.998157 -3.291849 -0.213374 0
M  V30 48 H -1.763929 -1.782458 -1.070449 0
M  V30 49 H -0.562207 -2.374584 0.192679 0
M  V30 50 H -4.277069 -2.445879 2.425595 0
M  V30 51 H 0.369117 -0.186151 0.017685 0
M  V30 END ATOM
M  V30 BEGIN BOND
M  V30 1 1 1 2
M  V30 2 1 2 3
M  V30 3 2 3 4
M  V30 4 1 4 5
M  V30 5 2 5 6
M  V30 6 1 6 7
M  V30 7 1 6 8
M  V30 8 2 8 9
M  V30 9 1 9 10
M  V30 10 2 10 11
M  V30 11 1 11 12
M  V30 12 2 12 13
M  V30 13 1 13 14
M  V30 14 1 14 15
M  V30 15 1 15 16
M  V30 16 1 16 17
M  V30 17 1 17 18
M  V30 18 1 18 19
M  V30 19 1 19 20
M  V30 20 1 20 21
M  V30 21 1 21 22
M  V30 22 1 22 23
M  V30 23 1 23 24
M  V30 24 2 23 25
M  V30 25 2 23 26
M  V30 26 2 16 27
M  V30 27 1 27 28
M  V30 28 1 9 3
M  V30 29 1 28 10
M  V30 30 2 28 14
M  V30 31 1 22 17
M  V30 32 1 1 29
M  V30 33 1 1 30
M  V30 34 1 1 31
M  V30 35 1 4 32
M  V30 36 1 5 33
M  V30 37 1 8 34
M  V30 38 1 11 35
M  V30 39 1 12 36
M  V30 40 1 15 37
M  V30 41 1 17 38
M  V30 42 1 18 39
M  V30 43 1 18 40
M  V30 44 1 19 41
M  V30 45 1 19 42
M  V30 46 1 20 43
M  V30 47 1 21 44
M  V30 48 1 21 45
M  V30 49 1 22 46
M  V30 50 1 24 47
M  V30 51 1 24 48
M  V30 52 1 24 49
M  V30 53 1 25 50
M  V30 54 1 27 51
M  V30 END BOND
M  V30 END CTAB
M  END
>  <Dataset>  (133) 
ChEMBL_Kinases

>  <Ligand_Instance>  (133) 
nan

>  <PDB_ID>  (133) 
nan

>  <Standardized_SMILES>  (133) 
COc1ccc(F)cc1-c1ccnc2[nH]c(C3CCNCC3S(C)(=N)=O)cc12

>  <Name>  (133) 
nan

>  <Pocket>  (133) 
nan

>  <ATP_Site>  (133) 
nan

>  <Peripheral>  (133) 
nan

>  <Num_H_Atoms_ProtBoundConf>  (133) 
nan

>  <Num_Resolved_Atoms>  (133) 
nan

>  <Num_Not_Resolved_Atoms>  (133) 
nan

$$$$
CHEMBL3928540
     RDKit          3D

  0  0  0  0  0  0  0  0  0  0999 V3000
M  V30 BEGIN CTAB
M  V30 COUNTS 54 56 0 0 0
M  V30 BEGIN ATOM
M  V30 1 C 7.743462 -5.831657 2.563472 0
M  V30 2 N 6.428674 -5.259318 2.480422 0
M  V30 3 C 6.113185 -4.032836 1.855507 0
M  V30 4 O 7.037267 -3.359589 1.316471 0
M  V30 5 C 4.724968 -3.557519 1.839448 0
M  V30 6 C 4.359438 -2.365433 1.242432 0
M  V30 7 C 3.027495 -1.922689 1.234373 0
M  V30 8 O 2.935918 -0.713147 0.578716 0
M  V30 9 C 1.735192 -0.038364 0.418270 0
M  V30 10 C 1.797231 1.283557 1.170504 0
M  V30 11 C 0.594052 2.139299 0.955607 0
M  V30 12 C -0.236197 1.558277 -0.153059 0
M  V30 13 N -1.429352 2.326058 -0.434677 0
M  V30 14 C -2.709956 1.728167 -0.276700 0
M  V30 15 O -2.830374 0.531024 0.107428 0
M  V30 16 N -3.973283 2.374389 -0.520915 0
M  V30 17 C -5.106518 1.511915 -0.273218 0
M  V30 18 C -5.680455 1.474446 1.003533 0
M  V30 19 C -6.763670 0.628768 1.178940 0
M  V30 20 C -7.270872 -0.155386 0.141944 0
M  V30 21 Cl -8.646820 -1.195905 0.461895 0
M  V30 22 C -6.684602 -0.097721 -1.106334 0
M  V30 23 C -7.281308 -0.963763 -2.163444 0
M  V30 24 F -7.156862 -2.271617 -1.676402 0
M  V30 25 F -8.611739 -0.701794 -2.372216 0
M  V30 26 F -6.559612 -0.925145 -3.329108 0
M  V30 27 C -5.605048 0.737255 -1.303764 0
M  V30 28 C 0.628615 1.365033 -1.363212 0
M  V30 29 C 1.536088 0.189633 -1.065591 0
M  V30 30 C 2.119311 -2.730691 1.845522 0
M  V30 31 C 2.492435 -3.913875 2.436237 0
M  V30 32 N 3.762924 -4.295500 2.421314 0
M  V30 33 H 8.495778 -5.036571 2.408747 0
M  V30 34 H 7.840443 -6.609885 1.789849 0
M  V30 35 H 7.948799 -6.243359 3.594031 0
M  V30 36 H 5.685125 -5.854838 2.944036 0
M  V30 37 H 5.217880 -1.838382 0.796268 0
M  V30 38 H 0.922548 -0.602698 0.877119 0
M  V30 39 H 1.845058 1.019806 2.253476 0
M  V30 40 H 2.752855 1.811275 0.959762 0
M  V30 41 H -0.084821 2.215475 1.839761 0
M  V30 42 H 0.848812 3.192627 0.677515 0
M  V30 43 H -0.606323 0.549693 0.163136 0
M  V30 44 H -1.481109 3.317728 -0.757086 0
M  V30 45 H -3.914274 3.384387 -0.846173 0
M  V30 46 H -5.299719 2.074374 1.814532 0
M  V30 47 H -7.249551 0.555790 2.140851 0
M  V30 48 H -5.171875 0.751795 -2.306980 0
M  V30 49 H 0.047672 1.211998 -2.289850 0
M  V30 50 H 1.229473 2.302131 -1.529889 0
M  V30 51 H 1.023557 -0.708605 -1.507202 0
M  V30 52 H 2.528193 0.297522 -1.530700 0
M  V30 53 H 1.128018 -2.357266 1.815120 0
M  V30 54 H 1.694835 -4.472323 2.888981 0
M  V30 END ATOM
M  V30 BEGIN BOND
M  V30 1 1 1 2
M  V30 2 1 2 3
M  V30 3 2 3 4
M  V30 4 1 3 5
M  V30 5 2 5 6
M  V30 6 1 6 7
M  V30 7 1 7 8
M  V30 8 1 8 9
M  V30 9 1 9 10
M  V30 10 1 10 11
M  V30 11 1 11 12
M  V30 12 1 12 13
M  V30 13 1 13 14
M  V30 14 2 14 15
M  V30 15 1 14 16
M  V30 16 1 16 17
M  V30 17 2 17 18
M  V30 18 1 18 19
M  V30 19 2 19 20
M  V30 20 1 20 21
M  V30 21 1 20 22
M  V30 22 1 22 23
M  V30 23 1 23 24
M  V30 24 1 23 25
M  V30 25 1 23 26
M  V30 26 2 22 27
M  V30 27 1 12 28
M  V30 28 1 28 29
M  V30 29 2 7 30
M  V30 30 1 30 31
M  V30 31 2 31 32
M  V30 32 1 32 5
M  V30 33 1 29 9
M  V30 34 1 27 17
M  V30 35 1 1 33
M  V30 36 1 1 34
M  V30 37 1 1 35
M  V30 38 1 2 36
M  V30 39 1 6 37
M  V30 40 1 9 38
M  V30 41 1 10 39
M  V30 42 1 10 40
M  V30 43 1 11 41
M  V30 44 1 11 42
M  V30 45 1 12 43
M  V30 46 1 13 44
M  V30 47 1 16 45
M  V30 48 1 18 46
M  V30 49 1 19 47
M  V30 50 1 27 48
M  V30 51 1 28 49
M  V30 52 1 28 50
M  V30 53 1 29 51
M  V30 54 1 29 52
M  V30 55 1 30 53
M  V30 56 1 31 54
M  V30 END BOND
M  V30 END CTAB
M  END
>  <Dataset>  (134) 
ChEMBL_Kinases

>  <Ligand_Instance>  (134) 
nan

>  <PDB_ID>  (134) 
nan

>  <Standardized_SMILES>  (134) 
CNC(=O)c1cc(OC2CCC(NC(=O)Nc3ccc(Cl)c(C(F)(F)F)c3)CC2)ccn1

>  <Name>  (134) 
nan

>  <Pocket>  (134) 
nan

>  <ATP_Site>  (134) 
nan

>  <Peripheral>  (134) 
nan

>  <Num_H_Atoms_ProtBoundConf>  (134) 
nan

>  <Num_Resolved_Atoms>  (134) 
nan

>  <Num_Not_Resolved_Atoms>  (134) 
nan

$$$$
CHEMBL3928490
     RDKit          3D

  0  0  0  0  0  0  0  0  0  0999 V3000
M  V30 BEGIN CTAB
M  V30 COUNTS 49 53 0 0 0
M  V30 BEGIN ATOM
M  V30 1 N 1.227249 -2.474630 -1.720025 0
M  V30 2 C 2.236468 -3.360076 -1.121825 0 CFG=1
M  V30 3 C 3.566538 -2.691601 -1.143729 0
M  V30 4 C 3.851329 -2.291148 0.274720 0
M  V30 5 N 2.566682 -2.385642 0.927930 0
M  V30 6 C 1.966129 -1.602498 1.962329 0
M  V30 7 C 1.853552 -2.269325 3.147126 0
M  V30 8 C 1.298325 -1.557209 4.214115 0
M  V30 9 N 0.897525 -0.259168 4.051422 0
M  V30 10 C 1.038878 0.335589 2.851246 0
M  V30 11 C 1.572600 -0.303626 1.771289 0
M  V30 12 N 1.740231 0.227984 0.470203 0
M  V30 13 C 1.293485 1.563533 0.148582 0
M  V30 14 N 1.827510 2.759040 -0.144118 0
M  V30 15 C 0.847190 3.651819 -0.334594 0
M  V30 16 C -0.332074 2.961834 -0.148684 0
M  V30 17 C -1.613895 3.467628 -0.234694 0
M  V30 18 C -2.705213 2.658510 -0.012953 0
M  V30 19 C -2.404845 1.326986 0.295767 0
M  V30 20 C -3.302719 0.195994 0.603741 0
M  V30 21 C -3.376380 0.102646 1.999312 0
M  V30 22 F -2.756665 0.875615 2.949830 0
M  V30 23 C -4.158965 -0.885120 2.596373 0
M  V30 24 C -4.855831 -1.763354 1.797933 0
M  V30 25 C -4.779113 -1.665509 0.404519 0
M  V30 26 C -4.002671 -0.686541 -0.174801 0
M  V30 27 F -3.804263 -0.429593 -1.477009 0
M  V30 28 N -1.134284 0.898095 0.362634 0
M  V30 29 N -0.074511 1.668672 0.151382 0
M  V30 30 C 1.828671 -3.508945 0.352010 0
M  V30 31 H 0.299300 -2.886838 -1.659200 0
M  V30 32 H 1.511339 -2.048446 -2.602679 0
M  V30 33 H 2.203206 -4.334521 -1.645516 0
M  V30 34 H 3.480792 -1.729490 -1.716641 0
M  V30 35 H 4.371818 -3.318218 -1.579614 0
M  V30 36 H 4.575289 -3.005283 0.744047 0
M  V30 37 H 4.280876 -1.269404 0.336489 0
M  V30 38 H 2.165288 -3.296970 3.294479 0
M  V30 39 H 1.198718 -2.070601 5.177727 0
M  V30 40 H 0.727204 1.363706 2.706100 0
M  V30 41 H 2.173969 -0.275872 -0.319666 0
M  V30 42 H 1.033136 4.674422 -0.575525 0
M  V30 43 H -1.900479 4.485823 -0.468189 0
M  V30 44 H -3.760297 2.823085 -0.022407 0
M  V30 45 H -4.282691 -1.043815 3.662913 0
M  V30 46 H -5.478673 -2.551470 2.215937 0
M  V30 47 H -5.290226 -2.308042 -0.296171 0
M  V30 48 H 0.732258 -3.403704 0.464078 0
M  V30 49 H 2.241140 -4.471774 0.709405 0
M  V30 END ATOM
M  V30 BEGIN BOND
M  V30 1 1 1 2
M  V30 2 1 2 3
M  V30 3 1 3 4
M  V30 4 1 4 5
M  V30 5 1 5 6
M  V30 6 2 6 7
M  V30 7 1 7 8
M  V30 8 2 8 9
M  V30 9 1 9 10
M  V30 10 2 10 11
M  V30 11 1 11 12
M  V30 12 1 12 13
M  V30 13 2 13 14
M  V30 14 1 14 15
M  V30 15 2 15 16
M  V30 16 1 16 17
M  V30 17 2 17 18
M  V30 18 1 18 19
M  V30 19 1 19 20
M  V30 20 2 20 21
M  V30 21 1 21 22
M  V30 22 1 21 23
M  V30 23 2 23 24
M  V30 24 1 24 25
M  V30 25 2 25 26
M  V30 26 1 26 27
M  V30 27 2 19 28
M  V30 28 1 28 29
M  V30 29 1 5 30
M  V30 30 1 30 2
M  V30 31 1 11 6
M  V30 32 1 29 13
M  V30 33 1 29 16
M  V30 34 1 26 20
M  V30 35 1 1 31
M  V30 36 1 1 32
M  V30 37 1 2 33 CFG=3
M  V30 38 1 3 34
M  V30 39 1 3 35
M  V30 40 1 4 36
M  V30 41 1 4 37
M  V30 42 1 7 38
M  V30 43 1 8 39
M  V30 44 1 10 40
M  V30 45 1 12 41
M  V30 46 1 15 42
M  V30 47 1 17 43
M  V30 48 1 18 44
M  V30 49 1 23 45
M  V30 50 1 24 46
M  V30 51 1 25 47
M  V30 52 1 30 48
M  V30 53 1 30 49
M  V30 END BOND
M  V30 END CTAB
M  END
>  <Dataset>  (135) 
ChEMBL_Kinases

>  <Ligand_Instance>  (135) 
nan

>  <PDB_ID>  (135) 
nan

>  <Standardized_SMILES>  (135) 
N[C@H]1CCN(c2ccncc2Nc2ncc3ccc(-c4c(F)cccc4F)nn23)C1

>  <Name>  (135) 
nan

>  <Pocket>  (135) 
nan

>  <ATP_Site>  (135) 
nan

>  <Peripheral>  (135) 
nan

>  <Num_H_Atoms_ProtBoundConf>  (135) 
nan

>  <Num_Resolved_Atoms>  (135) 
nan

>  <Num_Not_Resolved_Atoms>  (135) 
nan

$$$$
CHEMBL3702178
     RDKit          3D

  0  0  0  0  0  0  0  0  0  0999 V3000
M  V30 BEGIN CTAB
M  V30 COUNTS 67 72 0 0 0
M  V30 BEGIN ATOM
M  V30 1 C 4.731931 -1.693236 4.346126 0
M  V30 2 N 3.987829 -1.615478 3.136449 0
M  V30 3 C 2.802491 -2.446219 3.097605 0
M  V30 4 C 3.812081 -0.337779 2.556146 0
M  V30 5 C 3.157860 0.701310 3.428272 0
M  V30 6 C 3.153705 2.005516 2.653334 0
M  V30 7 N 3.483455 1.778834 1.255111 0
M  V30 8 C 2.643445 1.807338 0.125243 0
M  V30 9 C 2.912478 1.875588 -1.224218 0
M  V30 10 C 1.882440 1.845160 -2.132046 0
M  V30 11 C 0.560974 1.747407 -1.758557 0
M  V30 12 N -0.495469 1.699931 -2.740472 0
M  V30 13 C -1.801451 1.561732 -2.182574 0
M  V30 14 N -2.820408 2.401516 -1.918130 0
M  V30 15 C -3.968835 1.947502 -1.346908 0
M  V30 16 C -4.085841 0.612381 -1.037232 0
M  V30 17 C -5.123089 -0.093574 -0.462003 0
M  V30 18 C -6.370077 0.278716 -0.009620 0
M  V30 19 C -7.139669 -0.756802 0.519043 0
M  V30 20 N -6.678231 -2.033480 0.576775 0
M  V30 21 C -5.450598 -2.360805 0.124415 0
M  V30 22 C -4.644493 -1.385792 -0.408215 0
M  V30 23 N -3.405714 -1.517369 -0.904764 0
M  V30 24 C -2.571474 -2.692989 -1.012517 0
M  V30 25 C -3.156640 -3.768689 -1.860466 0
M  V30 26 C -1.997377 -4.529670 -2.520635 0
M  V30 27 S -0.932206 -5.069528 -1.150530 0
M  V30 28 C -1.813480 -4.647474 0.377556 0
M  V30 29 C -2.086824 -3.156377 0.347084 0
M  V30 30 C -3.059151 -0.252516 -1.300145 0
M  V30 31 N -1.961748 0.243745 -1.858506 0
M  V30 32 N 0.320861 1.682916 -0.425575 0
M  V30 33 C 1.297264 1.709813 0.499855 0
M  V30 34 C 4.912401 1.460813 1.237025 0
M  V30 35 C 5.152801 0.207999 2.084410 0
M  V30 36 H 4.096420 -1.788159 5.255095 0
M  V30 37 H 5.323089 -2.650374 4.295918 0
M  V30 38 H 5.451838 -0.879966 4.406292 0
M  V30 39 H 1.980656 -2.094746 3.748020 0
M  V30 40 H 2.499415 -2.484101 2.033334 0
M  V30 41 H 3.083830 -3.471203 3.405074 0
M  V30 42 H 3.128247 -0.468309 1.666772 0
M  V30 43 H 3.834563 0.819294 4.314097 0
M  V30 44 H 2.133540 0.436272 3.721831 0
M  V30 45 H 3.858271 2.737254 3.131881 0
M  V30 46 H 2.151266 2.459118 2.770230 0
M  V30 47 H 3.966164 1.948787 -1.426081 0
M  V30 48 H 2.146011 1.901319 -3.175399 0
M  V30 49 H -0.210121 1.768636 -3.736742 0
M  V30 50 H -4.723333 2.699165 -1.175566 0
M  V30 51 H -6.707603 1.306834 -0.069388 0
M  V30 52 H -8.139871 -0.539280 0.896946 0
M  V30 53 H -5.215749 -3.402604 0.230271 0
M  V30 54 H -1.627004 -2.364575 -1.543755 0
M  V30 55 H -3.797622 -3.320602 -2.626401 0
M  V30 56 H -3.736928 -4.519871 -1.262290 0
M  V30 57 H -2.386954 -5.394244 -3.097412 0
M  V30 58 H -1.441191 -3.867908 -3.176796 0
M  V30 59 H -1.158314 -4.859525 1.247581 0
M  V30 60 H -2.737982 -5.243092 0.528810 0
M  V30 61 H -1.124493 -2.667783 0.642005 0
M  V30 62 H -2.808487 -2.917804 1.152760 0
M  V30 63 H 0.816678 1.644884 1.474459 0
M  V30 64 H 5.282994 1.240576 0.235026 0
M  V30 65 H 5.448351 2.336866 1.631903 0
M  V30 66 H 5.656054 -0.595696 1.523595 0
M  V30 67 H 5.719783 0.520180 2.971373 0
M  V30 END ATOM
M  V30 BEGIN BOND
M  V30 1 1 1 2
M  V30 2 1 2 3
M  V30 3 1 2 4
M  V30 4 1 4 5
M  V30 5 1 5 6
M  V30 6 1 6 7
M  V30 7 1 7 8
M  V30 8 2 8 9
M  V30 9 1 9 10
M  V30 10 2 10 11
M  V30 11 1 11 12
M  V30 12 1 12 13
M  V30 13 2 13 14
M  V30 14 1 14 15
M  V30 15 2 15 16
M  V30 16 1 16 17
M  V30 17 2 17 18
M  V30 18 1 18 19
M  V30 19 2 19 20
M  V30 20 1 20 21
M  V30 21 2 21 22
M  V30 22 1 22 23
M  V30 23 1 23 24
M  V30 24 1 24 25
M  V30 25 1 25 26
M  V30 26 1 26 27
M  V30 27 1 27 28
M  V30 28 1 28 29
M  V30 29 1 23 30
M  V30 30 2 30 31
M  V30 31 1 11 32
M  V30 32 2 32 33
M  V30 33 1 7 34
M  V30 34 1 34 35
M  V30 35 1 35 4
M  V30 36 1 33 8
M  V30 37 1 31 13
M  V30 38 1 30 16
M  V30 39 1 22 17
M  V30 40 1 29 24
M  V30 41 1 1 36
M  V30 42 1 1 37
M  V30 43 1 1 38
M  V30 44 1 3 39
M  V30 45 1 3 40
M  V30 46 1 3 41
M  V30 47 1 4 42
M  V30 48 1 5 43
M  V30 49 1 5 44
M  V30 50 1 6 45
M  V30 51 1 6 46
M  V30 52 1 9 47
M  V30 53 1 10 48
M  V30 54 1 12 49
M  V30 55 1 15 50
M  V30 56 1 18 51
M  V30 57 1 19 52
M  V30 58 1 21 53
M  V30 59 1 24 54
M  V30 60 1 25 55
M  V30 61 1 25 56
M  V30 62 1 26 57
M  V30 63 1 26 58
M  V30 64 1 28 59
M  V30 65 1 28 60
M  V30 66 1 29 61
M  V30 67 1 29 62
M  V30 68 1 33 63
M  V30 69 1 34 64
M  V30 70 1 34 65
M  V30 71 1 35 66
M  V30 72 1 35 67
M  V30 END BOND
M  V30 END CTAB
M  END
>  <Dataset>  (136) 
ChEMBL_Kinases

>  <Ligand_Instance>  (136) 
nan

>  <PDB_ID>  (136) 
nan

>  <Standardized_SMILES>  (136) 
CN(C)C1CCN(c2ccc(Nc3ncc4c5ccncc5n(C5CCSCC5)c4n3)nc2)CC1

>  <Name>  (136) 
nan

>  <Pocket>  (136) 
nan

>  <ATP_Site>  (136) 
nan

>  <Peripheral>  (136) 
nan

>  <Num_H_Atoms_ProtBoundConf>  (136) 
nan

>  <Num_Resolved_Atoms>  (136) 
nan

>  <Num_Not_Resolved_Atoms>  (136) 
nan

$$$$
CHEMBL3928420
     RDKit          3D

  0  0  0  0  0  0  0  0  0  0999 V3000
M  V30 BEGIN CTAB
M  V30 COUNTS 51 53 0 0 0
M  V30 BEGIN ATOM
M  V30 1 C -0.243203 -5.778717 3.555873 0
M  V30 2 C 1.149766 -5.499764 4.083140 0
M  V30 3 C 1.849561 -4.542368 3.201536 0
M  V30 4 C 1.702074 -3.208747 3.498442 0
M  V30 5 C 2.298242 -2.228547 2.758518 0
M  V30 6 C 3.080703 -2.548710 1.670794 0
M  V30 7 O 3.815284 -1.898008 0.716275 0
M  V30 8 C 4.023393 -0.547724 0.514393 0
M  V30 9 C 2.780467 0.257937 0.227149 0
M  V30 10 N 2.134777 -0.252477 -0.988496 0
M  V30 11 C 0.937940 0.313851 -1.505613 0
M  V30 12 N 0.332856 1.355417 -0.900190 0
M  V30 13 C -0.802458 1.911505 -1.369298 0
M  V30 14 N -1.328234 3.020153 -0.608979 0
M  V30 15 C -2.261092 2.713932 0.442081 0
M  V30 16 C -2.889151 3.590608 1.292979 0
M  V30 17 C -3.708548 2.896154 2.159333 0
M  V30 18 C -4.597993 3.349473 3.259753 0
M  V30 19 N -3.563439 1.596950 1.817302 0
M  V30 20 N -2.713066 1.501220 0.809929 0
M  V30 21 C -1.444572 1.465184 -2.508004 0
M  V30 22 C -0.828388 0.396566 -3.133643 0
M  V30 23 C -1.469317 -0.134102 -4.367883 0
M  V30 24 C 0.331279 -0.172530 -2.655718 0
M  V30 25 C 0.945797 -1.291409 -3.340562 0
M  V30 26 N 1.442828 -2.191946 -3.872317 0
M  V30 27 C 3.216080 -3.918069 1.388081 0
M  V30 28 N 2.615889 -4.897988 2.133759 0
M  V30 29 H -0.307689 -6.774559 3.064359 0
M  V30 30 H -0.488957 -4.969836 2.838419 0
M  V30 31 H -0.963788 -5.678674 4.396130 0
M  V30 32 H 1.100545 -5.092239 5.108427 0
M  V30 33 H 1.721992 -6.463107 4.179314 0
M  V30 34 H 1.109467 -2.824523 4.332081 0
M  V30 35 H 2.282510 -1.156146 2.867017 0
M  V30 36 H 4.712064 -0.378165 -0.363944 0
M  V30 37 H 4.505301 -0.065190 1.406893 0
M  V30 38 H 3.146119 1.283271 -0.092047 0
M  V30 39 H 2.087668 0.341082 1.071870 0
M  V30 40 H 2.553593 -1.051221 -1.497057 0
M  V30 41 H -1.087662 4.019037 -0.759350 0
M  V30 42 H -2.786649 4.668831 1.316060 0
M  V30 43 H -4.215036 4.303752 3.667060 0
M  V30 44 H -5.655885 3.490455 2.903362 0
M  V30 45 H -4.633760 2.544405 4.044743 0
M  V30 46 H -4.014519 0.747204 2.232207 0
M  V30 47 H -2.353335 1.947559 -2.840697 0
M  V30 48 H -2.552623 -0.331984 -4.131206 0
M  V30 49 H -1.050398 -1.091776 -4.700518 0
M  V30 50 H -1.437336 0.600368 -5.195317 0
M  V30 51 H 3.768603 -4.453092 0.598219 0
M  V30 END ATOM
M  V30 BEGIN BOND
M  V30 1 1 1 2
M  V30 2 1 2 3
M  V30 3 2 3 4
M  V30 4 1 4 5
M  V30 5 2 5 6
M  V30 6 1 6 7
M  V30 7 1 7 8
M  V30 8 1 8 9
M  V30 9 1 9 10
M  V30 10 1 10 11
M  V30 11 2 11 12
M  V30 12 1 12 13
M  V30 13 1 13 14
M  V30 14 1 14 15
M  V30 15 1 15 16
M  V30 16 2 16 17
M  V30 17 1 17 18
M  V30 18 1 17 19
M  V30 19 1 19 20
M  V30 20 2 13 21
M  V30 21 1 21 22
M  V30 22 1 22 23
M  V30 23 2 22 24
M  V30 24 1 24 25
M  V30 25 3 25 26
M  V30 26 1 6 27
M  V30 27 2 27 28
M  V30 28 1 28 3
M  V30 29 1 24 11
M  V30 30 2 20 15
M  V30 31 1 1 29
M  V30 32 1 1 30
M  V30 33 1 1 31
M  V30 34 1 2 32
M  V30 35 1 2 33
M  V30 36 1 4 34
M  V30 37 1 5 35
M  V30 38 1 8 36
M  V30 39 1 8 37
M  V30 40 1 9 38
M  V30 41 1 9 39
M  V30 42 1 10 40
M  V30 43 1 14 41
M  V30 44 1 16 42
M  V30 45 1 18 43
M  V30 46 1 18 44
M  V30 47 1 18 45
M  V30 48 1 19 46
M  V30 49 1 21 47
M  V30 50 1 23 48
M  V30 51 1 23 49
M  V30 52 1 23 50
M  V30 53 1 27 51
M  V30 END BOND
M  V30 END CTAB
M  END
>  <Dataset>  (137) 
ChEMBL_Kinases

>  <Ligand_Instance>  (137) 
nan

>  <PDB_ID>  (137) 
nan

>  <Standardized_SMILES>  (137) 
CCc1ccc(OCCNc2nc(Nc3cc(C)[nH]n3)cc(C)c2C#N)cn1

>  <Name>  (137) 
nan

>  <Pocket>  (137) 
nan

>  <ATP_Site>  (137) 
nan

>  <Peripheral>  (137) 
nan

>  <Num_H_Atoms_ProtBoundConf>  (137) 
nan

>  <Num_Resolved_Atoms>  (137) 
nan

>  <Num_Not_Resolved_Atoms>  (137) 
nan

$$$$
CHEMBL3928256
     RDKit          3D

  0  0  0  0  0  0  0  0  0  0999 V3000
M  V30 BEGIN CTAB
M  V30 COUNTS 42 45 0 0 0
M  V30 BEGIN ATOM
M  V30 1 C 3.739987 -1.648582 3.132182 0
M  V30 2 C 2.956288 -0.372065 2.973458 0
M  V30 3 C 2.933205 0.434273 4.257151 0
M  V30 4 C 2.321388 -0.327468 5.335763 0
M  V30 5 N 1.840462 -0.944271 6.198508 0
M  V30 6 N 3.618831 0.455070 1.975795 0
M  V30 7 C 4.937295 0.646438 1.788263 0
M  V30 8 N 5.120638 1.496043 0.745057 0
M  V30 9 N 3.895508 1.816292 0.303761 0
M  V30 10 C 2.968138 1.184616 1.049991 0
M  V30 11 C 1.537914 1.345926 0.797490 0
M  V30 12 C 0.878827 2.532667 1.135599 0
M  V30 13 C -0.468819 2.727656 0.915257 0
M  V30 14 C -1.173476 1.691967 0.335270 0
M  V30 15 C -0.530525 0.516247 -0.001932 0
M  V30 16 N -1.229299 -0.591845 -0.610217 0
M  V30 17 C -2.659020 -0.549663 -0.911322 0
M  V30 18 C -2.926551 -1.867945 -1.509583 0
M  V30 19 C -4.079770 -2.430803 -1.996420 0
M  V30 20 C -4.120338 -3.719612 -2.532060 0
M  V30 21 C -2.930987 -4.452617 -2.566665 0
M  V30 22 C -1.738533 -3.916227 -2.081905 0
M  V30 23 C -1.777946 -2.633305 -1.566484 0
M  V30 24 C -0.665634 -1.858929 -1.002372 0
M  V30 25 O 0.548461 -2.132888 -0.843908 0
M  V30 26 N 0.800103 0.367950 0.233698 0
M  V30 27 H 3.713616 -2.182939 2.167262 0
M  V30 28 H 4.777885 -1.463066 3.462478 0
M  V30 29 H 3.232211 -2.294466 3.892901 0
M  V30 30 H 1.937966 -0.602484 2.651370 0
M  V30 31 H 3.951984 0.740197 4.567736 0
M  V30 32 H 2.365540 1.354398 4.108827 0
M  V30 33 H 5.740231 0.203126 2.365973 0
M  V30 34 H 1.511099 3.292899 1.586927 0
M  V30 35 H -0.938841 3.657865 1.190657 0
M  V30 36 H -2.244522 1.788935 0.136461 0
M  V30 37 H -2.820016 0.277300 -1.659528 0
M  V30 38 H -3.251546 -0.386109 -0.002258 0
M  V30 39 H -5.010315 -1.861588 -1.971092 0
M  V30 40 H -5.058049 -4.118149 -2.903741 0
M  V30 41 H -3.002275 -5.455720 -2.992418 0
M  V30 42 H -0.836220 -4.511672 -2.124219 0
M  V30 END ATOM
M  V30 BEGIN BOND
M  V30 1 1 1 2
M  V30 2 1 2 3
M  V30 3 1 3 4
M  V30 4 3 4 5
M  V30 5 1 2 6
M  V30 6 1 6 7
M  V30 7 2 7 8
M  V30 8 1 8 9
M  V30 9 2 9 10
M  V30 10 1 10 11
M  V30 11 2 11 12
M  V30 12 1 12 13
M  V30 13 2 13 14
M  V30 14 1 14 15
M  V30 15 1 15 16
M  V30 16 1 16 17
M  V30 17 1 17 18
M  V30 18 2 18 19
M  V30 19 1 19 20
M  V30 20 2 20 21
M  V30 21 1 21 22
M  V30 22 2 22 23
M  V30 23 1 23 24
M  V30 24 2 24 25
M  V30 25 2 15 26
M  V30 26 1 10 6
M  V30 27 1 26 11
M  V30 28 1 24 16
M  V30 29 1 23 18
M  V30 30 1 1 27
M  V30 31 1 1 28
M  V30 32 1 1 29
M  V30 33 1 2 30
M  V30 34 1 3 31
M  V30 35 1 3 32
M  V30 36 1 7 33
M  V30 37 1 12 34
M  V30 38 1 13 35
M  V30 39 1 14 36
M  V30 40 1 17 37
M  V30 41 1 17 38
M  V30 42 1 19 39
M  V30 43 1 20 40
M  V30 44 1 21 41
M  V30 45 1 22 42
M  V30 END BOND
M  V30 END CTAB
M  END
>  <Dataset>  (138) 
ChEMBL_Kinases

>  <Ligand_Instance>  (138) 
nan

>  <PDB_ID>  (138) 
nan

>  <Standardized_SMILES>  (138) 
CC(CC#N)n1cnnc1-c1cccc(N2Cc3ccccc3C2=O)n1

>  <Name>  (138) 
nan

>  <Pocket>  (138) 
nan

>  <ATP_Site>  (138) 
nan

>  <Peripheral>  (138) 
nan

>  <Num_H_Atoms_ProtBoundConf>  (138) 
nan

>  <Num_Resolved_Atoms>  (138) 
nan

>  <Num_Not_Resolved_Atoms>  (138) 
nan

$$$$
CHEMBL3928245
     RDKit          3D

  0  0  0  0  0  0  0  0  0  0999 V3000
M  V30 BEGIN CTAB
M  V30 COUNTS 58 62 0 0 0
M  V30 BEGIN ATOM
M  V30 1 N 7.651345 -1.669072 6.212192 0
M  V30 2 C 8.023058 -1.817795 4.858077 0
M  V30 3 O 9.216607 -2.183825 4.722201 0
M  V30 4 C 7.189994 -1.595184 3.697622 0
M  V30 5 C 7.708359 -1.770186 2.454544 0
M  V30 6 C 6.907175 -1.558244 1.363561 0
M  V30 7 C 5.578805 -1.167763 1.549558 0
M  V30 8 N 4.688068 -0.927248 0.569721 0
M  V30 9 C 3.546290 -0.581980 1.223250 0
M  V30 10 C 2.286175 -0.228897 0.572043 0
M  V30 11 C 1.180520 0.109412 1.327522 0
M  V30 12 C -0.022548 0.446931 0.741462 0
M  V30 13 C -0.161827 0.457676 -0.632977 0
M  V30 14 O -1.210753 0.744407 -1.481953 0
M  V30 15 C -2.501566 1.129759 -1.067115 0
M  V30 16 C -2.898511 2.480643 -1.542734 0
M  V30 17 C -4.327419 2.746625 -1.276383 0
M  V30 18 C -5.105665 1.707951 -0.553870 0
M  V30 19 N -4.828856 0.365943 -0.932742 0
M  V30 20 C -5.619057 -0.654878 -0.379939 0
M  V30 21 C -5.248674 -2.011747 -0.827777 0
M  V30 22 C -4.342311 -2.819011 -0.147451 0
M  V30 23 C -3.933269 -4.088057 -0.476403 0
M  V30 24 C -4.497523 -4.621441 -1.628288 0
M  V30 25 Cl -4.003866 -6.238076 -2.083966 0
M  V30 26 C -5.405127 -3.891591 -2.365083 0
M  V30 27 C -5.765866 -2.618725 -1.966869 0
M  V30 28 C -3.538563 0.089064 -1.411411 0
M  V30 29 C 0.956398 0.115249 -1.404812 0
M  V30 30 C 2.173629 -0.226099 -0.800811 0
M  V30 31 N 3.754722 -0.617014 2.553886 0
M  V30 32 C 5.038210 -0.985779 2.810697 0
M  V30 33 C 5.877917 -1.209480 3.885550 0
M  V30 34 H 7.248097 -2.630988 6.408770 0
M  V30 35 H 7.645576 -0.975751 7.016261 0
M  V30 36 H 8.759597 -2.077656 2.367487 0
M  V30 37 H 7.355283 -1.707192 0.381985 0
M  V30 38 H 4.826144 -0.987179 -0.461525 0
M  V30 39 H 1.193903 0.128830 2.406971 0
M  V30 40 H -0.942465 0.725960 1.228851 0
M  V30 41 H -2.508253 1.172808 0.054341 0
M  V30 42 H -2.253593 3.218280 -1.011458 0
M  V30 43 H -2.705127 2.601571 -2.639377 0
M  V30 44 H -4.862670 3.003879 -2.235178 0
M  V30 45 H -4.405787 3.709713 -0.688429 0
M  V30 46 H -6.187173 1.903588 -0.724332 0
M  V30 47 H -4.945432 1.807928 0.539331 0
M  V30 48 H -6.704519 -0.465442 -0.608133 0
M  V30 49 H -5.466847 -0.642401 0.740960 0
M  V30 50 H -3.909504 -2.377549 0.758533 0
M  V30 51 H -3.215782 -4.595390 0.157371 0
M  V30 52 H -5.818543 -4.349427 -3.255537 0
M  V30 53 H -6.484948 -2.062609 -2.564100 0
M  V30 54 H -3.176835 -0.883150 -1.031931 0
M  V30 55 H -3.564777 0.015184 -2.517960 0
M  V30 56 H 1.038373 0.067466 -2.498915 0
M  V30 57 H 3.060979 -0.496519 -1.352628 0
M  V30 58 H 5.403037 -1.053372 4.854605 0
M  V30 END ATOM
M  V30 BEGIN BOND
M  V30 1 1 1 2
M  V30 2 2 2 3
M  V30 3 1 2 4
M  V30 4 2 4 5
M  V30 5 1 5 6
M  V30 6 2 6 7
M  V30 7 1 7 8
M  V30 8 1 8 9
M  V30 9 1 9 10
M  V30 10 2 10 11
M  V30 11 1 11 12
M  V30 12 2 12 13
M  V30 13 1 13 14
M  V30 14 1 14 15
M  V30 15 1 15 16
M  V30 16 1 16 17
M  V30 17 1 17 18
M  V30 18 1 18 19
M  V30 19 1 19 20
M  V30 20 1 20 21
M  V30 21 2 21 22
M  V30 22 1 22 23
M  V30 23 2 23 24
M  V30 24 1 24 25
M  V30 25 1 24 26
M  V30 26 2 26 27
M  V30 27 1 19 28
M  V30 28 1 13 29
M  V30 29 2 29 30
M  V30 30 2 9 31
M  V30 31 1 31 32
M  V30 32 2 32 33
M  V30 33 1 33 4
M  V30 34 1 32 7
M  V30 35 1 30 10
M  V30 36 1 28 15
M  V30 37 1 27 21
M  V30 38 1 1 34
M  V30 39 1 1 35
M  V30 40 1 5 36
M  V30 41 1 6 37
M  V30 42 1 8 38
M  V30 43 1 11 39
M  V30 44 1 12 40
M  V30 45 1 15 41
M  V30 46 1 16 42
M  V30 47 1 16 43
M  V30 48 1 17 44
M  V30 49 1 17 45
M  V30 50 1 18 46
M  V30 51 1 18 47
M  V30 52 1 20 48
M  V30 53 1 20 49
M  V30 54 1 22 50
M  V30 55 1 23 51
M  V30 56 1 26 52
M  V30 57 1 27 53
M  V30 58 1 28 54
M  V30 59 1 28 55
M  V30 60 1 29 56
M  V30 61 1 30 57
M  V30 62 1 33 58
M  V30 END BOND
M  V30 END CTAB
M  END
>  <Dataset>  (139) 
ChEMBL_Kinases

>  <Ligand_Instance>  (139) 
nan

>  <PDB_ID>  (139) 
nan

>  <Standardized_SMILES>  (139) 
NC(=O)c1ccc2[nH]c(-c3ccc(OC4CCCN(Cc5ccc(Cl)cc5)C4)cc3)nc2c1

>  <Name>  (139) 
nan

>  <Pocket>  (139) 
nan

>  <ATP_Site>  (139) 
nan

>  <Peripheral>  (139) 
nan

>  <Num_H_Atoms_ProtBoundConf>  (139) 
nan

>  <Num_Resolved_Atoms>  (139) 
nan

>  <Num_Not_Resolved_Atoms>  (139) 
nan

$$$$
CHEMBL3923907
     RDKit          3D

  0  0  0  0  0  0  0  0  0  0999 V3000
M  V30 BEGIN CTAB
M  V30 COUNTS 47 50 0 0 0
M  V30 BEGIN ATOM
M  V30 1 C 3.203109 -1.548082 4.521172 0
M  V30 2 O 2.940705 -0.405889 3.735156 0
M  V30 3 C 3.987251 0.217479 3.074650 0
M  V30 4 C 5.312881 -0.159083 3.092734 0
M  V30 5 C 6.272369 0.518878 2.410492 0
M  V30 6 C 7.680056 0.072870 2.463676 0
M  V30 7 C 5.907292 1.618173 1.677201 0
M  V30 8 C 4.578948 2.015940 1.643974 0
M  V30 9 C 3.582051 1.326228 2.341910 0
M  V30 10 O 2.354544 1.891154 2.167350 0
M  V30 11 C 1.299541 1.205560 1.590947 0
M  V30 12 C 1.187868 -0.068591 1.076993 0
M  V30 13 C -0.012217 -0.498794 0.554303 0
M  V30 14 C -1.137409 0.298614 0.516784 0
M  V30 15 C -2.391600 -0.193200 -0.045551 0
M  V30 16 N -2.569146 -1.422624 -0.563021 0
M  V30 17 C -3.845684 -1.554389 -0.996335 0
M  V30 18 C -4.521947 -2.602805 -1.595341 0
M  V30 19 C -5.856905 -2.428988 -1.930863 0
M  V30 20 C -6.633532 -3.491046 -2.565300 0
M  V30 21 N -6.002376 -4.729777 -2.844088 0
M  V30 22 O -7.823440 -3.304812 -2.851958 0
M  V30 23 C -6.439137 -1.210782 -1.645918 0
M  V30 24 C -5.795197 -0.155560 -1.054046 0
M  V30 25 C -4.457421 -0.327350 -0.716923 0
M  V30 26 N -3.541667 0.498035 -0.130166 0
M  V30 27 C -1.038126 1.576511 1.028213 0
M  V30 28 C 0.171710 2.036098 1.564999 0
M  V30 29 Cl 0.076947 3.689443 2.159615 0
M  V30 30 H 3.401135 -2.465748 3.919518 0
M  V30 31 H 2.372726 -1.762737 5.216365 0
M  V30 32 H 4.133438 -1.410041 5.136277 0
M  V30 33 H 5.541063 -1.042148 3.694389 0
M  V30 34 H 8.372996 0.908337 2.191598 0
M  V30 35 H 7.957109 -0.238846 3.496918 0
M  V30 36 H 7.836837 -0.800900 1.815449 0
M  V30 37 H 6.689407 2.139805 1.143866 0
M  V30 38 H 4.415575 2.910028 1.021739 0
M  V30 39 H 2.110247 -0.606241 1.147461 0
M  V30 40 H -0.024743 -1.498923 0.173614 0
M  V30 41 H -4.030202 -3.543178 -1.802615 0
M  V30 42 H -5.980489 -5.732521 -2.582070 0
M  V30 43 H -5.248820 -4.982826 -3.523876 0
M  V30 44 H -7.482104 -1.105069 -1.919405 0
M  V30 45 H -6.279810 0.792646 -0.841691 0
M  V30 46 H -3.741567 1.466216 0.175265 0
M  V30 47 H -1.942179 2.164662 0.978133 0
M  V30 END ATOM
M  V30 BEGIN BOND
M  V30 1 1 1 2
M  V30 2 1 2 3
M  V30 3 2 3 4
M  V30 4 1 4 5
M  V30 5 1 5 6
M  V30 6 2 5 7
M  V30 7 1 7 8
M  V30 8 2 8 9
M  V30 9 1 9 10
M  V30 10 1 10 11
M  V30 11 2 11 12
M  V30 12 1 12 13
M  V30 13 2 13 14
M  V30 14 1 14 15
M  V30 15 2 15 16
M  V30 16 1 16 17
M  V30 17 2 17 18
M  V30 18 1 18 19
M  V30 19 1 19 20
M  V30 20 1 20 21
M  V30 21 2 20 22
M  V30 22 2 19 23
M  V30 23 1 23 24
M  V30 24 2 24 25
M  V30 25 1 25 26
M  V30 26 1 14 27
M  V30 27 2 27 28
M  V30 28 1 28 29
M  V30 29 1 9 3
M  V30 30 1 28 11
M  V30 31 1 26 15
M  V30 32 1 25 17
M  V30 33 1 1 30
M  V30 34 1 1 31
M  V30 35 1 1 32
M  V30 36 1 4 33
M  V30 37 1 6 34
M  V30 38 1 6 35
M  V30 39 1 6 36
M  V30 40 1 7 37
M  V30 41 1 8 38
M  V30 42 1 12 39
M  V30 43 1 13 40
M  V30 44 1 18 41
M  V30 45 1 21 42
M  V30 46 1 21 43
M  V30 47 1 23 44
M  V30 48 1 24 45
M  V30 49 1 26 46
M  V30 50 1 27 47
M  V30 END BOND
M  V30 END CTAB
M  END
>  <Dataset>  (140) 
ChEMBL_Kinases

>  <Ligand_Instance>  (140) 
nan

>  <PDB_ID>  (140) 
nan

>  <Standardized_SMILES>  (140) 
COc1cc(C)ccc1Oc1ccc(-c2nc3cc(C(N)=O)ccc3[nH]2)cc1Cl

>  <Name>  (140) 
nan

>  <Pocket>  (140) 
nan

>  <ATP_Site>  (140) 
nan

>  <Peripheral>  (140) 
nan

>  <Num_H_Atoms_ProtBoundConf>  (140) 
nan

>  <Num_Resolved_Atoms>  (140) 
nan

>  <Num_Not_Resolved_Atoms>  (140) 
nan

$$$$
CHEMBL3928102
     RDKit          3D

  0  0  0  0  0  0  0  0  0  0999 V3000
M  V30 BEGIN CTAB
M  V30 COUNTS 46 49 0 0 0
M  V30 BEGIN ATOM
M  V30 1 C -1.109825 -5.696003 -1.692838 0
M  V30 2 C -1.758849 -4.317089 -1.797746 0
M  V30 3 C -3.213832 -4.577654 -2.197499 0
M  V30 4 O -1.082301 -3.632898 -2.810701 0
M  V30 5 C -0.374871 -2.463010 -2.683191 0
M  V30 6 C 0.206567 -1.994638 -3.865767 0
M  V30 7 C 0.952984 -0.816355 -3.877640 0
M  V30 8 C 1.144894 -0.066565 -2.714239 0
M  V30 9 N 1.789335 1.074377 -2.401730 0
M  V30 10 N 1.631123 1.317859 -1.111656 0
M  V30 11 C 0.880831 0.345701 -0.545688 0
M  V30 12 C 0.471041 0.233881 0.857660 0
M  V30 13 C 0.874102 1.212710 1.745832 0
M  V30 14 C 0.462774 1.057413 3.042260 0
M  V30 15 N 0.847985 2.035446 4.002546 0
M  V30 16 C 1.659332 3.184323 3.647809 0
M  V30 17 C 2.270247 3.734926 4.905667 0
M  V30 18 O 2.707578 2.707892 5.714612 0
M  V30 19 C 1.657729 2.007127 6.305148 0
M  V30 20 C 0.450924 1.941677 5.398648 0
M  V30 21 N -0.290292 0.025543 3.463761 0
M  V30 22 C -0.682024 -0.933123 2.581317 0
M  V30 23 N -0.290709 -0.803306 1.301180 0
M  V30 24 C 0.563444 -0.544445 -1.556426 0
M  V30 25 C -0.175403 -1.708058 -1.537578 0
M  V30 26 H -1.607744 -6.445637 -2.349171 0
M  V30 27 H -0.023996 -5.617493 -1.869522 0
M  V30 28 H -1.248499 -6.054788 -0.656345 0
M  V30 29 H -1.702834 -3.851911 -0.813751 0
M  V30 30 H -3.869730 -3.703275 -1.944063 0
M  V30 31 H -3.287029 -4.762505 -3.287481 0
M  V30 32 H -3.613318 -5.503225 -1.700353 0
M  V30 33 H 0.094608 -2.535661 -4.814919 0
M  V30 34 H 1.398045 -0.466168 -4.804588 0
M  V30 35 H 2.300008 1.595272 -3.154423 0
M  V30 36 H 1.473896 2.026850 1.389928 0
M  V30 37 H 1.062803 3.991244 3.167201 0
M  V30 38 H 2.502868 2.871855 2.991918 0
M  V30 39 H 3.146058 4.395537 4.719967 0
M  V30 40 H 1.564253 4.351394 5.510287 0
M  V30 41 H 1.358154 2.511438 7.243206 0
M  V30 42 H 2.004339 0.979379 6.593248 0
M  V30 43 H -0.244918 2.759738 5.677568 0
M  V30 44 H -0.079213 0.991039 5.625449 0
M  V30 45 H -1.286478 -1.790723 2.843002 0
M  V30 46 H -0.645762 -2.114559 -0.652999 0
M  V30 END ATOM
M  V30 BEGIN BOND
M  V30 1 1 1 2
M  V30 2 1 2 3
M  V30 3 1 2 4
M  V30 4 1 4 5
M  V30 5 2 5 6
M  V30 6 1 6 7
M  V30 7 2 7 8
M  V30 8 1 8 9
M  V30 9 1 9 10
M  V30 10 2 10 11
M  V30 11 1 11 12
M  V30 12 2 12 13
M  V30 13 1 13 14
M  V30 14 1 14 15
M  V30 15 1 15 16
M  V30 16 1 16 17
M  V30 17 1 17 18
M  V30 18 1 18 19
M  V30 19 1 19 20
M  V30 20 2 14 21
M  V30 21 1 21 22
M  V30 22 2 22 23
M  V30 23 1 11 24
M  V30 24 2 24 25
M  V30 25 1 25 5
M  V30 26 1 24 8
M  V30 27 1 23 12
M  V30 28 1 20 15
M  V30 29 1 1 26
M  V30 30 1 1 27
M  V30 31 1 1 28
M  V30 32 1 2 29
M  V30 33 1 3 30
M  V30 34 1 3 31
M  V30 35 1 3 32
M  V30 36 1 6 33
M  V30 37 1 7 34
M  V30 38 1 9 35
M  V30 39 1 13 36
M  V30 40 1 16 37
M  V30 41 1 16 38
M  V30 42 1 17 39
M  V30 43 1 17 40
M  V30 44 1 19 41
M  V30 45 1 19 42
M  V30 46 1 20 43
M  V30 47 1 20 44
M  V30 48 1 22 45
M  V30 49 1 25 46
M  V30 END BOND
M  V30 END CTAB
M  END
>  <Dataset>  (141) 
ChEMBL_Kinases

>  <Ligand_Instance>  (141) 
nan

>  <PDB_ID>  (141) 
nan

>  <Standardized_SMILES>  (141) 
CC(C)Oc1ccc2[nH]nc(-c3cc(N4CCOCC4)ncn3)c2c1

>  <Name>  (141) 
nan

>  <Pocket>  (141) 
nan

>  <ATP_Site>  (141) 
nan

>  <Peripheral>  (141) 
nan

>  <Num_H_Atoms_ProtBoundConf>  (141) 
nan

>  <Num_Resolved_Atoms>  (141) 
nan

>  <Num_Not_Resolved_Atoms>  (141) 
nan

$$$$
CHEMBL3928098
     RDKit          3D

  0  0  0  0  0  0  0  0  0  0999 V3000
M  V30 BEGIN CTAB
M  V30 COUNTS 39 44 0 0 0
M  V30 BEGIN ATOM
M  V30 1 C -0.144534 -5.272527 2.319211 0
M  V30 2 N 1.008604 -4.690583 2.671360 0
M  V30 3 C 1.315769 -3.678721 1.864204 0
M  V30 4 C 2.354485 -2.773397 1.780663 0
M  V30 5 C 2.335453 -1.830308 0.773113 0
M  V30 6 C 1.319998 -1.720723 -0.191057 0
M  V30 7 N 1.353256 -0.744018 -1.211307 0
M  V30 8 C 1.964389 -1.073162 -2.361864 0
M  V30 9 N 1.902393 -0.020517 -3.226563 0
M  V30 10 C 1.242641 0.979895 -2.605597 0
M  V30 11 C 0.911442 2.243683 -3.027185 0
M  V30 12 N 0.235522 3.012145 -2.144086 0
M  V30 13 C -0.098292 2.565120 -0.912094 0
M  V30 14 C -0.788675 3.398449 -0.056721 0
M  V30 15 N -1.110782 2.933775 1.164152 0
M  V30 16 C -0.795678 1.699613 1.595863 0
M  V30 17 C -1.200031 1.308929 2.942990 0
M  V30 18 C -1.890949 2.139638 3.802149 0
M  V30 19 N -2.073438 1.425018 4.928481 0
M  V30 20 N -1.535433 0.223450 4.793614 0
M  V30 21 C -0.978652 0.101863 3.573722 0
M  V30 22 C -0.104651 0.837948 0.766238 0
M  V30 23 C 0.222334 1.301018 -0.464806 0
M  V30 24 C 0.909089 0.511114 -1.353282 0
M  V30 25 C 0.294627 -2.669540 -0.050626 0
M  V30 26 C 0.288802 -3.622330 0.946344 0
M  V30 27 N -0.606293 -4.600741 1.226802 0
M  V30 28 H -0.623372 -6.124805 2.815045 0
M  V30 29 H 3.169945 -2.795871 2.486039 0
M  V30 30 H 3.164255 -1.131963 0.731700 0
M  V30 31 H 2.463604 -1.963108 -2.703704 0
M  V30 32 H 1.190511 2.582664 -4.023697 0
M  V30 33 H -1.050053 4.390064 -0.383897 0
M  V30 34 H -2.227306 3.171030 3.616652 0
M  V30 35 H -1.508864 -0.562312 5.486449 0
M  V30 36 H -0.454439 -0.731246 3.117180 0
M  V30 37 H 0.100887 -0.100037 1.175853 0
M  V30 38 H -0.488284 -2.573909 -0.805710 0
M  V30 39 H -1.481314 -4.786404 0.690484 0
M  V30 END ATOM
M  V30 BEGIN BOND
M  V30 1 2 1 2
M  V30 2 1 2 3
M  V30 3 2 3 4
M  V30 4 1 4 5
M  V30 5 2 5 6
M  V30 6 1 6 7
M  V30 7 1 7 8
M  V30 8 2 8 9
M  V30 9 1 9 10
M  V30 10 2 10 11
M  V30 11 1 11 12
M  V30 12 2 12 13
M  V30 13 1 13 14
M  V30 14 2 14 15
M  V30 15 1 15 16
M  V30 16 1 16 17
M  V30 17 1 17 18
M  V30 18 2 18 19
M  V30 19 1 19 20
M  V30 20 1 20 21
M  V30 21 2 16 22
M  V30 22 1 22 23
M  V30 23 2 23 24
M  V30 24 1 6 25
M  V30 25 2 25 26
M  V30 26 1 26 27
M  V30 27 1 27 1
M  V30 28 1 26 3
M  V30 29 1 24 7
M  V30 30 1 24 10
M  V30 31 1 23 13
M  V30 32 2 21 17
M  V30 33 1 1 28
M  V30 34 1 4 29
M  V30 35 1 5 30
M  V30 36 1 8 31
M  V30 37 1 11 32
M  V30 38 1 14 33
M  V30 39 1 18 34
M  V30 40 1 20 35
M  V30 41 1 21 36
M  V30 42 1 22 37
M  V30 43 1 25 38
M  V30 44 1 27 39
M  V30 END BOND
M  V30 END CTAB
M  END
>  <Dataset>  (142) 
ChEMBL_Kinases

>  <Ligand_Instance>  (142) 
nan

>  <PDB_ID>  (142) 
nan

>  <Standardized_SMILES>  (142) 
c1nc2ccc(-n3cnc4cnc5cnc(-c6cn[nH]c6)cc5c43)cc2[nH]1

>  <Name>  (142) 
nan

>  <Pocket>  (142) 
nan

>  <ATP_Site>  (142) 
nan

>  <Peripheral>  (142) 
nan

>  <Num_H_Atoms_ProtBoundConf>  (142) 
nan

>  <Num_Resolved_Atoms>  (142) 
nan

>  <Num_Not_Resolved_Atoms>  (142) 
nan

$$$$
CHEMBL3927984
     RDKit          3D

  0  0  0  0  0  0  0  0  0  0999 V3000
M  V30 BEGIN CTAB
M  V30 COUNTS 41 44 0 0 0
M  V30 BEGIN ATOM
M  V30 1 O 0.021178 -8.099204 3.856151 0
M  V30 2 C 0.004905 -6.799885 3.357816 0
M  V30 3 C -0.579447 -5.835602 4.154673 0
M  V30 4 C -0.649535 -4.516290 3.757880 0
M  V30 5 C -0.133952 -4.100672 2.536766 0
M  V30 6 C -0.166897 -2.726524 2.040642 0
M  V30 7 C 0.888742 -2.333666 1.216534 0
M  V30 8 C 0.875529 -1.030127 0.733792 0
M  V30 9 C -0.145862 -0.165431 1.062083 0
M  V30 10 C -0.413965 1.149059 0.738368 0
M  V30 11 C 0.401391 2.015534 -0.110037 0
M  V30 12 C 0.078215 3.252635 -0.369135 0
M  V30 13 C 0.804149 4.209392 -1.194270 0
M  V30 14 C 0.335641 5.495119 -1.378353 0
M  V30 15 C 1.046021 6.378430 -2.165058 0
M  V30 16 C 2.227336 6.058511 -2.800291 0
M  V30 17 C 2.685468 4.763666 -2.606033 0
M  V30 18 C 1.981087 3.859080 -1.815147 0
M  V30 19 N -1.563446 1.524262 1.333145 0
M  V30 20 N -2.053255 0.494602 2.034892 0
M  V30 21 C -1.196988 -0.547645 1.879310 0
M  V30 22 C -1.182488 -1.843955 2.358512 0
M  V30 23 C 0.450041 -5.090469 1.751103 0
M  V30 24 C 0.518533 -6.406891 2.149970 0
M  V30 25 O 1.106476 -7.375913 1.347667 0
M  V30 26 H -0.003967 -8.847245 3.176716 0
M  V30 27 H -1.002236 -6.107417 5.128236 0
M  V30 28 H -1.112367 -3.746248 4.386334 0
M  V30 29 H 1.702951 -2.986099 0.940997 0
M  V30 30 H 1.687697 -0.715562 0.095094 0
M  V30 31 H 1.317292 1.651044 -0.558984 0
M  V30 32 H -0.851745 3.582068 0.102106 0
M  V30 33 H -0.597878 5.838751 -0.910594 0
M  V30 34 H 0.664610 7.389213 -2.301582 0
M  V30 35 H 2.784715 6.749580 -3.416849 0
M  V30 36 H 3.624040 4.521338 -3.114859 0
M  V30 37 H 2.423949 2.886130 -1.732323 0
M  V30 38 H -2.938033 0.505220 2.597537 0
M  V30 39 H -1.990272 -2.183051 3.003601 0
M  V30 40 H 0.877744 -4.849924 0.780809 0
M  V30 41 H 1.627458 -7.111865 0.507861 0
M  V30 END ATOM
M  V30 BEGIN BOND
M  V30 1 1 1 2
M  V30 2 2 2 3
M  V30 3 1 3 4
M  V30 4 2 4 5
M  V30 5 1 5 6
M  V30 6 2 6 7
M  V30 7 1 7 8
M  V30 8 2 8 9
M  V30 9 1 9 10
M  V30 10 1 10 11
M  V30 11 2 11 12
M  V30 12 1 12 13
M  V30 13 2 13 14
M  V30 14 1 14 15
M  V30 15 2 15 16
M  V30 16 1 16 17
M  V30 17 2 17 18
M  V30 18 2 10 19
M  V30 19 1 19 20
M  V30 20 1 20 21
M  V30 21 2 21 22
M  V30 22 1 5 23
M  V30 23 2 23 24
M  V30 24 1 24 25
M  V30 25 1 24 2
M  V30 26 1 22 6
M  V30 27 1 21 9
M  V30 28 1 18 13
M  V30 29 1 1 26
M  V30 30 1 3 27
M  V30 31 1 4 28
M  V30 32 1 7 29
M  V30 33 1 8 30
M  V30 34 1 11 31
M  V30 35 1 12 32
M  V30 36 1 14 33
M  V30 37 1 15 34
M  V30 38 1 16 35
M  V30 39 1 17 36
M  V30 40 1 18 37
M  V30 41 1 20 38
M  V30 42 1 22 39
M  V30 43 1 23 40
M  V30 44 1 25 41
M  V30 END BOND
M  V30 END CTAB
M  END
>  <Dataset>  (143) 
ChEMBL_Kinases

>  <Ligand_Instance>  (143) 
nan

>  <PDB_ID>  (143) 
nan

>  <Standardized_SMILES>  (143) 
Oc1ccc(-c2ccc3c(/C=C/c4ccccc4)n[nH]c3c2)cc1O

>  <Name>  (143) 
nan

>  <Pocket>  (143) 
nan

>  <ATP_Site>  (143) 
nan

>  <Peripheral>  (143) 
nan

>  <Num_H_Atoms_ProtBoundConf>  (143) 
nan

>  <Num_Resolved_Atoms>  (143) 
nan

>  <Num_Not_Resolved_Atoms>  (143) 
nan

$$$$
CHEMBL3927938
     RDKit          3D

  0  0  0  0  0  0  0  0  0  0999 V3000
M  V30 BEGIN CTAB
M  V30 COUNTS 51 54 0 0 0
M  V30 BEGIN ATOM
M  V30 1 C 3.385776 1.910648 -1.764892 0
M  V30 2 C 3.056670 2.784625 -0.578932 0
M  V30 3 N 3.613021 2.302149 0.666901 0
M  V30 4 N 4.735644 2.479620 1.370160 0
M  V30 5 C 4.751371 1.788000 2.506907 0
M  V30 6 C 3.573739 1.099835 2.582012 0
M  V30 7 C 2.992404 0.231616 3.471505 0
M  V30 8 C 1.795628 -0.261348 3.211069 0
M  V30 9 N 1.244601 0.119720 2.105189 0
M  V30 10 C 1.707080 0.948698 1.169006 0
M  V30 11 C 2.929413 1.462809 1.423467 0
M  V30 12 C 0.613361 0.822043 0.297025 0
M  V30 13 C 0.137704 1.198253 -1.030957 0
M  V30 14 C -1.310534 0.630223 -1.123005 0
M  V30 15 O -1.621992 -0.588452 -0.674189 0
M  V30 16 C -1.752255 -0.967718 0.607562 0 CFG=1
M  V30 17 O -3.237036 -1.112827 0.679840 0
M  V30 18 C -1.304914 -2.422324 0.902505 0 CFG=2
M  V30 19 C -2.251472 -3.365775 0.370612 0
M  V30 20 C -2.150869 -4.143479 -0.778467 0
M  V30 21 C -3.200988 -4.964195 -1.062547 0
M  V30 22 C -4.357482 -5.104028 -0.325680 0
M  V30 23 C -4.440174 -4.324896 0.811167 0
M  V30 24 C -3.399274 -3.456639 1.168076 0
M  V30 25 N -1.228906 -2.573186 2.416129 0
M  V30 26 C -0.216918 -1.895269 3.134288 0
M  V30 27 O -0.161531 -1.697562 2.030669 0
M  V30 28 N 0.830829 -1.185156 3.819218 0
M  V30 29 H 3.312808 0.837381 -1.416237 0
M  V30 30 H 4.471424 2.018968 -2.034850 0
M  V30 31 H 2.705414 2.043270 -2.603063 0
M  V30 32 H 3.660626 3.710205 -0.783395 0
M  V30 33 H 2.059649 3.177292 -0.505811 0
M  V30 34 H 5.464580 1.677558 3.321607 0
M  V30 35 H 3.324656 -0.163439 4.382636 0
M  V30 36 H -0.262523 1.185032 0.870510 0
M  V30 37 H 0.375638 -0.355807 0.242940 0
M  V30 38 H 0.723171 0.842183 -1.891071 0
M  V30 39 H -0.000701 2.293359 -1.107815 0
M  V30 40 H -2.016444 1.421240 -0.756684 0
M  V30 41 H -1.498034 0.624442 -2.244559 0
M  V30 42 H -1.650964 -0.295438 1.438249 0
M  V30 43 H -3.534019 -0.181066 0.522348 0
M  V30 44 H -0.318835 -2.580824 0.487756 0
M  V30 45 H -1.241484 -4.024284 -1.345976 0
M  V30 46 H -3.137826 -5.580049 -1.971343 0
M  V30 47 H -5.126328 -5.795016 -0.652879 0
M  V30 48 H -5.357028 -4.439369 1.388421 0
M  V30 49 H -3.628489 -2.938581 2.069091 0
M  V30 50 H -1.845131 -3.141180 3.082172 0
M  V30 51 H 1.034648 -1.177971 4.827978 0
M  V30 END ATOM
M  V30 BEGIN BOND
M  V30 1 1 1 2
M  V30 2 1 2 3
M  V30 3 1 3 4
M  V30 4 2 4 5
M  V30 5 1 5 6
M  V30 6 2 6 7
M  V30 7 1 7 8
M  V30 8 2 8 9
M  V30 9 1 9 10
M  V30 10 2 10 11
M  V30 11 1 10 12
M  V30 12 1 12 13
M  V30 13 1 13 14
M  V30 14 1 14 15
M  V30 15 1 15 16
M  V30 16 1 16 17
M  V30 17 1 16 18
M  V30 18 1 18 19
M  V30 19 2 19 20
M  V30 20 1 20 21
M  V30 21 2 21 22
M  V30 22 1 22 23
M  V30 23 2 23 24
M  V30 24 1 18 25
M  V30 25 1 25 26
M  V30 26 2 26 27
M  V30 27 1 26 28
M  V30 28 1 11 3
M  V30 29 1 24 19
M  V30 30 1 11 6
M  V30 31 1 28 8
M  V30 32 1 1 29
M  V30 33 1 1 30
M  V30 34 1 1 31
M  V30 35 1 2 32
M  V30 36 1 2 33
M  V30 37 1 5 34
M  V30 38 1 7 35
M  V30 39 1 12 36
M  V30 40 1 12 37
M  V30 41 1 13 38
M  V30 42 1 13 39
M  V30 43 1 14 40
M  V30 44 1 14 41
M  V30 45 1 16 42 CFG=1
M  V30 46 1 17 43
M  V30 47 1 18 44 CFG=3
M  V30 48 1 20 45
M  V30 49 1 21 46
M  V30 50 1 22 47
M  V30 51 1 23 48
M  V30 52 1 24 49
M  V30 53 1 25 50
M  V30 54 1 28 51
M  V30 END BOND
M  V30 END CTAB
M  END
>  <Dataset>  (144) 
ChEMBL_Kinases

>  <Ligand_Instance>  (144) 
nan

>  <PDB_ID>  (144) 
nan

>  <Standardized_SMILES>  (144) 
CCn1ncc2cc3nc(c21)CCCO[C@@H](O)[C@H](c1ccccc1)NC(=O)N3

>  <Name>  (144) 
nan

>  <Pocket>  (144) 
nan

>  <ATP_Site>  (144) 
nan

>  <Peripheral>  (144) 
nan

>  <Num_H_Atoms_ProtBoundConf>  (144) 
nan

>  <Num_Resolved_Atoms>  (144) 
nan

>  <Num_Not_Resolved_Atoms>  (144) 
nan

$$$$
CHEMBL3927893
     RDKit          3D

  0  0  0  0  0  0  0  0  0  0999 V3000
M  V30 BEGIN CTAB
M  V30 COUNTS 44 48 0 0 0
M  V30 BEGIN ATOM
M  V30 1 O -2.093792 -2.852214 5.088196 0
M  V30 2 C -1.024850 -2.985499 4.407130 0
M  V30 3 C 0.171947 -3.847583 4.595468 0
M  V30 4 O 1.344851 -3.087808 4.258722 0
M  V30 5 C 1.397617 -2.273826 3.137857 0
M  V30 6 C 2.576429 -1.922602 2.513374 0
M  V30 7 C 2.605525 -1.114901 1.404030 0
M  V30 8 C 1.454472 -0.613957 0.858719 0
M  V30 9 C 1.322578 0.286193 -0.337695 0
M  V30 10 O 2.355365 0.201998 -1.228060 0
M  V30 11 C 1.593284 1.641840 0.293067 0
M  V30 12 C 2.772781 2.087729 0.903164 0
M  V30 13 C 2.861236 3.356957 1.448949 0
M  V30 14 C 1.772203 4.198731 1.392769 0
M  V30 15 C 0.641990 3.716541 0.785529 0
M  V30 16 C 0.499881 2.457565 0.224073 0
M  V30 17 C -0.512332 1.671462 -0.474695 0
M  V30 18 O -1.623127 2.289332 -0.630219 0
M  V30 19 N 0.005837 0.381814 -0.815633 0
M  V30 20 C -0.794953 -0.537334 -1.517857 0
M  V30 21 C -2.099248 -0.317317 -1.904768 0
M  V30 22 C -2.908061 -1.190498 -2.594952 0
M  V30 23 Cl -4.557777 -0.826099 -3.045739 0
M  V30 24 C -2.389507 -2.416853 -2.949043 0
M  V30 25 C -1.096499 -2.707991 -2.598077 0
M  V30 26 C -0.345519 -1.781636 -1.905746 0
M  V30 27 Cl 1.258400 -2.320603 -1.555272 0
M  V30 28 C 0.246953 -0.961985 1.482134 0
M  V30 29 C 0.230863 -1.775152 2.597226 0
M  V30 30 N -0.981791 -2.149219 3.257036 0
M  V30 31 H 0.132597 -4.649089 3.827171 0
M  V30 32 H 0.270941 -4.222983 5.616034 0
M  V30 33 H 3.508602 -2.283305 2.893407 0
M  V30 34 H 3.503833 -0.842564 0.916064 0
M  V30 35 H 3.192075 0.453784 -0.799749 0
M  V30 36 H 3.682598 1.528405 1.006782 0
M  V30 37 H 3.748240 3.735623 1.925415 0
M  V30 38 H 1.805332 5.181707 1.802691 0
M  V30 39 H -0.207084 4.376420 0.742931 0
M  V30 40 H -2.612781 0.605262 -1.683417 0
M  V30 41 H -3.007509 -3.119118 -3.492006 0
M  V30 42 H -0.749332 -3.680248 -2.902605 0
M  V30 43 H -0.689688 -0.605086 1.107543 0
M  V30 44 H -1.864696 -1.756713 2.827636 0
M  V30 END ATOM
M  V30 BEGIN BOND
M  V30 1 2 1 2
M  V30 2 1 2 3
M  V30 3 1 3 4
M  V30 4 1 4 5
M  V30 5 2 5 6
M  V30 6 1 6 7
M  V30 7 2 7 8
M  V30 8 1 8 9
M  V30 9 1 9 10
M  V30 10 1 9 11
M  V30 11 2 11 12
M  V30 12 1 12 13
M  V30 13 2 13 14
M  V30 14 1 14 15
M  V30 15 2 15 16
M  V30 16 1 16 17
M  V30 17 2 17 18
M  V30 18 1 17 19
M  V30 19 1 19 20
M  V30 20 2 20 21
M  V30 21 1 21 22
M  V30 22 1 22 23
M  V30 23 2 22 24
M  V30 24 1 24 25
M  V30 25 2 25 26
M  V30 26 1 26 27
M  V30 27 1 8 28
M  V30 28 2 28 29
M  V30 29 1 29 30
M  V30 30 1 30 2
M  V30 31 1 29 5
M  V30 32 1 19 9
M  V30 33 1 26 20
M  V30 34 1 16 11
M  V30 35 1 3 31
M  V30 36 1 3 32
M  V30 37 1 6 33
M  V30 38 1 7 34
M  V30 39 1 10 35
M  V30 40 1 12 36
M  V30 41 1 13 37
M  V30 42 1 14 38
M  V30 43 1 15 39
M  V30 44 1 21 40
M  V30 45 1 24 41
M  V30 46 1 25 42
M  V30 47 1 28 43
M  V30 48 1 30 44
M  V30 END BOND
M  V30 END CTAB
M  END
>  <Dataset>  (145) 
ChEMBL_Kinases

>  <Ligand_Instance>  (145) 
nan

>  <PDB_ID>  (145) 
nan

>  <Standardized_SMILES>  (145) 
O=C1COc2ccc(C3(O)c4ccccc4C(=O)N3c3cc(Cl)ccc3Cl)cc2N1

>  <Name>  (145) 
nan

>  <Pocket>  (145) 
nan

>  <ATP_Site>  (145) 
nan

>  <Peripheral>  (145) 
nan

>  <Num_H_Atoms_ProtBoundConf>  (145) 
nan

>  <Num_Resolved_Atoms>  (145) 
nan

>  <Num_Not_Resolved_Atoms>  (145) 
nan

$$$$
CHEMBL392779
     RDKit          3D

  0  0  0  0  0  0  0  0  0  0999 V3000
M  V30 BEGIN CTAB
M  V30 COUNTS 62 66 0 0 0
M  V30 BEGIN ATOM
M  V30 1 C 4.695813 0.922843 5.233315 0
M  V30 2 C 3.788742 0.240990 4.245133 0
M  V30 3 C 2.778273 -0.606553 4.994981 0
M  V30 4 C 4.613412 -0.674842 3.388477 0
M  V30 5 C 3.010912 1.235410 3.392768 0
M  V30 6 N 2.194016 0.464091 2.501632 0
M  V30 7 C 1.364348 1.215015 1.594296 0
M  V30 8 N 1.393680 2.561428 1.628546 0
M  V30 9 C 0.630615 3.298557 0.793811 0
M  V30 10 C -0.201352 2.682595 -0.118502 0
M  V30 11 C -0.235064 1.304530 -0.157668 0
M  V30 12 C -0.999193 0.393230 -0.999177 0
M  V30 13 C -0.965568 0.170780 -2.360415 0
M  V30 14 C -0.092051 0.856521 -3.307941 0
M  V30 15 C 0.843908 -0.009052 -3.889962 0
M  V30 16 C 1.739176 0.481432 -4.807771 0
M  V30 17 C 1.754211 1.810249 -5.184771 0
M  V30 18 F 2.642832 2.301359 -6.096266 0
M  V30 19 C 0.821954 2.665128 -4.602988 0
M  V30 20 C -0.081494 2.182532 -3.680384 0
M  V30 21 N -1.887413 -0.793752 -2.650485 0
M  V30 22 C -2.493322 -1.176339 -1.502240 0
M  V30 23 C -3.483294 -2.111509 -1.273515 0
M  V30 24 C -3.953317 -2.336368 0.004530 0
M  V30 25 C -5.007514 -3.301194 0.418754 0
M  V30 26 N -4.366503 -4.548278 0.726131 0
M  V30 27 C -3.633445 -5.154473 -0.363749 0
M  V30 28 C -4.037432 -6.504492 0.189206 0
M  V30 29 C -5.173833 -5.723372 0.812528 0
M  V30 30 C -3.370101 -1.569894 1.020207 0
M  V30 31 C -2.383946 -0.641845 0.773107 0
M  V30 32 N -1.950348 -0.453005 -0.505438 0
M  V30 33 N 0.541591 0.602538 0.692068 0
M  V30 34 H 4.117416 1.489246 5.993351 0
M  V30 35 H 5.365224 1.588221 4.675043 0
M  V30 36 H 5.313585 0.126133 5.691058 0
M  V30 37 H 2.273372 -1.335445 4.331349 0
M  V30 38 H 2.006160 0.031540 5.484180 0
M  V30 39 H 3.272668 -1.170862 5.806739 0
M  V30 40 H 5.312884 -0.126517 2.724539 0
M  V30 41 H 5.244361 -1.289765 4.080201 0
M  V30 42 H 4.000256 -1.379543 2.791579 0
M  V30 43 H 2.480761 1.953611 4.016419 0
M  V30 44 H 3.733278 1.800754 2.734902 0
M  V30 45 H 2.126172 -0.574915 2.428844 0
M  V30 46 H 0.593300 4.378778 0.754432 0
M  V30 47 H -0.853912 3.128224 -0.830061 0
M  V30 48 H 0.943668 -1.058907 -3.689407 0
M  V30 49 H 2.497789 -0.135550 -5.303202 0
M  V30 50 H 0.760271 3.711609 -4.835683 0
M  V30 51 H -0.835969 2.778396 -3.187422 0
M  V30 52 H -3.935941 -2.701706 -2.039182 0
M  V30 53 H -5.516133 -2.919340 1.312778 0
M  V30 54 H -5.699647 -3.399570 -0.443102 0
M  V30 55 H -4.095153 -4.993202 -1.355104 0
M  V30 56 H -2.564782 -4.959032 -0.429106 0
M  V30 57 H -4.442065 -7.179272 -0.582403 0
M  V30 58 H -3.325244 -6.940865 0.889614 0
M  V30 59 H -5.322173 -5.980240 1.902255 0
M  V30 60 H -6.090479 -5.675732 0.213568 0
M  V30 61 H -3.689352 -1.692271 2.050958 0
M  V30 62 H -1.969794 -0.080277 1.588358 0
M  V30 END ATOM
M  V30 BEGIN BOND
M  V30 1 1 1 2
M  V30 2 1 2 3
M  V30 3 1 2 4
M  V30 4 1 2 5
M  V30 5 1 5 6
M  V30 6 1 6 7
M  V30 7 2 7 8
M  V30 8 1 8 9
M  V30 9 2 9 10
M  V30 10 1 10 11
M  V30 11 1 11 12
M  V30 12 2 12 13
M  V30 13 1 13 14
M  V30 14 2 14 15
M  V30 15 1 15 16
M  V30 16 2 16 17
M  V30 17 1 17 18
M  V30 18 1 17 19
M  V30 19 2 19 20
M  V30 20 1 13 21
M  V30 21 2 21 22
M  V30 22 1 22 23
M  V30 23 2 23 24
M  V30 24 1 24 25
M  V30 25 1 25 26
M  V30 26 1 26 27
M  V30 27 1 27 28
M  V30 28 1 28 29
M  V30 29 1 24 30
M  V30 30 2 30 31
M  V30 31 1 31 32
M  V30 32 2 11 33
M  V30 33 1 33 7
M  V30 34 1 32 12
M  V30 35 1 20 14
M  V30 36 1 32 22
M  V30 37 1 29 26
M  V30 38 1 1 34
M  V30 39 1 1 35
M  V30 40 1 1 36
M  V30 41 1 3 37
M  V30 42 1 3 38
M  V30 43 1 3 39
M  V30 44 1 4 40
M  V30 45 1 4 41
M  V30 46 1 4 42
M  V30 47 1 5 43
M  V30 48 1 5 44
M  V30 49 1 6 45
M  V30 50 1 9 46
M  V30 51 1 10 47
M  V30 52 1 15 48
M  V30 53 1 16 49
M  V30 54 1 19 50
M  V30 55 1 20 51
M  V30 56 1 23 52
M  V30 57 1 25 53
M  V30 58 1 25 54
M  V30 59 1 27 55
M  V30 60 1 27 56
M  V30 61 1 28 57
M  V30 62 1 28 58
M  V30 63 1 29 59
M  V30 64 1 29 60
M  V30 65 1 30 61
M  V30 66 1 31 62
M  V30 END BOND
M  V30 END CTAB
M  END
>  <Dataset>  (146) 
ChEMBL_Kinases

>  <Ligand_Instance>  (146) 
nan

>  <PDB_ID>  (146) 
nan

>  <Standardized_SMILES>  (146) 
CC(C)(C)CNc1nccc(-c2c(-c3ccc(F)cc3)nc3cc(CN4CCC4)ccn23)n1

>  <Name>  (146) 
nan

>  <Pocket>  (146) 
nan

>  <ATP_Site>  (146) 
nan

>  <Peripheral>  (146) 
nan

>  <Num_H_Atoms_ProtBoundConf>  (146) 
nan

>  <Num_Resolved_Atoms>  (146) 
nan

>  <Num_Not_Resolved_Atoms>  (146) 
nan

$$$$
CHEMBL392778
     RDKit          3D

  0  0  0  0  0  0  0  0  0  0999 V3000
M  V30 BEGIN CTAB
M  V30 COUNTS 64 67 0 0 0
M  V30 BEGIN ATOM
M  V30 1 C 5.477368 0.083064 -1.728697 0
M  V30 2 C 4.536560 1.251217 -1.663521 0
M  V30 3 N 4.607312 1.949165 -0.407713 0
M  V30 4 C 5.918914 2.585761 -0.364234 0
M  V30 5 C 3.592014 2.935870 -0.212027 0
M  V30 6 C 2.230634 2.350796 -0.269824 0
M  V30 7 C 1.726707 1.870374 0.940536 0
M  V30 8 C 0.469451 1.303063 1.034234 0
M  V30 9 N -0.293672 1.208155 -0.064723 0
M  V30 10 C -1.546598 0.696779 -0.221037 0
M  V30 11 C -2.424368 0.093259 0.804613 0
M  V30 12 C -3.662477 0.608378 1.195878 0
M  V30 13 C -4.382340 -0.056766 2.166287 0
M  V30 14 N -3.941162 -1.174929 2.746963 0
M  V30 15 C -2.735361 -1.663191 2.355742 0
M  V30 16 N -2.224271 -2.870061 2.960070 0
M  V30 17 C -0.939649 -3.400439 2.542936 0
M  V30 18 C -0.587782 -4.667223 3.287283 0
M  V30 19 C -1.580382 -5.763253 3.083829 0
M  V30 20 C 0.755899 -5.151575 2.743118 0
M  V30 21 C -0.336796 -4.335497 4.750556 0
M  V30 22 N -2.002818 -1.044528 1.412959 0
M  V30 23 C -1.862341 0.849823 -1.564995 0
M  V30 24 C -3.121429 0.424706 -2.133175 0
M  V30 25 C -3.981125 1.305404 -2.718874 0
M  V30 26 C -5.169860 0.849901 -3.246143 0
M  V30 27 C -5.510565 -0.481755 -3.194477 0
M  V30 28 F -6.683322 -0.882999 -3.722896 0
M  V30 29 C -4.653505 -1.399490 -2.604133 0
M  V30 30 C -3.464925 -0.917474 -2.081303 0
M  V30 31 N -0.806790 1.438252 -2.163322 0
M  V30 32 C 0.157413 1.659223 -1.244651 0
M  V30 33 C 1.415192 2.235105 -1.376915 0
M  V30 34 H 6.050342 0.105427 -2.677653 0
M  V30 35 H 4.871918 -0.859967 -1.661744 0
M  V30 36 H 6.216235 0.026786 -0.920332 0
M  V30 37 H 4.815253 1.958417 -2.470923 0
M  V30 38 H 3.479943 0.944895 -1.910480 0
M  V30 39 H 6.677411 2.009575 -0.923008 0
M  V30 40 H 5.900021 3.642176 -0.701155 0
M  V30 41 H 6.205696 2.565883 0.720111 0
M  V30 42 H 3.778841 3.491928 0.713770 0
M  V30 43 H 3.742470 3.692178 -1.037673 0
M  V30 44 H 2.299121 1.923011 1.852484 0
M  V30 45 H 0.099119 0.934584 1.994447 0
M  V30 46 H -3.978280 1.505058 0.705581 0
M  V30 47 H -5.330919 0.419631 2.403294 0
M  V30 48 H -2.793591 -3.346936 3.695323 0
M  V30 49 H -0.112423 -2.666655 2.772603 0
M  V30 50 H -0.912394 -3.612157 1.439829 0
M  V30 51 H -2.167432 -5.962878 4.002798 0
M  V30 52 H -1.116648 -6.679466 2.704036 0
M  V30 53 H -2.296979 -5.425325 2.298703 0
M  V30 54 H 0.752725 -5.046280 1.623256 0
M  V30 55 H 1.603088 -4.575876 3.129271 0
M  V30 56 H 0.799583 -6.233579 2.972848 0
M  V30 57 H 0.694689 -3.896780 4.860995 0
M  V30 58 H -1.032080 -3.549596 5.126174 0
M  V30 59 H -0.397448 -5.220088 5.393691 0
M  V30 60 H -3.736818 2.338122 -2.769709 0
M  V30 61 H -5.876228 1.545948 -3.722797 0
M  V30 62 H -4.973644 -2.423917 -2.594198 0
M  V30 63 H -2.844421 -1.689537 -1.635376 0
M  V30 64 H 1.817393 2.610920 -2.292798 0
M  V30 END ATOM
M  V30 BEGIN BOND
M  V30 1 1 1 2
M  V30 2 1 2 3
M  V30 3 1 3 4
M  V30 4 1 3 5
M  V30 5 1 5 6
M  V30 6 1 6 7
M  V30 7 2 7 8
M  V30 8 1 8 9
M  V30 9 1 9 10
M  V30 10 1 10 11
M  V30 11 2 11 12
M  V30 12 1 12 13
M  V30 13 2 13 14
M  V30 14 1 14 15
M  V30 15 1 15 16
M  V30 16 1 16 17
M  V30 17 1 17 18
M  V30 18 1 18 19
M  V30 19 1 18 20
M  V30 20 1 18 21
M  V30 21 2 15 22
M  V30 22 2 10 23
M  V30 23 1 23 24
M  V30 24 2 24 25
M  V30 25 1 25 26
M  V30 26 2 26 27
M  V30 27 1 27 28
M  V30 28 1 27 29
M  V30 29 2 29 30
M  V30 30 1 23 31
M  V30 31 2 31 32
M  V30 32 1 32 33
M  V30 33 2 33 6
M  V30 34 1 32 9
M  V30 35 1 22 11
M  V30 36 1 30 24
M  V30 37 1 1 34
M  V30 38 1 1 35
M  V30 39 1 1 36
M  V30 40 1 2 37
M  V30 41 1 2 38
M  V30 42 1 4 39
M  V30 43 1 4 40
M  V30 44 1 4 41
M  V30 45 1 5 42
M  V30 46 1 5 43
M  V30 47 1 7 44
M  V30 48 1 8 45
M  V30 49 1 12 46
M  V30 50 1 13 47
M  V30 51 1 16 48
M  V30 52 1 17 49
M  V30 53 1 17 50
M  V30 54 1 19 51
M  V30 55 1 19 52
M  V30 56 1 19 53
M  V30 57 1 20 54
M  V30 58 1 20 55
M  V30 59 1 20 56
M  V30 60 1 21 57
M  V30 61 1 21 58
M  V30 62 1 21 59
M  V30 63 1 25 60
M  V30 64 1 26 61
M  V30 65 1 29 62
M  V30 66 1 30 63
M  V30 67 1 33 64
M  V30 END BOND
M  V30 END CTAB
M  END
>  <Dataset>  (147) 
ChEMBL_Kinases

>  <Ligand_Instance>  (147) 
nan

>  <PDB_ID>  (147) 
nan

>  <Standardized_SMILES>  (147) 
CCN(C)Cc1ccn2c(-c3ccnc(NCC(C)(C)C)n3)c(-c3ccc(F)cc3)nc2c1

>  <Name>  (147) 
nan

>  <Pocket>  (147) 
nan

>  <ATP_Site>  (147) 
nan

>  <Peripheral>  (147) 
nan

>  <Num_H_Atoms_ProtBoundConf>  (147) 
nan

>  <Num_Resolved_Atoms>  (147) 
nan

>  <Num_Not_Resolved_Atoms>  (147) 
nan

$$$$
CHEMBL4876257
     RDKit          3D

  0  0  0  0  0  0  0  0  0  0999 V3000
M  V30 BEGIN CTAB
M  V30 COUNTS 31 34 0 0 0
M  V30 BEGIN ATOM
M  V30 1 C 1.971765 -5.454170 0.860144 0
M  V30 2 C 2.926693 -5.463592 1.883581 0
M  V30 3 N 3.192320 -4.331375 2.552618 0
M  V30 4 N 2.578696 -3.219211 2.269595 0
M  V30 5 N 2.651551 -1.999919 2.760919 0
M  V30 6 C 1.808360 -1.178262 2.132719 0
M  V30 7 C 1.109003 -1.880886 1.142850 0
M  V30 8 C 0.134521 -1.224551 0.317541 0
M  V30 9 C -0.653088 -1.691274 -0.688097 0
M  V30 10 C -1.564464 -0.972274 -1.424351 0
M  V30 11 N -1.683571 0.343048 -1.105961 0
M  V30 12 C -0.940721 0.843248 -0.137107 0
M  V30 13 N -1.059884 2.222730 0.203028 0
M  V30 14 C -1.879150 3.308477 -0.309765 0
M  V30 15 C -1.975332 3.733454 1.163286 0
M  V30 16 C -0.527765 3.222073 1.114832 0
M  V30 17 N -0.072754 0.075037 0.535747 0
M  V30 18 C 1.656743 -3.122602 1.311136 0
M  V30 19 C 1.354979 -4.255955 0.602867 0
M  V30 20 H 1.748246 -6.357300 0.313962 0
M  V30 21 H 3.465034 -6.360716 2.158502 0
M  V30 22 H 1.808372 -0.134778 2.486176 0
M  V30 23 H -0.587278 -2.707765 -0.962437 0
M  V30 24 H -2.147027 -1.430326 -2.206484 0
M  V30 25 H -1.231741 4.035412 -0.815177 0
M  V30 26 H -2.825110 3.019420 -0.779892 0
M  V30 27 H -2.101079 4.801731 1.315004 0
M  V30 28 H -2.601243 3.026853 1.731055 0
M  V30 29 H 0.071423 4.033800 0.607385 0
M  V30 30 H -0.111371 2.880941 2.059178 0
M  V30 31 H 0.638509 -4.285581 -0.177389 0
M  V30 END ATOM
M  V30 BEGIN BOND
M  V30 1 1 1 2
M  V30 2 2 2 3
M  V30 3 1 3 4
M  V30 4 1 4 5
M  V30 5 2 5 6
M  V30 6 1 6 7
M  V30 7 1 7 8
M  V30 8 2 8 9
M  V30 9 1 9 10
M  V30 10 2 10 11
M  V30 11 1 11 12
M  V30 12 1 12 13
M  V30 13 1 13 14
M  V30 14 1 14 15
M  V30 15 1 15 16
M  V30 16 2 12 17
M  V30 17 2 7 18
M  V30 18 1 18 19
M  V30 19 2 19 1
M  V30 20 1 18 4
M  V30 21 1 17 8
M  V30 22 1 16 13
M  V30 23 1 1 20
M  V30 24 1 2 21
M  V30 25 1 6 22
M  V30 26 1 9 23
M  V30 27 1 10 24
M  V30 28 1 14 25
M  V30 29 1 14 26
M  V30 30 1 15 27
M  V30 31 1 15 28
M  V30 32 1 16 29
M  V30 33 1 16 30
M  V30 34 1 19 31
M  V30 END BOND
M  V30 END CTAB
M  END
>  <Dataset>  (148) 
ChEMBL_Kinases

>  <Ligand_Instance>  (148) 
nan

>  <PDB_ID>  (148) 
nan

>  <Standardized_SMILES>  (148) 
c1cnn2ncc(-c3ccnc(N4CCC4)n3)c2c1

>  <Name>  (148) 
nan

>  <Pocket>  (148) 
nan

>  <ATP_Site>  (148) 
nan

>  <Peripheral>  (148) 
nan

>  <Num_H_Atoms_ProtBoundConf>  (148) 
nan

>  <Num_Resolved_Atoms>  (148) 
nan

>  <Num_Not_Resolved_Atoms>  (148) 
nan

$$$$
CHEMBL392765
     RDKit          3D

  0  0  0  0  0  0  0  0  0  0999 V3000
M  V30 BEGIN CTAB
M  V30 COUNTS 43 47 0 0 0
M  V30 BEGIN ATOM
M  V30 1 O -0.136213 2.822899 -0.137476 0
M  V30 2 C 0.912890 2.151729 0.036834 0
M  V30 3 N 2.194704 2.730819 -0.130011 0
M  V30 4 C 2.508477 4.069383 -0.495610 0
M  V30 5 C 2.667473 5.024726 0.512221 0
M  V30 6 C 2.971576 6.350653 0.279889 0
M  V30 7 C 3.128002 6.755864 -1.032813 0
M  V30 8 O 3.433034 8.099828 -1.206124 0
M  V30 9 C 2.980176 5.847081 -2.058574 0
M  V30 10 C 2.675985 4.530075 -1.785802 0
M  V30 11 C 0.753026 0.753676 0.417575 0
M  V30 12 C -0.510114 0.228264 0.569353 0
M  V30 13 C -0.705004 -1.087245 0.928140 0
M  V30 14 C 0.338710 -1.948995 1.154781 0
M  V30 15 C 0.376812 -3.273665 1.514420 0
M  V30 16 C -0.672516 -4.235213 1.783192 0
M  V30 17 N -0.366883 -5.510660 2.127411 0
M  V30 18 C -1.457920 -6.256721 2.337923 0
M  V30 19 C -1.608350 -7.586203 2.700073 0
M  V30 20 C -2.908855 -8.035872 2.831561 0
M  V30 21 C -4.017243 -7.231225 2.621026 0
M  V30 22 C -3.819057 -5.894292 2.256525 0
M  V30 23 C -2.538628 -5.431033 2.121473 0
M  V30 24 N -1.997167 -4.246253 1.795750 0
M  V30 25 N 1.713445 -3.508449 1.568642 0
M  V30 26 N 2.407310 -2.434511 1.271903 0
M  V30 27 C 1.588045 -1.405515 0.998186 0
M  V30 28 C 1.815975 -0.096011 0.640790 0
M  V30 29 H 3.066107 2.204352 0.006228 0
M  V30 30 H 2.546518 4.717191 1.551466 0
M  V30 31 H 3.077607 7.028481 1.130224 0
M  V30 32 H 2.723477 8.801356 -1.369147 0
M  V30 33 H 3.109120 6.196484 -3.075621 0
M  V30 34 H 2.553380 3.789741 -2.578686 0
M  V30 35 H -1.391539 0.867223 0.402020 0
M  V30 36 H -1.718393 -1.426273 1.027498 0
M  V30 37 H -0.738449 -8.208407 2.862795 0
M  V30 38 H -3.021764 -9.071773 3.113696 0
M  V30 39 H -5.009718 -7.601810 2.728806 0
M  V30 40 H -4.628752 -5.210648 2.076695 0
M  V30 41 H -2.585708 -3.444993 1.582350 0
M  V30 42 H 3.450419 -2.458522 1.270999 0
M  V30 43 H 2.814970 0.255083 0.538210 0
M  V30 END ATOM
M  V30 BEGIN BOND
M  V30 1 2 1 2
M  V30 2 1 2 3
M  V30 3 1 3 4
M  V30 4 2 4 5
M  V30 5 1 5 6
M  V30 6 2 6 7
M  V30 7 1 7 8
M  V30 8 1 7 9
M  V30 9 2 9 10
M  V30 10 1 2 11
M  V30 11 2 11 12
M  V30 12 1 12 13
M  V30 13 2 13 14
M  V30 14 1 14 15
M  V30 15 1 15 16
M  V30 16 2 16 17
M  V30 17 1 17 18
M  V30 18 2 18 19
M  V30 19 1 19 20
M  V30 20 2 20 21
M  V30 21 1 21 22
M  V30 22 2 22 23
M  V30 23 1 23 24
M  V30 24 2 15 25
M  V30 25 1 25 26
M  V30 26 1 26 27
M  V30 27 2 27 28
M  V30 28 1 10 4
M  V30 29 1 28 11
M  V30 30 1 27 14
M  V30 31 1 24 16
M  V30 32 1 23 18
M  V30 33 1 3 29
M  V30 34 1 5 30
M  V30 35 1 6 31
M  V30 36 1 8 32
M  V30 37 1 9 33
M  V30 38 1 10 34
M  V30 39 1 12 35
M  V30 40 1 13 36
M  V30 41 1 19 37
M  V30 42 1 20 38
M  V30 43 1 21 39
M  V30 44 1 22 40
M  V30 45 1 24 41
M  V30 46 1 26 42
M  V30 47 1 28 43
M  V30 END BOND
M  V30 END CTAB
M  END
>  <Dataset>  (149) 
ChEMBL_Kinases

>  <Ligand_Instance>  (149) 
nan

>  <PDB_ID>  (149) 
nan

>  <Standardized_SMILES>  (149) 
O=C(Nc1ccc(O)cc1)c1ccc2c(-c3nc4ccccc4[nH]3)n[nH]c2c1

>  <Name>  (149) 
nan

>  <Pocket>  (149) 
nan

>  <ATP_Site>  (149) 
nan

>  <Peripheral>  (149) 
nan

>  <Num_H_Atoms_ProtBoundConf>  (149) 
nan

>  <Num_Resolved_Atoms>  (149) 
nan

>  <Num_Not_Resolved_Atoms>  (149) 
nan

$$$$
CHEMBL3927553
     RDKit          3D

  0  0  0  0  0  0  0  0  0  0999 V3000
M  V30 BEGIN CTAB
M  V30 COUNTS 64 67 0 0 0
M  V30 BEGIN ATOM
M  V30 1 C 1.203930 1.787254 6.313547 0
M  V30 2 O 0.482005 1.045544 5.365162 0
M  V30 3 C 0.694421 1.145291 3.985562 0
M  V30 4 C 1.668139 2.025148 3.575597 0
M  V30 5 C 1.945671 2.188418 2.235716 0
M  V30 6 C 2.990029 3.137805 1.866275 0
M  V30 7 C 3.295869 4.430891 2.274384 0
M  V30 8 N 4.381366 4.818828 1.586280 0
M  V30 9 C 4.744433 3.809290 0.776804 0
M  V30 10 C 5.930751 3.980995 -0.103547 0
M  V30 11 N 3.908143 2.765470 0.928122 0
M  V30 12 C 4.090544 1.543756 0.158716 0
M  V30 13 C 1.229910 1.454229 1.315187 0
M  V30 14 C 0.270445 0.592857 1.797081 0
M  V30 15 C -0.057345 0.381348 3.118006 0
M  V30 16 N -1.048067 -0.509606 3.593634 0
M  V30 17 C -1.902814 -1.361313 2.850417 0
M  V30 18 N -2.770266 -2.121278 3.541441 0
M  V30 19 C -3.644156 -2.976139 3.000333 0
M  V30 20 C -3.671057 -3.100123 1.629763 0
M  V30 21 C -4.557470 -3.968107 1.067288 0
M  V30 22 C -4.555257 -4.065033 -0.306612 0
M  V30 23 C -5.491008 -4.988005 -0.992749 0
M  V30 24 N -3.693803 -3.310941 -1.002462 0
M  V30 25 C -2.810395 -2.448426 -0.476906 0
M  V30 26 N -1.960599 -1.697168 -1.322953 0
M  V30 27 C -1.735983 -1.592343 -2.728433 0
M  V30 28 C -1.138628 -2.771793 -3.408499 0
M  V30 29 C -0.989355 -2.407089 -4.897888 0
M  V30 30 C -1.960879 -4.028735 -3.391149 0
M  V30 31 C 0.254962 -3.058189 -2.891315 0
M  V30 32 C -2.789509 -2.328490 0.917878 0
M  V30 33 N -1.934064 -1.486770 1.515501 0
M  V30 34 H 2.272796 1.498735 6.223995 0
M  V30 35 H 1.061605 2.882418 6.225502 0
M  V30 36 H 0.888332 1.402574 7.314789 0
M  V30 37 H 2.226221 2.598216 4.303422 0
M  V30 38 H 2.695030 4.927274 3.016929 0
M  V30 39 H 6.025267 3.028652 -0.669474 0
M  V30 40 H 5.816229 4.819697 -0.821754 0
M  V30 41 H 6.822523 4.080359 0.532937 0
M  V30 42 H 3.642245 1.642229 -0.828800 0
M  V30 43 H 3.628449 0.659036 0.674730 0
M  V30 44 H 5.178811 1.320210 0.057733 0
M  V30 45 H 1.434055 1.569376 0.262243 0
M  V30 46 H -0.253384 0.048621 1.027996 0
M  V30 47 H -1.140378 -0.519981 4.646706 0
M  V30 48 H -4.321646 -3.566043 3.591523 0
M  V30 49 H -5.250351 -4.575861 1.610794 0
M  V30 50 H -5.846754 -4.495165 -1.925242 0
M  V30 51 H -5.022832 -5.968200 -1.215371 0
M  V30 52 H -6.400301 -5.168420 -0.358048 0
M  V30 53 H -1.330070 -1.050598 -0.785148 0
M  V30 54 H -2.756329 -1.429886 -3.202523 0
M  V30 55 H -1.156593 -0.682987 -3.012529 0
M  V30 56 H -0.984068 -1.293971 -5.008340 0
M  V30 57 H -0.030910 -2.799623 -5.283231 0
M  V30 58 H -1.845646 -2.782174 -5.456223 0
M  V30 59 H -3.020642 -3.812633 -3.632717 0
M  V30 60 H -1.548095 -4.663339 -4.239767 0
M  V30 61 H -1.810887 -4.659915 -2.502027 0
M  V30 62 H 0.200083 -3.635616 -1.928998 0
M  V30 63 H 0.820202 -3.722451 -3.591526 0
M  V30 64 H 0.837541 -2.123489 -2.784046 0
M  V30 END ATOM
M  V30 BEGIN BOND
M  V30 1 1 1 2
M  V30 2 1 2 3
M  V30 3 2 3 4
M  V30 4 1 4 5
M  V30 5 1 5 6
M  V30 6 2 6 7
M  V30 7 1 7 8
M  V30 8 2 8 9
M  V30 9 1 9 10
M  V30 10 1 9 11
M  V30 11 1 11 12
M  V30 12 2 5 13
M  V30 13 1 13 14
M  V30 14 2 14 15
M  V30 15 1 15 16
M  V30 16 1 16 17
M  V30 17 2 17 18
M  V30 18 1 18 19
M  V30 19 2 19 20
M  V30 20 1 20 21
M  V30 21 2 21 22
M  V30 22 1 22 23
M  V30 23 1 22 24
M  V30 24 2 24 25
M  V30 25 1 25 26
M  V30 26 1 26 27
M  V30 27 1 27 28
M  V30 28 1 28 29
M  V30 29 1 28 30
M  V30 30 1 28 31
M  V30 31 1 25 32
M  V30 32 2 32 33
M  V30 33 1 15 3
M  V30 34 1 33 17
M  V30 35 1 11 6
M  V30 36 1 32 20
M  V30 37 1 1 34
M  V30 38 1 1 35
M  V30 39 1 1 36
M  V30 40 1 4 37
M  V30 41 1 7 38
M  V30 42 1 10 39
M  V30 43 1 10 40
M  V30 44 1 10 41
M  V30 45 1 12 42
M  V30 46 1 12 43
M  V30 47 1 12 44
M  V30 48 1 13 45
M  V30 49 1 14 46
M  V30 50 1 16 47
M  V30 51 1 19 48
M  V30 52 1 21 49
M  V30 53 1 23 50
M  V30 54 1 23 51
M  V30 55 1 23 52
M  V30 56 1 26 53
M  V30 57 1 27 54
M  V30 58 1 27 55
M  V30 59 1 29 56
M  V30 60 1 29 57
M  V30 61 1 29 58
M  V30 62 1 30 59
M  V30 63 1 30 60
M  V30 64 1 30 61
M  V30 65 1 31 62
M  V30 66 1 31 63
M  V30 67 1 31 64
M  V30 END BOND
M  V30 END CTAB
M  END
>  <Dataset>  (150) 
ChEMBL_Kinases

>  <Ligand_Instance>  (150) 
nan

>  <PDB_ID>  (150) 
nan

>  <Standardized_SMILES>  (150) 
COc1cc(-c2cnc(C)n2C)ccc1Nc1ncc2cc(C)nc(NCC(C)(C)C)c2n1

>  <Name>  (150) 
nan

>  <Pocket>  (150) 
nan

>  <ATP_Site>  (150) 
nan

>  <Peripheral>  (150) 
nan

>  <Num_H_Atoms_ProtBoundConf>  (150) 
nan

>  <Num_Resolved_Atoms>  (150) 
nan

>  <Num_Not_Resolved_Atoms>  (150) 
nan

$$$$
CHEMBL3927501
     RDKit          3D

  0  0  0  0  0  0  0  0  0  0999 V3000
M  V30 BEGIN CTAB
M  V30 COUNTS 65 71 0 0 0
M  V30 BEGIN ATOM
M  V30 1 C 4.072080 1.646904 0.401128 0
M  V30 2 C 4.608845 0.521206 -0.437509 0
M  V30 3 C 5.438056 -0.488899 0.276027 0
M  V30 4 N 4.887900 -1.211256 1.338406 0
M  V30 5 C 4.648635 -0.502835 2.513218 0
M  V30 6 C 4.652176 -1.525765 3.669625 0
M  V30 7 O 3.619933 -2.386280 3.404858 0
M  V30 8 C 3.857698 -3.220470 2.322566 0
M  V30 9 C 4.589957 -2.563726 1.202346 0
M  V30 10 N 3.659761 -0.018483 -1.382551 0
M  V30 11 C 2.383182 -0.588915 -1.113744 0
M  V30 12 N 1.495901 -1.077643 -1.747827 0
M  V30 13 C 0.370127 -1.551204 -1.286964 0
M  V30 14 C -0.651937 -2.114272 -2.024726 0
M  V30 15 C -1.770337 -2.560205 -1.358758 0
M  V30 16 C -1.989808 -2.502864 0.024893 0
M  V30 17 N -3.149228 -2.981257 0.675454 0
M  V30 18 C -3.159766 -4.260847 1.094119 0
M  V30 19 N -4.330758 -4.563852 1.689404 0
M  V30 20 C -5.076295 -3.432528 1.640154 0
M  V30 21 C -6.357865 -3.122599 2.083206 0
M  V30 22 N -6.853106 -1.882059 1.891332 0
M  V30 23 C -6.101196 -0.957170 1.272836 0
M  V30 24 C -6.610366 0.307509 1.079971 0
M  V30 25 N -5.873510 1.247225 0.464057 0
M  V30 26 C -4.615169 1.036499 -0.001078 0
M  V30 27 C -3.914800 2.135963 -0.652979 0
M  V30 28 C -2.639586 2.041899 -1.163004 0
M  V30 29 C -2.024058 3.123297 -1.775239 0
M  V30 30 C -2.672038 4.339371 -1.895080 0
M  V30 31 C -3.953196 4.447098 -1.387042 0
M  V30 32 C -4.530555 3.356561 -0.788224 0
M  V30 33 C -4.096212 -0.227636 0.187059 0
M  V30 34 C -4.826436 -1.209794 0.813940 0
M  V30 35 C -4.334441 -2.456793 1.009357 0
M  V30 36 C -0.948733 -1.930128 0.770815 0
M  V30 37 C 0.160619 -1.490387 0.089181 0
M  V30 38 S 1.693519 -0.714849 0.590154 0
M  V30 39 H 3.030462 1.428791 0.783931 0
M  V30 40 H 4.041852 2.572630 -0.226271 0
M  V30 41 H 4.680556 1.845056 1.302770 0
M  V30 42 H 5.372039 1.054086 -1.123156 0
M  V30 43 H 6.389434 0.066659 0.581938 0
M  V30 44 H 5.765108 -1.252030 -0.505761 0
M  V30 45 H 3.732202 0.070693 2.586909 0
M  V30 46 H 5.548412 0.163412 2.710022 0
M  V30 47 H 5.634406 -2.021252 3.712452 0
M  V30 48 H 4.416813 -0.986675 4.611055 0
M  V30 49 H 4.382522 -4.115645 2.715743 0
M  V30 50 H 2.865414 -3.578108 1.978976 0
M  V30 51 H 4.025022 -2.715582 0.253175 0
M  V30 52 H 5.543435 -3.138398 1.033693 0
M  V30 53 H 3.846784 -0.035869 -2.409654 0
M  V30 54 H -0.650354 -2.239765 -3.115632 0
M  V30 55 H -2.591468 -3.011262 -1.938311 0
M  V30 56 H -2.424643 -5.049892 1.037291 0
M  V30 57 H -6.935177 -3.899488 2.579846 0
M  V30 58 H -7.594598 0.554206 1.417689 0
M  V30 59 H -2.095275 1.134970 -1.098317 0
M  V30 60 H -1.026457 3.003801 -2.158842 0
M  V30 61 H -2.188964 5.179253 -2.373141 0
M  V30 62 H -4.479981 5.385885 -1.468587 0
M  V30 63 H -5.534828 3.485131 -0.404753 0
M  V30 64 H -3.115899 -0.347806 -0.189912 0
M  V30 65 H -0.976872 -1.821420 1.822258 0
M  V30 END ATOM
M  V30 BEGIN BOND
M  V30 1 1 1 2
M  V30 2 1 2 3
M  V30 3 1 3 4
M  V30 4 1 4 5
M  V30 5 1 5 6
M  V30 6 1 6 7
M  V30 7 1 7 8
M  V30 8 1 8 9
M  V30 9 1 2 10
M  V30 10 1 10 11
M  V30 11 2 11 12
M  V30 12 1 12 13
M  V30 13 2 13 14
M  V30 14 1 14 15
M  V30 15 2 15 16
M  V30 16 1 16 17
M  V30 17 1 17 18
M  V30 18 2 18 19
M  V30 19 1 19 20
M  V30 20 2 20 21
M  V30 21 1 21 22
M  V30 22 2 22 23
M  V30 23 1 23 24
M  V30 24 2 24 25
M  V30 25 1 25 26
M  V30 26 1 26 27
M  V30 27 2 27 28
M  V30 28 1 28 29
M  V30 29 2 29 30
M  V30 30 1 30 31
M  V30 31 2 31 32
M  V30 32 2 26 33
M  V30 33 1 33 34
M  V30 34 2 34 35
M  V30 35 1 16 36
M  V30 36 2 36 37
M  V30 37 1 37 38
M  V30 38 1 9 4
M  V30 39 1 38 11
M  V30 40 1 37 13
M  V30 41 1 35 17
M  V30 42 1 35 20
M  V30 43 1 34 23
M  V30 44 1 32 27
M  V30 45 1 1 39
M  V30 46 1 1 40
M  V30 47 1 1 41
M  V30 48 1 2 42
M  V30 49 1 3 43
M  V30 50 1 3 44
M  V30 51 1 5 45
M  V30 52 1 5 46
M  V30 53 1 6 47
M  V30 54 1 6 48
M  V30 55 1 8 49
M  V30 56 1 8 50
M  V30 57 1 9 51
M  V30 58 1 9 52
M  V30 59 1 10 53
M  V30 60 1 14 54
M  V30 61 1 15 55
M  V30 62 1 18 56
M  V30 63 1 21 57
M  V30 64 1 24 58
M  V30 65 1 28 59
M  V30 66 1 29 60
M  V30 67 1 30 61
M  V30 68 1 31 62
M  V30 69 1 32 63
M  V30 70 1 33 64
M  V30 71 1 36 65
M  V30 END BOND
M  V30 END CTAB
M  END
>  <Dataset>  (151) 
ChEMBL_Kinases

>  <Ligand_Instance>  (151) 
nan

>  <PDB_ID>  (151) 
nan

>  <Standardized_SMILES>  (151) 
CC(CN1CCOCC1)Nc1nc2ccc(-n3cnc4cnc5cnc(-c6ccccc6)cc5c43)cc2s1

>  <Name>  (151) 
nan

>  <Pocket>  (151) 
nan

>  <ATP_Site>  (151) 
nan

>  <Peripheral>  (151) 
nan

>  <Num_H_Atoms_ProtBoundConf>  (151) 
nan

>  <Num_Resolved_Atoms>  (151) 
nan

>  <Num_Not_Resolved_Atoms>  (151) 
nan

$$$$
CHEMBL3928172
     RDKit          3D

  0  0  0  0  0  0  0  0  0  0999 V3000
M  V30 BEGIN CTAB
M  V30 COUNTS 49 50 0 0 0
M  V30 BEGIN ATOM
M  V30 1 O 3.142164 -5.802022 0.649456 0
M  V30 2 C 2.140776 -5.314722 0.068823 0
M  V30 3 C 1.334305 -4.083441 0.045559 0
M  V30 4 C 1.854622 -3.049924 1.029955 0
M  V30 5 C 3.265923 -2.653998 0.729772 0
M  V30 6 C 3.734087 -1.642353 1.729923 0
M  V30 7 C 2.948858 -0.376555 1.768836 0
M  V30 8 O 2.950298 0.303490 0.548847 0
M  V30 9 N 2.217272 1.461005 0.641688 0
M  V30 10 C 0.832046 1.451712 0.347374 0
M  V30 11 O 0.470179 0.294570 0.023527 0
M  V30 12 C -0.007531 2.638261 0.424042 0
M  V30 13 C 0.536549 3.860951 0.738453 0
M  V30 14 C -0.339195 4.946972 0.761933 0
M  V30 15 C -1.708450 4.872900 0.491381 0
M  V30 16 F -2.462162 5.994644 0.543528 0
M  V30 17 C -2.195439 3.617371 0.182531 0
M  V30 18 F -3.523908 3.569507 -0.075811 0
M  V30 19 C -1.350353 2.512660 0.150499 0
M  V30 20 N -2.030534 1.312033 -0.155651 0
M  V30 21 C -2.866446 0.425655 0.567959 0
M  V30 22 C -4.099788 0.364187 -0.097305 0
M  V30 23 C -5.151175 -0.425896 0.370851 0
M  V30 24 C -4.963577 -1.162041 1.518186 0
M  V30 25 I -6.417783 -2.410021 2.383151 0
M  V30 26 C -3.752873 -1.104075 2.174791 0
M  V30 27 C -2.718924 -0.324575 1.711160 0
M  V30 28 F -1.491134 -0.167059 2.251696 0
M  V30 29 N 1.630674 -6.272813 -0.865920 0
M  V30 30 O 2.200882 -7.508429 -1.042833 0
M  V30 31 H 1.282552 -3.620987 -0.939206 0
M  V30 32 H 0.283105 -4.321942 0.347552 0
M  V30 33 H 1.204782 -2.151693 1.040482 0
M  V30 34 H 1.830042 -3.455674 2.061907 0
M  V30 35 H 3.389241 -2.246238 -0.298516 0
M  V30 36 H 3.894893 -3.569134 0.861940 0
M  V30 37 H 4.834827 -1.473224 1.674786 0
M  V30 38 H 3.596585 -2.129769 2.740380 0
M  V30 39 H 1.902453 -0.571400 2.066807 0
M  V30 40 H 3.366137 0.270507 2.585717 0
M  V30 41 H 2.711752 2.349380 0.936162 0
M  V30 42 H 1.575346 4.020595 0.961557 0
M  V30 43 H 0.044201 5.949847 1.008045 0
M  V30 44 H -1.797504 1.125639 -1.166553 0
M  V30 45 H -4.420625 0.879829 -1.016490 0
M  V30 46 H -6.111530 -0.529217 -0.069292 0
M  V30 47 H -3.474798 -1.632861 3.086254 0
M  V30 48 H 0.802003 -6.173084 -1.507183 0
M  V30 49 H 1.500073 -8.156016 -0.745150 0
M  V30 END ATOM
M  V30 BEGIN BOND
M  V30 1 2 1 2
M  V30 2 1 2 3
M  V30 3 1 3 4
M  V30 4 1 4 5
M  V30 5 1 5 6
M  V30 6 1 6 7
M  V30 7 1 7 8
M  V30 8 1 8 9
M  V30 9 1 9 10
M  V30 10 2 10 11
M  V30 11 1 10 12
M  V30 12 2 12 13
M  V30 13 1 13 14
M  V30 14 2 14 15
M  V30 15 1 15 16
M  V30 16 1 15 17
M  V30 17 1 17 18
M  V30 18 2 17 19
M  V30 19 1 19 20
M  V30 20 1 20 21
M  V30 21 2 21 22
M  V30 22 1 22 23
M  V30 23 2 23 24
M  V30 24 1 24 25
M  V30 25 1 24 26
M  V30 26 2 26 27
M  V30 27 1 27 28
M  V30 28 1 2 29
M  V30 29 1 29 30
M  V30 30 1 19 12
M  V30 31 1 27 21
M  V30 32 1 3 31
M  V30 33 1 3 32
M  V30 34 1 4 33
M  V30 35 1 4 34
M  V30 36 1 5 35
M  V30 37 1 5 36
M  V30 38 1 6 37
M  V30 39 1 6 38
M  V30 40 1 7 39
M  V30 41 1 7 40
M  V30 42 1 9 41
M  V30 43 1 13 42
M  V30 44 1 14 43
M  V30 45 1 20 44
M  V30 46 1 22 45
M  V30 47 1 23 46
M  V30 48 1 26 47
M  V30 49 1 29 48
M  V30 50 1 30 49
M  V30 END BOND
M  V30 END CTAB
M  END
>  <Dataset>  (152) 
ChEMBL_Kinases

>  <Ligand_Instance>  (152) 
nan

>  <PDB_ID>  (152) 
nan

>  <Standardized_SMILES>  (152) 
O=C(CCCCCONC(=O)c1ccc(F)c(F)c1Nc1ccc(I)cc1F)NO

>  <Name>  (152) 
nan

>  <Pocket>  (152) 
nan

>  <ATP_Site>  (152) 
nan

>  <Peripheral>  (152) 
nan

>  <Num_H_Atoms_ProtBoundConf>  (152) 
nan

>  <Num_Resolved_Atoms>  (152) 
nan

>  <Num_Not_Resolved_Atoms>  (152) 
nan

$$$$
CHEMBL393057
     RDKit          3D

  0  0  0  0  0  0  0  0  0  0999 V3000
M  V30 BEGIN CTAB
M  V30 COUNTS 41 44 0 0 0
M  V30 BEGIN ATOM
M  V30 1 C 0.447764 -4.049706 0.408102 0
M  V30 2 C 1.668662 -3.438569 1.032050 0
M  V30 3 C 2.719819 -4.440487 1.421328 0
M  V30 4 N 3.489888 -4.935627 0.286136 0
M  V30 5 C 4.077102 -3.899298 -0.523476 0
M  V30 6 O 5.120808 -4.074470 -1.206677 0
M  V30 7 C 3.438329 -2.585737 -0.557344 0
M  V30 8 N 3.769797 -1.456649 -1.218319 0
M  V30 9 C 2.859360 -0.482278 -0.930250 0
M  V30 10 C 2.694820 0.835728 -1.306180 0
M  V30 11 C 1.600462 1.536369 -0.783606 0
M  V30 12 C 0.680200 0.984737 0.083407 0
M  V30 13 C -0.421027 1.811220 0.563690 0
M  V30 14 O -0.445719 2.995008 0.137710 0
M  V30 15 N -1.400535 1.300629 1.457798 0
M  V30 16 C -2.511557 2.017564 1.986151 0
M  V30 17 C -3.726486 2.009778 1.296721 0
M  V30 18 C -4.759101 2.724845 1.865743 0
M  V30 19 C -4.676462 3.431687 3.043035 0
M  V30 20 C -3.448608 3.396622 3.671089 0
M  V30 21 C -2.356652 2.703748 3.170649 0
M  V30 22 C 0.889757 -0.334181 0.427383 0
M  V30 23 C 1.955306 -1.058069 -0.065809 0
M  V30 24 C 2.290581 -2.376957 0.187916 0
M  V30 25 H -0.412305 -4.041292 1.095523 0
M  V30 26 H 0.123866 -3.444504 -0.478018 0
M  V30 27 H 0.615830 -5.075767 0.017803 0
M  V30 28 H 1.348934 -2.940929 1.978545 0
M  V30 29 H 2.258832 -5.246110 2.018458 0
M  V30 30 H 3.425225 -3.926483 2.117840 0
M  V30 31 H 3.684786 -5.922363 -0.035306 0
M  V30 32 H 4.583932 -1.314957 -1.855566 0
M  V30 33 H 3.400752 1.288057 -1.982195 0
M  V30 34 H 1.554123 2.572679 -1.138771 0
M  V30 35 H -1.370361 0.318743 1.804180 0
M  V30 36 H -3.843531 1.466861 0.362619 0
M  V30 37 H -5.721800 2.730852 1.338925 0
M  V30 38 H -5.519382 3.980167 3.451137 0
M  V30 39 H -3.306791 3.935630 4.612755 0
M  V30 40 H -1.412467 2.702806 3.695239 0
M  V30 41 H 0.186682 -0.795349 1.104665 0
M  V30 END ATOM
M  V30 BEGIN BOND
M  V30 1 1 1 2
M  V30 2 1 2 3
M  V30 3 1 3 4
M  V30 4 1 4 5
M  V30 5 2 5 6
M  V30 6 1 5 7
M  V30 7 1 7 8
M  V30 8 1 8 9
M  V30 9 2 9 10
M  V30 10 1 10 11
M  V30 11 2 11 12
M  V30 12 1 12 13
M  V30 13 2 13 14
M  V30 14 1 13 15
M  V30 15 1 15 16
M  V30 16 2 16 17
M  V30 17 1 17 18
M  V30 18 2 18 19
M  V30 19 1 19 20
M  V30 20 2 20 21
M  V30 21 1 12 22
M  V30 22 2 22 23
M  V30 23 1 23 24
M  V30 24 1 24 2
M  V30 25 2 24 7
M  V30 26 1 23 9
M  V30 27 1 21 16
M  V30 28 1 1 25
M  V30 29 1 1 26
M  V30 30 1 1 27
M  V30 31 1 2 28
M  V30 32 1 3 29
M  V30 33 1 3 30
M  V30 34 1 4 31
M  V30 35 1 8 32
M  V30 36 1 10 33
M  V30 37 1 11 34
M  V30 38 1 15 35
M  V30 39 1 17 36
M  V30 40 1 18 37
M  V30 41 1 19 38
M  V30 42 1 20 39
M  V30 43 1 21 40
M  V30 44 1 22 41
M  V30 END BOND
M  V30 END CTAB
M  END
>  <Dataset>  (153) 
ChEMBL_Kinases

>  <Ligand_Instance>  (153) 
nan

>  <PDB_ID>  (153) 
nan

>  <Standardized_SMILES>  (153) 
CC1CNC(=O)c2[nH]c3ccc(C(=O)Nc4ccccc4)cc3c21

>  <Name>  (153) 
nan

>  <Pocket>  (153) 
nan

>  <ATP_Site>  (153) 
nan

>  <Peripheral>  (153) 
nan

>  <Num_H_Atoms_ProtBoundConf>  (153) 
nan

>  <Num_Resolved_Atoms>  (153) 
nan

>  <Num_Not_Resolved_Atoms>  (153) 
nan

$$$$
CHEMBL393056
     RDKit          3D

  0  0  0  0  0  0  0  0  0  0999 V3000
M  V30 BEGIN CTAB
M  V30 COUNTS 34 36 0 0 0
M  V30 BEGIN ATOM
M  V30 1 C 0.628049 -3.514527 4.925080 0
M  V30 2 N 0.621211 -2.749042 3.719474 0
M  V30 3 C 1.655944 -2.768973 2.743419 0
M  V30 4 O 2.662985 -3.501420 2.922717 0
M  V30 5 C 1.619755 -1.972467 1.517259 0
M  V30 6 C 2.690650 -2.086037 0.654700 0
M  V30 7 C 2.714659 -1.349089 -0.535801 0
M  V30 8 C 1.635534 -0.507323 -0.818503 0
M  V30 9 N 1.386201 0.315606 -1.879157 0
M  V30 10 C 0.202261 0.931363 -1.701930 0
M  V30 11 C -0.355677 0.520258 -0.507708 0
M  V30 12 C 0.544654 -0.376033 0.035442 0
M  V30 13 C 0.577250 -1.127104 1.193212 0
M  V30 14 C -1.664336 0.995230 0.013949 0
M  V30 15 C -2.774170 0.013686 -0.291521 0
M  V30 16 C -2.049592 2.319733 -0.558920 0
M  V30 17 N -1.811587 2.350439 -1.989490 0
M  V30 18 C -0.546691 1.904989 -2.515090 0
M  V30 19 O -0.074736 2.307486 -3.611975 0
M  V30 20 H -0.400868 -3.921107 5.090138 0
M  V30 21 H 0.845618 -2.927113 5.836935 0
M  V30 22 H 1.325636 -4.376891 4.933086 0
M  V30 23 H -0.214774 -2.141814 3.571962 0
M  V30 24 H 3.543801 -2.725118 0.836376 0
M  V30 25 H 3.515119 -1.383157 -1.261027 0
M  V30 26 H 1.962275 0.486228 -2.710154 0
M  V30 27 H -0.261887 -1.034251 1.862944 0
M  V30 28 H -1.542881 1.143770 1.116590 0
M  V30 29 H -3.167003 -0.369297 0.693872 0
M  V30 30 H -2.426947 -0.832479 -0.929292 0
M  V30 31 H -3.671241 0.517293 -0.743612 0
M  V30 32 H -1.519570 3.164779 -0.081980 0
M  V30 33 H -3.137687 2.465460 -0.377479 0
M  V30 34 H -2.513562 2.683437 -2.695274 0
M  V30 END ATOM
M  V30 BEGIN BOND
M  V30 1 1 1 2
M  V30 2 1 2 3
M  V30 3 2 3 4
M  V30 4 1 3 5
M  V30 5 2 5 6
M  V30 6 1 6 7
M  V30 7 2 7 8
M  V30 8 1 8 9
M  V30 9 1 9 10
M  V30 10 2 10 11
M  V30 11 1 11 12
M  V30 12 2 12 13
M  V30 13 1 11 14
M  V30 14 1 14 15
M  V30 15 1 14 16
M  V30 16 1 16 17
M  V30 17 1 17 18
M  V30 18 2 18 19
M  V30 19 1 13 5
M  V30 20 1 12 8
M  V30 21 1 18 10
M  V30 22 1 1 20
M  V30 23 1 1 21
M  V30 24 1 1 22
M  V30 25 1 2 23
M  V30 26 1 6 24
M  V30 27 1 7 25
M  V30 28 1 9 26
M  V30 29 1 13 27
M  V30 30 1 14 28
M  V30 31 1 15 29
M  V30 32 1 15 30
M  V30 33 1 15 31
M  V30 34 1 16 32
M  V30 35 1 16 33
M  V30 36 1 17 34
M  V30 END BOND
M  V30 END CTAB
M  END
>  <Dataset>  (154) 
ChEMBL_Kinases

>  <Ligand_Instance>  (154) 
nan

>  <PDB_ID>  (154) 
nan

>  <Standardized_SMILES>  (154) 
CNC(=O)c1ccc2[nH]c3c(c2c1)C(C)CNC3=O

>  <Name>  (154) 
nan

>  <Pocket>  (154) 
nan

>  <ATP_Site>  (154) 
nan

>  <Peripheral>  (154) 
nan

>  <Num_H_Atoms_ProtBoundConf>  (154) 
nan

>  <Num_Resolved_Atoms>  (154) 
nan

>  <Num_Not_Resolved_Atoms>  (154) 
nan

$$$$
CHEMBL3702175
     RDKit          3D

  0  0  0  0  0  0  0  0  0  0999 V3000
M  V30 BEGIN CTAB
M  V30 COUNTS 69 73 0 0 0
M  V30 BEGIN ATOM
M  V30 1 C -0.182739 -0.619454 2.671630 0
M  V30 2 O 0.866448 -0.067213 1.900224 0
M  V30 3 C 1.782977 0.583039 2.700039 0
M  V30 4 C 2.936975 1.204655 1.994155 0
M  V30 5 C 3.850443 1.869724 3.004048 0
M  V30 6 C 3.762354 0.094492 1.343477 0
M  V30 7 N 2.598491 2.214444 1.031284 0
M  V30 8 C 3.515956 2.903994 0.362843 0
M  V30 9 C 4.912200 2.936549 0.325544 0
M  V30 10 N 5.613624 3.779484 -0.487237 0
M  V30 11 C 4.967595 4.646230 -1.317048 0
M  V30 12 C 3.573596 4.641147 -1.306186 0
M  V30 13 C 2.890858 3.794972 -0.490394 0
M  V30 14 C 1.532236 3.639734 -0.333323 0
M  V30 15 C 0.414683 4.221078 -0.889946 0
M  V30 16 N -0.819845 3.830966 -0.510728 0
M  V30 17 C -0.976758 2.853895 0.430852 0
M  V30 18 N -2.140766 2.252263 0.987129 0
M  V30 19 C -2.496888 0.980206 0.403488 0
M  V30 20 C -3.601893 0.246928 0.831360 0
M  V30 21 C -3.961024 -0.984362 0.306026 0
M  V30 22 C -3.150405 -1.472106 -0.694283 0
M  V30 23 N -3.405414 -2.732545 -1.291255 0
M  V30 24 C -4.391647 -3.682652 -0.785302 0
M  V30 25 C -3.963893 -5.101229 -1.003405 0
M  V30 26 C -2.484441 -5.301220 -1.105415 0
M  V30 27 N -1.954738 -5.359049 0.207604 0
M  V30 28 C -2.376704 -6.360405 1.088718 0
M  V30 29 C -0.833535 -4.604179 0.560068 0
M  V30 30 C -1.751971 -4.287659 -1.891739 0
M  V30 31 C -2.742887 -3.265930 -2.466143 0
M  V30 32 C -2.054311 -0.771308 -1.138573 0
M  V30 33 N -1.765702 0.417271 -0.582794 0
M  V30 34 N 0.124217 2.295884 0.964449 0
M  V30 35 C 1.375331 2.653278 0.616210 0
M  V30 36 H 0.308489 -1.339945 3.368813 0
M  V30 37 H -0.936056 -1.103005 2.054510 0
M  V30 38 H -0.577922 0.184217 3.334057 0
M  V30 39 H 1.300620 1.287194 3.438706 0
M  V30 40 H 2.213124 -0.214704 3.374485 0
M  V30 41 H 4.829619 1.353515 3.105519 0
M  V30 42 H 3.311166 1.893928 3.973709 0
M  V30 43 H 4.023077 2.957802 2.770374 0
M  V30 44 H 3.341222 -0.924115 1.585521 0
M  V30 45 H 3.751718 0.149437 0.250429 0
M  V30 46 H 4.807731 0.074023 1.700807 0
M  V30 47 H 5.482597 2.285824 0.946706 0
M  V30 48 H 5.573629 5.286950 -1.936075 0
M  V30 49 H 3.126937 5.346704 -1.982558 0
M  V30 50 H 0.483470 4.996136 -1.633939 0
M  V30 51 H -2.773222 2.587262 1.753654 0
M  V30 52 H -4.171347 0.716620 1.619829 0
M  V30 53 H -4.827496 -1.518973 0.667222 0
M  V30 54 H -4.549454 -3.497725 0.296854 0
M  V30 55 H -5.346294 -3.449989 -1.294285 0
M  V30 56 H -4.386809 -5.731888 -0.198115 0
M  V30 57 H -4.421695 -5.450917 -1.949798 0
M  V30 58 H -2.286060 -6.314326 -1.573329 0
M  V30 59 H -2.503598 -7.345626 0.586006 0
M  V30 60 H -3.347359 -6.022935 1.560894 0
M  V30 61 H -1.684648 -6.490789 1.958855 0
M  V30 62 H -0.526221 -4.919769 1.602611 0
M  V30 63 H -1.060680 -3.506023 0.704203 0
M  V30 64 H 0.093349 -4.747281 -0.033400 0
M  V30 65 H -1.030489 -3.660274 -1.324738 0
M  V30 66 H -1.276958 -4.736408 -2.792775 0
M  V30 67 H -3.441281 -3.849993 -3.100063 0
M  V30 68 H -2.198124 -2.495889 -3.054342 0
M  V30 69 H -1.354619 -1.055737 -1.911399 0
M  V30 END ATOM
M  V30 BEGIN BOND
M  V30 1 1 1 2
M  V30 2 1 2 3
M  V30 3 1 3 4
M  V30 4 1 4 5
M  V30 5 1 4 6
M  V30 6 1 4 7
M  V30 7 1 7 8
M  V30 8 2 8 9
M  V30 9 1 9 10
M  V30 10 2 10 11
M  V30 11 1 11 12
M  V30 12 2 12 13
M  V30 13 1 13 14
M  V30 14 2 14 15
M  V30 15 1 15 16
M  V30 16 2 16 17
M  V30 17 1 17 18
M  V30 18 1 18 19
M  V30 19 2 19 20
M  V30 20 1 20 21
M  V30 21 2 21 22
M  V30 22 1 22 23
M  V30 23 1 23 24
M  V30 24 1 24 25
M  V30 25 1 25 26
M  V30 26 1 26 27
M  V30 27 1 27 28
M  V30 28 1 27 29
M  V30 29 1 26 30
M  V30 30 1 30 31
M  V30 31 1 22 32
M  V30 32 2 32 33
M  V30 33 1 17 34
M  V30 34 2 34 35
M  V30 35 1 35 7
M  V30 36 1 13 8
M  V30 37 1 35 14
M  V30 38 1 33 19
M  V30 39 1 31 23
M  V30 40 1 1 36
M  V30 41 1 1 37
M  V30 42 1 1 38
M  V30 43 1 3 39
M  V30 44 1 3 40
M  V30 45 1 5 41
M  V30 46 1 5 42
M  V30 47 1 5 43
M  V30 48 1 6 44
M  V30 49 1 6 45
M  V30 50 1 6 46
M  V30 51 1 9 47
M  V30 52 1 11 48
M  V30 53 1 12 49
M  V30 54 1 15 50
M  V30 55 1 18 51
M  V30 56 1 20 52
M  V30 57 1 21 53
M  V30 58 1 24 54
M  V30 59 1 24 55
M  V30 60 1 25 56
M  V30 61 1 25 57
M  V30 62 1 26 58
M  V30 63 1 28 59
M  V30 64 1 28 60
M  V30 65 1 28 61
M  V30 66 1 29 62
M  V30 67 1 29 63
M  V30 68 1 29 64
M  V30 69 1 30 65
M  V30 70 1 30 66
M  V30 71 1 31 67
M  V30 72 1 31 68
M  V30 73 1 32 69
M  V30 END BOND
M  V30 END CTAB
M  END
>  <Dataset>  (155) 
ChEMBL_Kinases

>  <Ligand_Instance>  (155) 
nan

>  <PDB_ID>  (155) 
nan

>  <Standardized_SMILES>  (155) 
COCC(C)(C)n1c2cnccc2c2cnc(Nc3ccc(N4CCC(N(C)C)CC4)cn3)nc21

>  <Name>  (155) 
nan

>  <Pocket>  (155) 
nan

>  <ATP_Site>  (155) 
nan

>  <Peripheral>  (155) 
nan

>  <Num_H_Atoms_ProtBoundConf>  (155) 
nan

>  <Num_Resolved_Atoms>  (155) 
nan

>  <Num_Not_Resolved_Atoms>  (155) 
nan

$$$$
CHEMBL3930205
     RDKit          3D

  0  0  0  0  0  0  0  0  0  0999 V3000
M  V30 BEGIN CTAB
M  V30 COUNTS 55 58 0 0 0
M  V30 BEGIN ATOM
M  V30 1 O -1.766961 2.264132 -0.372569 0
M  V30 2 C -2.142832 1.071691 -0.176003 0
M  V30 3 O -3.130925 1.883894 0.391839 0
M  V30 4 C -1.104741 0.171064 -0.773169 0 CFG=2
M  V30 5 C 0.017525 1.039297 -1.251959 0
M  V30 6 C 0.689758 1.839298 -0.228783 0
M  V30 7 C 0.503398 1.953565 1.155655 0
M  V30 8 C 1.298582 2.826379 1.916920 0
M  V30 9 C 2.260529 3.554214 1.240111 0
M  V30 10 C 2.435791 3.430080 -0.138977 0
M  V30 11 N 3.478186 4.311245 -0.527480 0
M  V30 12 C 4.870701 3.888885 -0.243876 0
M  V30 13 N 5.185336 4.193159 0.808671 0
M  V30 14 C 6.288437 4.051083 1.498258 0
M  V30 15 C 7.295912 3.358162 0.727020 0
M  V30 16 S 6.430151 3.029522 -0.907095 0
M  V30 17 N 1.656017 2.586620 -0.826419 0
M  V30 18 C -1.780392 -0.515817 -1.944053 0
M  V30 19 C -2.676024 -1.647972 -1.494390 0
M  V30 20 C -2.088843 -2.533462 -0.463130 0 CFG=1
M  V30 21 O -2.164932 -3.897602 -0.671918 0
M  V30 22 C -2.272686 -4.780610 0.380049 0
M  V30 23 C -2.363120 -6.097961 -0.083489 0
M  V30 24 C -2.475883 -7.122458 0.865050 0
M  V30 25 C -2.492107 -6.784019 2.200867 0
M  V30 26 C -2.404406 -5.489118 2.681567 0
M  V30 27 C -2.413211 -5.140650 4.125704 0
M  V30 28 F -2.351612 -6.310432 4.880917 0
M  V30 29 F -3.533786 -4.418675 4.494761 0
M  V30 30 F -1.229748 -4.453901 4.421706 0
M  V30 31 C -2.294258 -4.506702 1.714609 0
M  V30 32 C -0.582450 -2.163949 -0.417539 0
M  V30 33 C -0.553606 -0.791496 0.218735 0
M  V30 34 H -3.778829 1.456351 1.062059 0
M  V30 35 H 0.719885 0.411354 -1.848680 0
M  V30 36 H -0.441795 1.755280 -2.000037 0
M  V30 37 H -0.267316 1.331865 1.575764 0
M  V30 38 H 1.066135 2.831161 2.961674 0
M  V30 39 H 2.776866 4.168736 1.951424 0
M  V30 40 H 3.426973 5.240759 -0.999787 0
M  V30 41 H 6.694751 4.293720 2.485821 0
M  V30 42 H 8.374533 3.055102 0.996402 0
M  V30 43 H -1.058504 -0.793781 -2.731006 0
M  V30 44 H -2.438257 0.251349 -2.417662 0
M  V30 45 H -3.012608 -2.209982 -2.364148 0
M  V30 46 H -3.597569 -1.134213 -1.089411 0
M  V30 47 H -2.431049 -2.256259 0.556564 0
M  V30 48 H -2.357446 -6.436147 -1.121928 0
M  V30 49 H -2.542458 -8.138117 0.559034 0
M  V30 50 H -2.575660 -7.589326 2.920154 0
M  V30 51 H -2.228586 -3.501788 2.070758 0
M  V30 52 H -0.204332 -2.086771 -1.437660 0
M  V30 53 H -0.023794 -2.917283 0.170143 0
M  V30 54 H 0.497285 -0.633667 0.515588 0
M  V30 55 H -1.240943 -0.836744 1.090587 0
M  V30 END ATOM
M  V30 BEGIN BOND
M  V30 1 2 1 2
M  V30 2 1 2 3
M  V30 3 1 2 4
M  V30 4 1 4 5 CFG=3
M  V30 5 1 5 6
M  V30 6 2 6 7
M  V30 7 1 7 8
M  V30 8 2 8 9
M  V30 9 1 9 10
M  V30 10 1 10 11
M  V30 11 1 11 12
M  V30 12 2 12 13
M  V30 13 1 13 14
M  V30 14 2 14 15
M  V30 15 1 15 16
M  V30 16 2 10 17
M  V30 17 1 4 18
M  V30 18 1 18 19
M  V30 19 1 19 20
M  V30 20 1 20 21
M  V30 21 1 21 22
M  V30 22 2 22 23
M  V30 23 1 23 24
M  V30 24 2 24 25
M  V30 25 1 25 26
M  V30 26 1 26 27
M  V30 27 1 27 28
M  V30 28 1 27 29
M  V30 29 1 27 30
M  V30 30 2 26 31
M  V30 31 1 20 32
M  V30 32 1 32 33
M  V30 33 1 33 4
M  V30 34 1 17 6
M  V30 35 1 31 22
M  V30 36 1 16 12
M  V30 37 1 3 34
M  V30 38 1 5 35
M  V30 39 1 5 36
M  V30 40 1 7 37
M  V30 41 1 8 38
M  V30 42 1 9 39
M  V30 43 1 11 40
M  V30 44 1 14 41
M  V30 45 1 15 42
M  V30 46 1 18 43
M  V30 47 1 18 44
M  V30 48 1 19 45
M  V30 49 1 19 46
M  V30 50 1 20 47 CFG=1
M  V30 51 1 23 48
M  V30 52 1 24 49
M  V30 53 1 25 50
M  V30 54 1 31 51
M  V30 55 1 32 52
M  V30 56 1 32 53
M  V30 57 1 33 54
M  V30 58 1 33 55
M  V30 END BOND
M  V30 END CTAB
M  END
>  <Dataset>  (156) 
ChEMBL_Kinases

>  <Ligand_Instance>  (156) 
nan

>  <PDB_ID>  (156) 
nan

>  <Standardized_SMILES>  (156) 
O=C(O)[C@]1(Cc2cccc(Nc3nccs3)n2)CC[C@@H](Oc2cccc(C(F)(F)F)c2)CC1

>  <Name>  (156) 
nan

>  <Pocket>  (156) 
nan

>  <ATP_Site>  (156) 
nan

>  <Peripheral>  (156) 
nan

>  <Num_H_Atoms_ProtBoundConf>  (156) 
nan

>  <Num_Resolved_Atoms>  (156) 
nan

>  <Num_Not_Resolved_Atoms>  (156) 
nan

$$$$
CHEMBL3702176
     RDKit          3D

  0  0  0  0  0  0  0  0  0  0999 V3000
M  V30 BEGIN CTAB
M  V30 COUNTS 68 72 0 0 0
M  V30 BEGIN ATOM
M  V30 1 C 0.374953 -0.794825 2.513171 0
M  V30 2 O 1.422423 -0.236891 1.763969 0
M  V30 3 C 2.260221 0.533252 2.571301 0
M  V30 4 C 3.374092 1.107346 1.746776 0
M  V30 5 C 4.241053 1.929053 2.694197 0
M  V30 6 C 4.253410 -0.041717 1.242552 0
M  V30 7 N 2.959133 1.968597 0.688640 0
M  V30 8 C 3.878474 2.577156 -0.056443 0
M  V30 9 C 5.269984 2.625081 -0.106605 0
M  V30 10 N 5.968912 3.359580 -1.004750 0
M  V30 11 C 5.325387 4.116348 -1.939374 0
M  V30 12 C 3.945284 4.101864 -1.930896 0
M  V30 13 C 3.243918 3.349000 -1.009435 0
M  V30 14 C 1.878433 3.220512 -0.857482 0
M  V30 15 C 0.750570 3.728484 -1.489067 0
M  V30 16 N -0.464752 3.341381 -1.018318 0
M  V30 17 C -0.572279 2.491975 0.027361 0
M  V30 18 N -1.804400 2.032850 0.579145 0
M  V30 19 C -2.356948 0.786672 0.172670 0
M  V30 20 C -3.555363 0.363423 0.724017 0
M  V30 21 C -4.040501 -0.857730 0.305695 0
M  V30 22 C -3.407137 -1.665680 -0.615809 0
M  V30 23 N -3.893980 -2.930630 -1.037547 0
M  V30 24 C -3.173521 -3.630089 -2.125282 0
M  V30 25 C -2.582896 -4.912886 -1.580048 0
M  V30 26 C -3.134936 -5.177294 -0.174570 0
M  V30 27 N -2.376184 -4.459683 0.762546 0
M  V30 28 C -0.981855 -4.802647 0.865755 0
M  V30 29 C -2.902378 -4.132391 2.026860 0
M  V30 30 C -4.617809 -5.019507 -0.143126 0
M  V30 31 C -5.036785 -3.606538 -0.479110 0
M  V30 32 N -2.251551 -1.185566 -1.104773 0
M  V30 33 N -1.746265 -0.005917 -0.725522 0
M  V30 34 N 0.534616 2.004815 0.632891 0
M  V30 35 C 1.762479 2.353166 0.209982 0
M  V30 36 H 0.839054 -1.435143 3.293831 0
M  V30 37 H -0.231741 -1.476907 1.893888 0
M  V30 38 H -0.222012 -0.014825 3.038425 0
M  V30 39 H 1.738292 1.278535 3.186466 0
M  V30 40 H 2.706843 -0.199200 3.299569 0
M  V30 41 H 3.759165 2.046314 3.702471 0
M  V30 42 H 5.245875 1.477350 2.836954 0
M  V30 43 H 4.414580 2.949558 2.296318 0
M  V30 44 H 5.288345 0.006229 1.680758 0
M  V30 45 H 4.295031 -0.099239 0.146872 0
M  V30 46 H 3.853909 -1.034427 1.586591 0
M  V30 47 H 5.842376 2.062322 0.588438 0
M  V30 48 H 5.939043 4.687402 -2.637886 0
M  V30 49 H 3.445952 4.708010 -2.679215 0
M  V30 50 H 0.862141 4.395337 -2.311700 0
M  V30 51 H -2.279080 2.616753 1.269229 0
M  V30 52 H -4.087118 0.958371 1.446009 0
M  V30 53 H -4.958456 -1.165228 0.736329 0
M  V30 54 H -3.954980 -3.910136 -2.855799 0
M  V30 55 H -2.452130 -2.977334 -2.635468 0
M  V30 56 H -2.751428 -5.761562 -2.257250 0
M  V30 57 H -1.496961 -4.764656 -1.469761 0
M  V30 58 H -2.932737 -6.281248 -0.033092 0
M  V30 59 H -0.346507 -4.258072 0.136124 0
M  V30 60 H -0.896712 -5.923470 0.751708 0
M  V30 61 H -0.645214 -4.619795 1.917888 0
M  V30 62 H -2.643613 -4.975381 2.738752 0
M  V30 63 H -3.988051 -4.019687 2.123359 0
M  V30 64 H -2.362565 -3.255357 2.510215 0
M  V30 65 H -5.114977 -5.747696 -0.850964 0
M  V30 66 H -4.974140 -5.219168 0.890224 0
M  V30 67 H -5.778267 -3.677016 -1.325532 0
M  V30 68 H -5.474944 -3.082064 0.391647 0
M  V30 END ATOM
M  V30 BEGIN BOND
M  V30 1 1 1 2
M  V30 2 1 2 3
M  V30 3 1 3 4
M  V30 4 1 4 5
M  V30 5 1 4 6
M  V30 6 1 4 7
M  V30 7 1 7 8
M  V30 8 2 8 9
M  V30 9 1 9 10
M  V30 10 2 10 11
M  V30 11 1 11 12
M  V30 12 2 12 13
M  V30 13 1 13 14
M  V30 14 2 14 15
M  V30 15 1 15 16
M  V30 16 2 16 17
M  V30 17 1 17 18
M  V30 18 1 18 19
M  V30 19 2 19 20
M  V30 20 1 20 21
M  V30 21 2 21 22
M  V30 22 1 22 23
M  V30 23 1 23 24
M  V30 24 1 24 25
M  V30 25 1 25 26
M  V30 26 1 26 27
M  V30 27 1 27 28
M  V30 28 1 27 29
M  V30 29 1 26 30
M  V30 30 1 30 31
M  V30 31 1 22 32
M  V30 32 2 32 33
M  V30 33 1 17 34
M  V30 34 2 34 35
M  V30 35 1 35 7
M  V30 36 1 13 8
M  V30 37 1 35 14
M  V30 38 1 33 19
M  V30 39 1 31 23
M  V30 40 1 1 36
M  V30 41 1 1 37
M  V30 42 1 1 38
M  V30 43 1 3 39
M  V30 44 1 3 40
M  V30 45 1 5 41
M  V30 46 1 5 42
M  V30 47 1 5 43
M  V30 48 1 6 44
M  V30 49 1 6 45
M  V30 50 1 6 46
M  V30 51 1 9 47
M  V30 52 1 11 48
M  V30 53 1 12 49
M  V30 54 1 15 50
M  V30 55 1 18 51
M  V30 56 1 20 52
M  V30 57 1 21 53
M  V30 58 1 24 54
M  V30 59 1 24 55
M  V30 60 1 25 56
M  V30 61 1 25 57
M  V30 62 1 26 58
M  V30 63 1 28 59
M  V30 64 1 28 60
M  V30 65 1 28 61
M  V30 66 1 29 62
M  V30 67 1 29 63
M  V30 68 1 29 64
M  V30 69 1 30 65
M  V30 70 1 30 66
M  V30 71 1 31 67
M  V30 72 1 31 68
M  V30 END BOND
M  V30 END CTAB
M  END
>  <Dataset>  (157) 
ChEMBL_Kinases

>  <Ligand_Instance>  (157) 
nan

>  <PDB_ID>  (157) 
nan

>  <Standardized_SMILES>  (157) 
COCC(C)(C)n1c2cnccc2c2cnc(Nc3ccc(N4CCC(N(C)C)CC4)nn3)nc21

>  <Name>  (157) 
nan

>  <Pocket>  (157) 
nan

>  <ATP_Site>  (157) 
nan

>  <Peripheral>  (157) 
nan

>  <Num_H_Atoms_ProtBoundConf>  (157) 
nan

>  <Num_Resolved_Atoms>  (157) 
nan

>  <Num_Not_Resolved_Atoms>  (157) 
nan

$$$$
CHEMBL3930129
     RDKit          3D

  0  0  0  0  0  0  0  0  0  0999 V3000
M  V30 BEGIN CTAB
M  V30 COUNTS 45 48 0 0 0
M  V30 BEGIN ATOM
M  V30 1 C 2.524403 -2.306271 -3.260788 0
M  V30 2 C 2.922937 -1.344671 -2.170658 0
M  V30 3 C 4.044204 -1.959786 -1.396992 0
M  V30 4 C 5.026716 -1.100793 -0.910159 0
M  V30 5 C 6.060065 -1.655481 -0.198825 0
M  V30 6 C 6.211628 -2.999366 0.078084 0
M  V30 7 Cl 7.564467 -3.622216 0.995224 0
M  V30 8 C 5.209116 -3.826824 -0.425360 0
M  V30 9 C 4.154539 -3.324257 -1.142625 0
M  V30 10 C 1.802345 -0.964120 -1.280986 0
M  V30 11 C 1.802529 0.320366 -0.724978 0
M  V30 12 C 0.805358 0.781575 0.119777 0
M  V30 13 C -0.219852 -0.092315 0.404631 0
M  V30 14 C -1.272783 0.390789 1.294947 0
M  V30 15 N -2.380010 -0.286850 1.717849 0
M  V30 16 C -3.090989 0.540526 2.536011 0
M  V30 17 C -4.271366 0.382565 3.231238 0
M  V30 18 C -4.754300 1.420845 3.993189 0
M  V30 19 C -6.000847 1.368483 4.776958 0
M  V30 20 N -6.807949 0.180248 4.784746 0
M  V30 21 O -6.450841 2.296591 5.469828 0
M  V30 22 C -4.070216 2.638771 4.077943 0
M  V30 23 C -2.886110 2.807269 3.384865 0
M  V30 24 C -2.413547 1.739300 2.616771 0
M  V30 25 N -1.305904 1.619134 1.848186 0
M  V30 26 C -0.280636 -1.372426 -0.110280 0
M  V30 27 C 0.744200 -1.794994 -0.956203 0
M  V30 28 H 3.469984 -2.601361 -3.767397 0
M  V30 29 H 2.055680 -3.222011 -2.885229 0
M  V30 30 H 1.883572 -1.842184 -4.035452 0
M  V30 31 H 3.295616 -0.419204 -2.655851 0
M  V30 32 H 4.984144 -0.023471 -1.083601 0
M  V30 33 H 6.815475 -0.960944 0.170819 0
M  V30 34 H 5.302583 -4.884504 -0.223305 0
M  V30 35 H 3.387716 -3.961608 -1.527106 0
M  V30 36 H 2.631476 0.986668 -0.972743 0
M  V30 37 H 0.883295 1.790439 0.506158 0
M  V30 38 H -4.835706 -0.529163 3.201589 0
M  V30 39 H -6.258770 -0.512647 5.370874 0
M  V30 40 H -7.715081 0.168696 4.271974 0
M  V30 41 H -4.408178 3.489287 4.664812 0
M  V30 42 H -2.348084 3.744085 3.442403 0
M  V30 43 H -0.618319 2.405613 1.743881 0
M  V30 44 H -1.087103 -2.056958 0.115050 0
M  V30 45 H 0.723378 -2.779827 -1.369123 0
M  V30 END ATOM
M  V30 BEGIN BOND
M  V30 1 1 1 2
M  V30 2 1 2 3
M  V30 3 2 3 4
M  V30 4 1 4 5
M  V30 5 2 5 6
M  V30 6 1 6 7
M  V30 7 1 6 8
M  V30 8 2 8 9
M  V30 9 1 2 10
M  V30 10 2 10 11
M  V30 11 1 11 12
M  V30 12 2 12 13
M  V30 13 1 13 14
M  V30 14 2 14 15
M  V30 15 1 15 16
M  V30 16 2 16 17
M  V30 17 1 17 18
M  V30 18 1 18 19
M  V30 19 1 19 20
M  V30 20 2 19 21
M  V30 21 2 18 22
M  V30 22 1 22 23
M  V30 23 2 23 24
M  V30 24 1 24 25
M  V30 25 1 13 26
M  V30 26 2 26 27
M  V30 27 1 9 3
M  V30 28 1 27 10
M  V30 29 1 25 14
M  V30 30 1 24 16
M  V30 31 1 1 28
M  V30 32 1 1 29
M  V30 33 1 1 30
M  V30 34 1 2 31
M  V30 35 1 4 32
M  V30 36 1 5 33
M  V30 37 1 8 34
M  V30 38 1 9 35
M  V30 39 1 11 36
M  V30 40 1 12 37
M  V30 41 1 17 38
M  V30 42 1 20 39
M  V30 43 1 20 40
M  V30 44 1 22 41
M  V30 45 1 23 42
M  V30 46 1 25 43
M  V30 47 1 26 44
M  V30 48 1 27 45
M  V30 END BOND
M  V30 END CTAB
M  END
>  <Dataset>  (158) 
ChEMBL_Kinases

>  <Ligand_Instance>  (158) 
nan

>  <PDB_ID>  (158) 
nan

>  <Standardized_SMILES>  (158) 
CC(c1ccc(Cl)cc1)c1ccc(-c2nc3cc(C(N)=O)ccc3[nH]2)cc1

>  <Name>  (158) 
nan

>  <Pocket>  (158) 
nan

>  <ATP_Site>  (158) 
nan

>  <Peripheral>  (158) 
nan

>  <Num_H_Atoms_ProtBoundConf>  (158) 
nan

>  <Num_Resolved_Atoms>  (158) 
nan

>  <Num_Not_Resolved_Atoms>  (158) 
nan

$$$$
CHEMBL3930091
     RDKit          3D

  0  0  0  0  0  0  0  0  0  0999 V3000
M  V30 BEGIN CTAB
M  V30 COUNTS 52 56 0 0 0
M  V30 BEGIN ATOM
M  V30 1 C 6.360362 -4.871360 1.986186 0
M  V30 2 O 5.023404 -5.217782 1.590433 0
M  V30 3 C 4.216028 -4.248060 1.014796 0
M  V30 4 O 4.793209 -3.115737 0.905405 0
M  V30 5 N 2.877323 -4.456797 0.578809 0
M  V30 6 C 2.162724 -3.367395 0.005286 0
M  V30 7 N 1.450135 -2.589391 0.868057 0
M  V30 8 C 0.836630 -1.609600 0.170884 0
M  V30 9 C 0.002467 -0.550066 0.487510 0
M  V30 10 C -0.467013 0.299761 -0.517090 0
M  V30 11 C -1.349323 1.415432 0.010050 0
M  V30 12 O -2.068015 2.028484 -0.987614 0
M  V30 13 C -0.408192 2.368443 0.716733 0
M  V30 14 C 0.456501 3.154881 -0.013014 0
M  V30 15 C 1.361128 3.963556 0.675748 0
M  V30 16 C 1.340187 3.931288 2.053108 0
M  V30 17 C 0.455276 3.128685 2.754963 0
M  V30 18 C -0.442412 2.327887 2.088546 0
M  V30 19 C -1.560521 1.392679 2.358517 0
M  V30 20 O -1.758615 1.205794 3.602781 0
M  V30 21 N -2.145006 0.928026 1.112197 0
M  V30 22 C -3.342774 0.149077 1.294642 0
M  V30 23 C -4.583219 0.898080 0.748766 0
M  V30 24 C -3.321792 -1.171310 0.697919 0
M  V30 25 S -2.930442 -1.654046 -0.976135 0
M  V30 26 C -3.225965 -3.431422 -0.736253 0
M  V30 27 C -3.596395 -3.514047 0.590038 0
M  V30 28 C -3.638202 -2.363604 1.294042 0
M  V30 29 Cl -4.115501 -2.470677 3.002500 0
M  V30 30 C -0.106813 0.096658 -1.839923 0
M  V30 31 C 0.724815 -0.966039 -2.125259 0
M  V30 32 C 1.195024 -1.810447 -1.149806 0
M  V30 33 N 2.001622 -2.881433 -1.241757 0
M  V30 34 H 6.311731 -4.183744 2.880861 0
M  V30 35 H 6.949838 -5.757147 2.221512 0
M  V30 36 H 6.809470 -4.306016 1.154779 0
M  V30 37 H 2.478566 -5.429577 0.708089 0
M  V30 38 H -0.206770 -0.492460 1.540471 0
M  V30 39 H -2.078974 3.017095 -0.862416 0
M  V30 40 H 0.544937 3.244769 -1.084119 0
M  V30 41 H 2.076462 4.612904 0.159365 0
M  V30 42 H 2.033180 4.549062 2.599456 0
M  V30 43 H 0.408363 3.075405 3.832708 0
M  V30 44 H -3.575786 0.040936 2.384421 0
M  V30 45 H -4.574023 0.786335 -0.351475 0
M  V30 46 H -5.464730 0.357755 1.142259 0
M  V30 47 H -4.593682 1.928532 1.116726 0
M  V30 48 H -3.089932 -4.162085 -1.585459 0
M  V30 49 H -3.801669 -4.538037 0.855780 0
M  V30 50 H -0.520579 0.804961 -2.540141 0
M  V30 51 H 0.995058 -1.107590 -3.167926 0
M  V30 52 H 2.466245 -3.337157 -2.042267 0
M  V30 END ATOM
M  V30 BEGIN BOND
M  V30 1 1 1 2
M  V30 2 1 2 3
M  V30 3 2 3 4
M  V30 4 1 3 5
M  V30 5 1 5 6
M  V30 6 2 6 7
M  V30 7 1 7 8
M  V30 8 2 8 9
M  V30 9 1 9 10
M  V30 10 1 10 11
M  V30 11 1 11 12
M  V30 12 1 11 13
M  V30 13 2 13 14
M  V30 14 1 14 15
M  V30 15 2 15 16
M  V30 16 1 16 17
M  V30 17 2 17 18
M  V30 18 1 18 19
M  V30 19 2 19 20
M  V30 20 1 19 21
M  V30 21 1 21 22
M  V30 22 1 22 23
M  V30 23 1 22 24
M  V30 24 1 24 25
M  V30 25 1 25 26
M  V30 26 2 26 27
M  V30 27 1 27 28
M  V30 28 1 28 29
M  V30 29 2 10 30
M  V30 30 1 30 31
M  V30 31 2 31 32
M  V30 32 1 32 33
M  V30 33 1 33 6
M  V30 34 1 32 8
M  V30 35 1 21 11
M  V30 36 2 28 24
M  V30 37 1 18 13
M  V30 38 1 1 34
M  V30 39 1 1 35
M  V30 40 1 1 36
M  V30 41 1 5 37
M  V30 42 1 9 38
M  V30 43 1 12 39
M  V30 44 1 14 40
M  V30 45 1 15 41
M  V30 46 1 16 42
M  V30 47 1 17 43
M  V30 48 1 22 44
M  V30 49 1 23 45
M  V30 50 1 23 46
M  V30 51 1 23 47
M  V30 52 1 26 48
M  V30 53 1 27 49
M  V30 54 1 30 50
M  V30 55 1 31 51
M  V30 56 1 33 52
M  V30 END BOND
M  V30 END CTAB
M  END
>  <Dataset>  (159) 
ChEMBL_Kinases

>  <Ligand_Instance>  (159) 
nan

>  <PDB_ID>  (159) 
nan

>  <Standardized_SMILES>  (159) 
COC(=O)Nc1nc2cc(C3(O)c4ccccc4C(=O)N3C(C)c3sccc3Cl)ccc2[nH]1

>  <Name>  (159) 
nan

>  <Pocket>  (159) 
nan

>  <ATP_Site>  (159) 
nan

>  <Peripheral>  (159) 
nan

>  <Num_H_Atoms_ProtBoundConf>  (159) 
nan

>  <Num_Resolved_Atoms>  (159) 
nan

>  <Num_Not_Resolved_Atoms>  (159) 
nan

$$$$
CHEMBL3929928
     RDKit          3D

  0  0  0  0  0  0  0  0  0  0999 V3000
M  V30 BEGIN CTAB
M  V30 COUNTS 51 54 0 0 0
M  V30 BEGIN ATOM
M  V30 1 N -0.534960 -9.305307 -2.083173 0
M  V30 2 C -0.659872 -7.996826 -2.626396 0
M  V30 3 O -1.045254 -8.023472 -3.824232 0
M  V30 4 C -0.331702 -6.913272 -1.731200 0
M  V30 5 C 0.082724 -7.062154 -0.422470 0
M  V30 6 C 0.351638 -5.912171 0.280140 0
M  V30 7 C 0.214341 -4.661721 -0.294707 0
M  V30 8 N 0.431348 -3.441277 0.237875 0
M  V30 9 C 0.161523 -2.499216 -0.713651 0
M  V30 10 C 0.239643 -1.038240 -0.642082 0
M  V30 11 C -0.077160 -0.239926 -1.723108 0
M  V30 12 C 0.022371 1.154156 -1.576517 0
M  V30 13 C 0.434672 1.733004 -0.359406 0
M  V30 14 O 0.427414 3.056867 -0.541824 0
M  V30 15 C 0.665452 4.207656 0.091632 0
M  V30 16 C -0.061608 4.722571 1.248876 0
M  V30 17 C -0.140780 4.014309 2.533026 0
M  V30 18 C 1.156179 3.705596 3.205593 0
M  V30 19 C 1.035432 2.665317 4.288940 0
M  V30 20 N -0.341340 2.508221 4.728145 0
M  V30 21 C -1.074012 1.951005 3.617844 0
M  V30 22 C -1.214440 2.998487 2.562691 0
M  V30 23 C 0.724522 0.841976 0.647643 0
M  V30 24 C 0.648302 -0.530474 0.571578 0
M  V30 25 N -0.211056 -3.177717 -1.794640 0
M  V30 26 C -0.199621 -4.509965 -1.602340 0
M  V30 27 C -0.468892 -5.666718 -2.305260 0
M  V30 28 H -0.861485 -10.274249 -2.248021 0
M  V30 29 H -0.025441 -9.740182 -1.269267 0
M  V30 30 H 0.160497 -8.079000 -0.060492 0
M  V30 31 H 0.677731 -6.034155 1.310481 0
M  V30 32 H 0.749438 -3.179530 1.198150 0
M  V30 33 H -0.379225 -0.782603 -2.600824 0
M  V30 34 H -0.262939 1.609559 -2.519408 0
M  V30 35 H 0.564212 5.044311 -0.708025 0
M  V30 36 H 1.798592 4.355550 0.328504 0
M  V30 37 H 0.323748 5.774933 1.426744 0
M  V30 38 H -1.134843 4.924600 0.895315 0
M  V30 39 H -0.571085 4.847760 3.251312 0
M  V30 40 H 1.917667 3.372053 2.487497 0
M  V30 41 H 1.586778 4.614508 3.675275 0
M  V30 42 H 1.632492 2.905163 5.193362 0
M  V30 43 H 1.373170 1.665659 3.944541 0
M  V30 44 H -0.330620 1.756944 5.467010 0
M  V30 45 H -0.599656 1.045633 3.202848 0
M  V30 46 H -2.104622 1.646200 3.951159 0
M  V30 47 H -1.423101 2.498360 1.597031 0
M  V30 48 H -2.229593 3.487076 2.787713 0
M  V30 49 H 1.032671 1.390118 1.522118 0
M  V30 50 H 0.911610 -1.070767 1.455612 0
M  V30 51 H -0.793161 -5.485357 -3.336954 0
M  V30 END ATOM
M  V30 BEGIN BOND
M  V30 1 1 1 2
M  V30 2 2 2 3
M  V30 3 1 2 4
M  V30 4 2 4 5
M  V30 5 1 5 6
M  V30 6 2 6 7
M  V30 7 1 7 8
M  V30 8 1 8 9
M  V30 9 1 9 10
M  V30 10 2 10 11
M  V30 11 1 11 12
M  V30 12 2 12 13
M  V30 13 1 13 14
M  V30 14 1 14 15
M  V30 15 1 15 16
M  V30 16 1 16 17
M  V30 17 1 17 18
M  V30 18 1 18 19
M  V30 19 1 19 20
M  V30 20 1 20 21
M  V30 21 1 21 22
M  V30 22 1 13 23
M  V30 23 2 23 24
M  V30 24 2 9 25
M  V30 25 1 25 26
M  V30 26 2 26 27
M  V30 27 1 27 4
M  V30 28 1 26 7
M  V30 29 1 24 10
M  V30 30 1 22 17
M  V30 31 1 1 28
M  V30 32 1 1 29
M  V30 33 1 5 30
M  V30 34 1 6 31
M  V30 35 1 8 32
M  V30 36 1 11 33
M  V30 37 1 12 34
M  V30 38 1 15 35
M  V30 39 1 15 36
M  V30 40 1 16 37
M  V30 41 1 16 38
M  V30 42 1 17 39
M  V30 43 1 18 40
M  V30 44 1 18 41
M  V30 45 1 19 42
M  V30 46 1 19 43
M  V30 47 1 20 44
M  V30 48 1 21 45
M  V30 49 1 21 46
M  V30 50 1 22 47
M  V30 51 1 22 48
M  V30 52 1 23 49
M  V30 53 1 24 50
M  V30 54 1 27 51
M  V30 END BOND
M  V30 END CTAB
M  END
>  <Dataset>  (160) 
ChEMBL_Kinases

>  <Ligand_Instance>  (160) 
nan

>  <PDB_ID>  (160) 
nan

>  <Standardized_SMILES>  (160) 
NC(=O)c1ccc2[nH]c(-c3ccc(OCCC4CCNCC4)cc3)nc2c1

>  <Name>  (160) 
nan

>  <Pocket>  (160) 
nan

>  <ATP_Site>  (160) 
nan

>  <Peripheral>  (160) 
nan

>  <Num_H_Atoms_ProtBoundConf>  (160) 
nan

>  <Num_Resolved_Atoms>  (160) 
nan

>  <Num_Not_Resolved_Atoms>  (160) 
nan

$$$$
CHEMBL3929905
     RDKit          3D

  0  0  0  0  0  0  0  0  0  0999 V3000
M  V30 BEGIN CTAB
M  V30 COUNTS 71 75 0 0 0
M  V30 BEGIN ATOM
M  V30 1 C 4.148988 1.246791 1.179066 0
M  V30 2 C 3.607265 0.185073 0.212938 0 CFG=1
M  V30 3 C 3.865515 -1.131498 0.860023 0
M  V30 4 N 3.320458 -2.283447 0.135771 0
M  V30 5 C 2.815198 -3.229575 1.045909 0
M  V30 6 C 2.238038 -4.497085 0.551916 0
M  V30 7 C 3.193106 -5.341854 -0.265025 0
M  V30 8 C 2.468235 -6.649501 -0.554649 0
M  V30 9 O 1.290611 -6.491650 -1.239805 0
M  V30 10 C 0.990863 -5.135620 -1.438636 0
M  V30 11 C 0.899449 -4.458167 -0.079519 0
M  V30 12 C 2.497193 -1.758960 -0.881494 0
M  V30 13 C 1.497767 -0.732492 -0.389137 0
M  V30 14 N 2.251391 0.484260 -0.095577 0
M  V30 15 C 1.645694 1.769780 -0.112374 0
M  V30 16 O 2.473451 2.685919 0.104373 0
M  V30 17 N 0.264760 2.090470 -0.339619 0
M  V30 18 C -1.040404 1.496475 -0.590191 0
M  V30 19 C -1.925363 2.231381 0.348209 0
M  V30 20 C -3.058093 2.093948 1.121003 0
M  V30 21 N -3.956048 1.030734 1.345899 0
M  V30 22 C -5.148347 0.694127 0.655503 0
M  V30 23 O -5.582719 1.355418 -0.321383 0
M  V30 24 C -5.947996 -0.457933 1.050998 0
M  V30 25 C -7.103294 -0.750624 0.358583 0
M  V30 26 C -7.906375 -1.842842 0.699436 0
M  V30 27 C -7.560975 -2.660276 1.743738 0
M  V30 28 F -8.348375 -3.714965 2.062129 0
M  V30 29 C -6.405368 -2.385413 2.452912 0
M  V30 30 C -5.635676 -1.302651 2.093088 0
M  V30 31 N -3.231245 3.294453 1.735376 0
M  V30 32 N -2.247943 4.120274 1.351804 0
M  V30 33 C -1.424029 3.483327 0.489800 0
M  V30 34 C -0.242340 3.422224 -0.403094 0
M  V30 35 C 0.723144 4.470958 0.111066 0
M  V30 36 C -0.742833 3.787918 -1.792148 0
M  V30 37 H 4.964147 0.756950 1.800468 0
M  V30 38 H 4.605723 2.092083 0.667374 0
M  V30 39 H 3.341878 1.490969 1.871812 0
M  V30 40 H 4.223877 0.340132 -0.714445 0
M  V30 41 H 3.581855 -1.143393 1.932519 0
M  V30 42 H 4.968175 -1.280161 0.856911 0
M  V30 43 H 3.663842 -3.499190 1.753335 0
M  V30 44 H 2.037170 -2.744451 1.688494 0
M  V30 45 H 2.095328 -5.134687 1.502145 0
M  V30 46 H 3.596764 -4.852014 -1.146680 0
M  V30 47 H 4.050370 -5.625006 0.408865 0
M  V30 48 H 2.186414 -7.075517 0.450207 0
M  V30 49 H 3.152473 -7.410041 -1.014397 0
M  V30 50 H 1.788641 -4.745279 -2.068706 0
M  V30 51 H 0.014783 -5.018110 -1.912268 0
M  V30 52 H 0.469677 -3.462998 -0.142169 0
M  V30 53 H 0.128183 -5.061450 0.491862 0
M  V30 54 H 1.995425 -2.436545 -1.561581 0
M  V30 55 H 3.192281 -1.155713 -1.561268 0
M  V30 56 H 0.837691 -1.061782 0.399958 0
M  V30 57 H 0.887359 -0.458906 -1.297851 0
M  V30 58 H -1.305075 1.704285 -1.637019 0
M  V30 59 H -1.038108 0.410095 -0.328771 0
M  V30 60 H -3.596671 0.482754 2.152670 0
M  V30 61 H -7.435493 -0.145807 -0.476995 0
M  V30 62 H -8.808369 -2.064374 0.151720 0
M  V30 63 H -6.134515 -3.017224 3.263478 0
M  V30 64 H -4.743365 -1.117148 2.665144 0
M  V30 65 H -2.067760 5.112559 1.623292 0
M  V30 66 H 1.511117 4.646802 -0.622940 0
M  V30 67 H 1.035238 4.176545 1.116767 0
M  V30 68 H 0.143994 5.424792 0.195881 0
M  V30 69 H -0.177444 3.150931 -2.522769 0
M  V30 70 H -1.820977 3.646809 -1.913127 0
M  V30 71 H -0.391056 4.825686 -2.009204 0
M  V30 END ATOM
M  V30 BEGIN BOND
M  V30 1 1 1 2
M  V30 2 1 2 3
M  V30 3 1 3 4
M  V30 4 1 4 5
M  V30 5 1 5 6
M  V30 6 1 6 7
M  V30 7 1 7 8
M  V30 8 1 8 9
M  V30 9 1 9 10
M  V30 10 1 10 11
M  V30 11 1 4 12
M  V30 12 1 12 13
M  V30 13 1 13 14
M  V30 14 1 14 15
M  V30 15 2 15 16
M  V30 16 1 15 17
M  V30 17 1 17 18
M  V30 18 1 18 19
M  V30 19 1 19 20
M  V30 20 1 20 21
M  V30 21 1 21 22
M  V30 22 2 22 23
M  V30 23 1 22 24
M  V30 24 2 24 25
M  V30 25 1 25 26
M  V30 26 2 26 27
M  V30 27 1 27 28
M  V30 28 1 27 29
M  V30 29 2 29 30
M  V30 30 2 20 31
M  V30 31 1 31 32
M  V30 32 1 32 33
M  V30 33 1 33 34
M  V30 34 1 34 35
M  V30 35 1 34 36
M  V30 36 1 14 2
M  V30 37 1 34 17
M  V30 38 1 11 6
M  V30 39 2 33 19
M  V30 40 1 30 24
M  V30 41 1 1 37
M  V30 42 1 1 38
M  V30 43 1 1 39
M  V30 44 1 2 40 CFG=3
M  V30 45 1 3 41
M  V30 46 1 3 42
M  V30 47 1 5 43
M  V30 48 1 5 44
M  V30 49 1 6 45
M  V30 50 1 7 46
M  V30 51 1 7 47
M  V30 52 1 8 48
M  V30 53 1 8 49
M  V30 54 1 10 50
M  V30 55 1 10 51
M  V30 56 1 11 52
M  V30 57 1 11 53
M  V30 58 1 12 54
M  V30 59 1 12 55
M  V30 60 1 13 56
M  V30 61 1 13 57
M  V30 62 1 18 58
M  V30 63 1 18 59
M  V30 64 1 21 60
M  V30 65 1 25 61
M  V30 66 1 26 62
M  V30 67 1 29 63
M  V30 68 1 30 64
M  V30 69 1 32 65
M  V30 70 1 35 66
M  V30 71 1 35 67
M  V30 72 1 35 68
M  V30 73 1 36 69
M  V30 74 1 36 70
M  V30 75 1 36 71
M  V30 END BOND
M  V30 END CTAB
M  END
>  <Dataset>  (161) 
ChEMBL_Kinases

>  <Ligand_Instance>  (161) 
nan

>  <PDB_ID>  (161) 
nan

>  <Standardized_SMILES>  (161) 
C[C@H]1CN(CC2CCOCC2)CCN1C(=O)N1Cc2c(NC(=O)c3ccc(F)cc3)n[nH]c2C1(C)C

>  <Name>  (161) 
nan

>  <Pocket>  (161) 
nan

>  <ATP_Site>  (161) 
nan

>  <Peripheral>  (161) 
nan

>  <Num_H_Atoms_ProtBoundConf>  (161) 
nan

>  <Num_Resolved_Atoms>  (161) 
nan

>  <Num_Not_Resolved_Atoms>  (161) 
nan

$$$$
CHEMBL3929842
     RDKit          3D

  0  0  0  0  0  0  0  0  0  0999 V3000
M  V30 BEGIN CTAB
M  V30 COUNTS 62 65 0 0 0
M  V30 BEGIN ATOM
M  V30 1 C 2.559003 0.344297 4.147344 0
M  V30 2 C 2.800988 -1.126999 4.338673 0
M  V30 3 C 1.833820 -1.641444 5.392506 0
M  V30 4 N 2.674383 -1.895313 3.115730 0
M  V30 5 C 3.640098 -1.398454 2.178339 0
M  V30 6 C 3.521030 -2.196435 0.898511 0
M  V30 7 N 2.181068 -2.125884 0.347764 0
M  V30 8 C 2.034768 -1.521568 -0.919830 0
M  V30 9 O 3.199878 -1.177839 -1.261257 0
M  V30 10 N 0.827010 -1.344509 -1.645434 0
M  V30 11 C -0.629227 -1.559861 -1.652050 0
M  V30 12 C -1.093531 -0.177477 -1.943342 0
M  V30 13 C -2.079761 0.778018 -1.719468 0
M  V30 14 N -3.243439 0.628507 -0.912270 0
M  V30 15 C -4.202711 1.659967 -0.737805 0
M  V30 16 O -4.006982 2.755625 -1.328684 0
M  V30 17 C -5.363792 1.402274 0.113674 0
M  V30 18 C -6.305130 2.421913 0.281760 0
M  V30 19 C -7.396412 2.136227 1.100522 0
M  V30 20 C -7.539732 0.901005 1.717168 0
M  V30 21 C -6.578763 -0.068831 1.515371 0
M  V30 22 N -5.524640 0.197606 0.728535 0
M  V30 23 N -1.722346 1.873631 -2.413892 0
M  V30 24 N -0.578708 1.655016 -3.051789 0
M  V30 25 C -0.163686 0.389955 -2.778945 0
M  V30 26 C 0.824711 -0.702949 -2.945794 0
M  V30 27 C 0.344836 -1.618130 -4.053537 0
M  V30 28 C 2.149994 -0.097828 -3.329253 0
M  V30 29 C 1.310046 -2.753545 1.353197 0 CFG=1
M  V30 30 C 1.858353 -4.124496 1.751602 0
M  V30 31 C 1.341162 -1.885650 2.594300 0
M  V30 32 H 1.561449 0.569864 3.735773 0
M  V30 33 H 2.583265 0.803095 5.152242 0
M  V30 34 H 3.390828 0.818739 3.566324 0
M  V30 35 H 3.826338 -1.253443 4.736893 0
M  V30 36 H 0.786291 -1.355581 5.100170 0
M  V30 37 H 2.088551 -1.271496 6.387677 0
M  V30 38 H 1.955159 -2.751864 5.406779 0
M  V30 39 H 4.658477 -1.567494 2.576577 0
M  V30 40 H 3.456700 -0.339473 1.887841 0
M  V30 41 H 4.282706 -1.847847 0.191612 0
M  V30 42 H 3.803511 -3.259763 1.151841 0
M  V30 43 H -0.938204 -2.280332 -2.422290 0
M  V30 44 H -1.027267 -1.798694 -0.650478 0
M  V30 45 H -3.401525 -0.285059 -0.422830 0
M  V30 46 H -6.162656 3.370270 -0.212402 0
M  V30 47 H -8.146886 2.928972 1.243085 0
M  V30 48 H -8.403947 0.716990 2.347628 0
M  V30 49 H -6.649488 -1.051406 1.978238 0
M  V30 50 H -0.024134 2.292286 -3.677265 0
M  V30 51 H 0.480371 -2.693049 -3.828445 0
M  V30 52 H 0.867219 -1.377057 -5.023393 0
M  V30 53 H -0.728349 -1.455512 -4.275962 0
M  V30 54 H 2.490526 0.631272 -2.581889 0
M  V30 55 H 1.963566 0.470123 -4.264608 0
M  V30 56 H 2.903577 -0.873261 -3.581814 0
M  V30 57 H 0.295494 -2.935301 0.995804 0
M  V30 58 H 2.587702 -4.069811 2.577839 0
M  V30 59 H 1.039564 -4.797274 2.079214 0
M  V30 60 H 2.321542 -4.635037 0.881518 0
M  V30 61 H 0.674189 -2.385141 3.342601 0
M  V30 62 H 0.991960 -0.866784 2.403782 0
M  V30 END ATOM
M  V30 BEGIN BOND
M  V30 1 1 1 2
M  V30 2 1 2 3
M  V30 3 1 2 4
M  V30 4 1 4 5
M  V30 5 1 5 6
M  V30 6 1 6 7
M  V30 7 1 7 8
M  V30 8 2 8 9
M  V30 9 1 8 10
M  V30 10 1 10 11
M  V30 11 1 11 12
M  V30 12 1 12 13
M  V30 13 1 13 14
M  V30 14 1 14 15
M  V30 15 2 15 16
M  V30 16 1 15 17
M  V30 17 2 17 18
M  V30 18 1 18 19
M  V30 19 2 19 20
M  V30 20 1 20 21
M  V30 21 2 21 22
M  V30 22 2 13 23
M  V30 23 1 23 24
M  V30 24 1 24 25
M  V30 25 1 25 26
M  V30 26 1 26 27
M  V30 27 1 26 28
M  V30 28 1 7 29
M  V30 29 1 29 30
M  V30 30 1 29 31
M  V30 31 1 31 4
M  V30 32 1 26 10
M  V30 33 2 25 12
M  V30 34 1 22 17
M  V30 35 1 1 32
M  V30 36 1 1 33
M  V30 37 1 1 34
M  V30 38 1 2 35
M  V30 39 1 3 36
M  V30 40 1 3 37
M  V30 41 1 3 38
M  V30 42 1 5 39
M  V30 43 1 5 40
M  V30 44 1 6 41
M  V30 45 1 6 42
M  V30 46 1 11 43
M  V30 47 1 11 44
M  V30 48 1 14 45
M  V30 49 1 18 46
M  V30 50 1 19 47
M  V30 51 1 20 48
M  V30 52 1 21 49
M  V30 53 1 24 50
M  V30 54 1 27 51
M  V30 55 1 27 52
M  V30 56 1 27 53
M  V30 57 1 28 54
M  V30 58 1 28 55
M  V30 59 1 28 56
M  V30 60 1 29 57 CFG=3
M  V30 61 1 30 58
M  V30 62 1 30 59
M  V30 63 1 30 60
M  V30 64 1 31 61
M  V30 65 1 31 62
M  V30 END BOND
M  V30 END CTAB
M  END
>  <Dataset>  (162) 
ChEMBL_Kinases

>  <Ligand_Instance>  (162) 
nan

>  <PDB_ID>  (162) 
nan

>  <Standardized_SMILES>  (162) 
CC(C)N1CCN(C(=O)N2Cc3c(NC(=O)c4ccccn4)n[nH]c3C2(C)C)[C@@H](C)C1

>  <Name>  (162) 
nan

>  <Pocket>  (162) 
nan

>  <ATP_Site>  (162) 
nan

>  <Peripheral>  (162) 
nan

>  <Num_H_Atoms_ProtBoundConf>  (162) 
nan

>  <Num_Resolved_Atoms>  (162) 
nan

>  <Num_Not_Resolved_Atoms>  (162) 
nan

$$$$
CHEMBL3929729
     RDKit          3D

  0  0  0  0  0  0  0  0  0  0999 V3000
M  V30 BEGIN CTAB
M  V30 COUNTS 70 75 0 0 0
M  V30 BEGIN ATOM
M  V30 1 O 3.086504 -1.748955 0.920099 0
M  V30 2 C 3.936315 -2.170882 0.061187 0
M  V30 3 N 3.615377 -1.382468 -1.057019 0
M  V30 4 C 2.660026 -0.383484 -1.319963 0
M  V30 5 N 2.761732 0.940431 -1.114089 0
M  V30 6 C 1.625635 1.574805 -1.492859 0
M  V30 7 C 1.111234 2.855789 -1.531660 0
M  V30 8 C -0.158754 3.118030 -2.003007 0
M  V30 9 C -0.999745 2.121216 -2.466888 0
M  V30 10 C -2.368511 2.309100 -2.964980 0
M  V30 11 O -2.606365 1.650494 -4.173641 0
M  V30 12 C -2.520466 3.747964 -3.329995 0
M  V30 13 C -1.937185 4.663860 -4.148947 0
M  V30 14 C -2.309681 5.982315 -4.286466 0
M  V30 15 C -3.377419 6.428003 -3.524311 0
M  V30 16 C -4.032195 5.546683 -2.656368 0
M  V30 17 C -3.585823 4.244856 -2.587870 0
M  V30 18 C -4.160136 3.195365 -1.722787 0
M  V30 19 O -5.124539 3.277872 -0.922617 0
M  V30 20 N -3.388227 2.025086 -1.974493 0
M  V30 21 C -3.559993 0.763633 -1.372684 0
M  V30 22 C -2.877978 0.439876 -0.191972 0
M  V30 23 C -3.138161 -0.843333 0.302919 0
M  V30 24 C -3.985579 -1.777128 -0.265842 0
M  V30 25 C -4.629137 -1.402362 -1.427452 0
M  V30 26 Cl -5.691345 -2.617949 -2.111635 0
M  V30 27 C -4.409605 -0.148985 -1.960173 0
M  V30 28 F -5.086232 0.155445 -3.119047 0
M  V30 29 C -0.514883 0.807906 -2.443845 0
M  V30 30 C 0.756819 0.581991 -1.967105 0
M  V30 31 N 1.430555 -0.556485 -1.838424 0
M  V30 32 O 4.657920 -3.113967 0.659489 0
M  V30 33 C 4.536050 -3.594354 1.978834 0
M  V30 34 C 3.191468 -4.240794 2.193298 0
M  V30 35 C 3.151029 -4.715454 3.629461 0
M  V30 36 N 1.904934 -5.364100 3.954596 0
M  V30 37 C 1.965967 -5.762299 5.337239 0
M  V30 38 C 1.043611 -4.981992 6.221907 0
M  V30 39 C 1.014012 -3.509124 5.918389 0
M  V30 40 C 0.843666 -3.211179 4.450506 0
M  V30 41 C 0.754898 -4.538177 3.727799 0
M  V30 42 H 4.393741 -1.857479 -1.603374 0
M  V30 43 H 1.755088 3.634052 -1.174356 0
M  V30 44 H -0.546931 4.138300 -2.023539 0
M  V30 45 H -3.358389 2.077661 -4.609489 0
M  V30 46 H -1.097771 4.285264 -4.736781 0
M  V30 47 H -1.820785 6.682920 -4.948370 0
M  V30 48 H -3.749972 7.444442 -3.560794 0
M  V30 49 H -4.863075 5.923333 -2.073927 0
M  V30 50 H -2.204655 1.126326 0.297732 0
M  V30 51 H -2.580260 -1.047283 1.229814 0
M  V30 52 H -4.034896 -2.700401 0.285103 0
M  V30 53 H -1.130391 -0.009117 -2.796537 0
M  V30 54 H 1.076949 -1.493119 -2.096296 0
M  V30 55 H 4.730077 -2.808878 2.731029 0
M  V30 56 H 5.288512 -4.420732 2.054056 0
M  V30 57 H 2.322233 -3.641411 1.956145 0
M  V30 58 H 3.097927 -5.173204 1.564529 0
M  V30 59 H 3.945795 -5.480125 3.742718 0
M  V30 60 H 3.319178 -3.897696 4.324871 0
M  V30 61 H 1.737477 -6.838024 5.458806 0
M  V30 62 H 3.003333 -5.625849 5.764621 0
M  V30 63 H 0.009728 -5.418237 6.263722 0
M  V30 64 H 1.421365 -5.085477 7.270860 0
M  V30 65 H 0.092024 -3.123066 6.444130 0
M  V30 66 H 1.878035 -2.967291 6.331223 0
M  V30 67 H 1.682069 -2.609958 4.044481 0
M  V30 68 H -0.068397 -2.612873 4.258470 0
M  V30 69 H -0.104278 -5.079533 4.186227 0
M  V30 70 H 0.502248 -4.424119 2.653847 0
M  V30 END ATOM
M  V30 BEGIN BOND
M  V30 1 2 1 2
M  V30 2 1 2 3
M  V30 3 1 3 4
M  V30 4 2 4 5
M  V30 5 1 5 6
M  V30 6 2 6 7
M  V30 7 1 7 8
M  V30 8 2 8 9
M  V30 9 1 9 10
M  V30 10 1 10 11
M  V30 11 1 10 12
M  V30 12 2 12 13
M  V30 13 1 13 14
M  V30 14 2 14 15
M  V30 15 1 15 16
M  V30 16 2 16 17
M  V30 17 1 17 18
M  V30 18 2 18 19
M  V30 19 1 18 20
M  V30 20 1 20 21
M  V30 21 2 21 22
M  V30 22 1 22 23
M  V30 23 2 23 24
M  V30 24 1 24 25
M  V30 25 1 25 26
M  V30 26 2 25 27
M  V30 27 1 27 28
M  V30 28 1 9 29
M  V30 29 2 29 30
M  V30 30 1 30 31
M  V30 31 1 2 32
M  V30 32 1 32 33
M  V30 33 1 33 34
M  V30 34 1 34 35
M  V30 35 1 35 36
M  V30 36 1 36 37
M  V30 37 1 37 38
M  V30 38 1 38 39
M  V30 39 1 39 40
M  V30 40 1 40 41
M  V30 41 1 31 4
M  V30 42 1 41 36
M  V30 43 1 30 6
M  V30 44 1 20 10
M  V30 45 1 27 21
M  V30 46 1 17 12
M  V30 47 1 3 42
M  V30 48 1 7 43
M  V30 49 1 8 44
M  V30 50 1 11 45
M  V30 51 1 13 46
M  V30 52 1 14 47
M  V30 53 1 15 48
M  V30 54 1 16 49
M  V30 55 1 22 50
M  V30 56 1 23 51
M  V30 57 1 24 52
M  V30 58 1 29 53
M  V30 59 1 31 54
M  V30 60 1 33 55
M  V30 61 1 33 56
M  V30 62 1 34 57
M  V30 63 1 34 58
M  V30 64 1 35 59
M  V30 65 1 35 60
M  V30 66 1 37 61
M  V30 67 1 37 62
M  V30 68 1 38 63
M  V30 69 1 38 64
M  V30 70 1 39 65
M  V30 71 1 39 66
M  V30 72 1 40 67
M  V30 73 1 40 68
M  V30 74 1 41 69
M  V30 75 1 41 70
M  V30 END BOND
M  V30 END CTAB
M  END
>  <Dataset>  (163) 
ChEMBL_Kinases

>  <Ligand_Instance>  (163) 
nan

>  <PDB_ID>  (163) 
nan

>  <Standardized_SMILES>  (163) 
O=C(Nc1nc2ccc(C3(O)c4ccccc4C(=O)N3c3cccc(Cl)c3F)cc2[nH]1)OCCCN1CCCCC1

>  <Name>  (163) 
nan

>  <Pocket>  (163) 
nan

>  <ATP_Site>  (163) 
nan

>  <Peripheral>  (163) 
nan

>  <Num_H_Atoms_ProtBoundConf>  (163) 
nan

>  <Num_Resolved_Atoms>  (163) 
nan

>  <Num_Not_Resolved_Atoms>  (163) 
nan

$$$$
CHEMBL3928712
     RDKit          3D

  0  0  0  0  0  0  0  0  0  0999 V3000
M  V30 BEGIN CTAB
M  V30 COUNTS 44 48 0 0 0
M  V30 BEGIN ATOM
M  V30 1 O -1.626370 -1.598478 3.237894 0
M  V30 2 C -0.549677 -1.382398 2.585836 0
M  V30 3 C 0.763841 -1.628740 3.113338 0
M  V30 4 C 1.342917 -2.091134 4.262033 0
M  V30 5 C 2.720168 -2.187938 4.394668 0
M  V30 6 C 3.562455 -1.818116 3.363810 0
M  V30 7 C 2.979845 -1.349092 2.198323 0
M  V30 8 C 1.603699 -1.260173 2.086064 0
M  V30 9 C 0.910464 -0.758220 0.846592 0
M  V30 10 O 1.242630 -1.590873 -0.195595 0
M  V30 11 C 1.283078 0.663247 0.585205 0
M  V30 12 C 0.893098 1.610481 1.509233 0
M  V30 13 C 1.229326 2.949970 1.288488 0
M  V30 14 C 1.941627 3.301994 0.157097 0
M  V30 15 N 2.394520 4.502063 -0.301435 0
M  V30 16 C 3.045330 4.318788 -1.470173 0
M  V30 17 N 3.006001 3.003909 -1.753783 0
M  V30 18 C 2.329627 2.353500 -0.763806 0
M  V30 19 C 1.993436 1.034237 -0.537835 0
M  V30 20 N -0.501549 -0.865460 1.240603 0
M  V30 21 C -1.684472 -0.534508 0.477723 0
M  V30 22 C -2.219064 -1.642730 -0.320207 0
M  V30 23 C -1.901642 -1.976080 -1.621689 0
M  V30 24 C -2.473958 -3.049519 -2.269906 0
M  V30 25 C -3.409926 -3.840318 -1.604618 0
M  V30 26 C -3.760689 -3.548822 -0.304036 0
M  V30 27 C -3.156704 -2.464226 0.293811 0
M  V30 28 H 0.671524 -2.379260 5.066646 0
M  V30 29 H 3.114159 -2.565197 5.338481 0
M  V30 30 H 4.622161 -1.931334 3.566108 0
M  V30 31 H 3.699225 -1.075361 1.427237 0
M  V30 32 H 0.998044 -1.240423 -1.079887 0
M  V30 33 H 0.339440 1.402047 2.406325 0
M  V30 34 H 0.957679 3.763110 1.972961 0
M  V30 35 H 2.280442 5.438663 0.145135 0
M  V30 36 H 3.544717 5.001538 -2.146750 0
M  V30 37 H 2.303673 0.314447 -1.263432 0
M  V30 38 H -1.513408 0.313767 -0.216116 0
M  V30 39 H -2.456933 -0.176266 1.187903 0
M  V30 40 H -1.170353 -1.334538 -2.099833 0
M  V30 41 H -2.164217 -3.235445 -3.290613 0
M  V30 42 H -3.824807 -4.663952 -2.155355 0
M  V30 43 H -4.482285 -4.162922 0.201125 0
M  V30 44 H -3.479191 -2.291058 1.320017 0
M  V30 END ATOM
M  V30 BEGIN BOND
M  V30 1 2 1 2
M  V30 2 1 2 3
M  V30 3 2 3 4
M  V30 4 1 4 5
M  V30 5 2 5 6
M  V30 6 1 6 7
M  V30 7 2 7 8
M  V30 8 1 8 9
M  V30 9 1 9 10
M  V30 10 1 9 11
M  V30 11 2 11 12
M  V30 12 1 12 13
M  V30 13 2 13 14
M  V30 14 1 14 15
M  V30 15 1 15 16
M  V30 16 2 16 17
M  V30 17 1 17 18
M  V30 18 2 18 19
M  V30 19 1 9 20
M  V30 20 1 20 21
M  V30 21 1 21 22
M  V30 22 2 22 23
M  V30 23 1 23 24
M  V30 24 2 24 25
M  V30 25 1 25 26
M  V30 26 2 26 27
M  V30 27 1 20 2
M  V30 28 1 27 22
M  V30 29 1 8 3
M  V30 30 1 19 11
M  V30 31 1 18 14
M  V30 32 1 4 28
M  V30 33 1 5 29
M  V30 34 1 6 30
M  V30 35 1 7 31
M  V30 36 1 10 32
M  V30 37 1 12 33
M  V30 38 1 13 34
M  V30 39 1 15 35
M  V30 40 1 16 36
M  V30 41 1 19 37
M  V30 42 1 21 38
M  V30 43 1 21 39
M  V30 44 1 23 40
M  V30 45 1 24 41
M  V30 46 1 25 42
M  V30 47 1 26 43
M  V30 48 1 27 44
M  V30 END BOND
M  V30 END CTAB
M  END
>  <Dataset>  (164) 
ChEMBL_Kinases

>  <Ligand_Instance>  (164) 
nan

>  <PDB_ID>  (164) 
nan

>  <Standardized_SMILES>  (164) 
O=C1c2ccccc2C(O)(c2ccc3[nH]cnc3c2)N1Cc1ccccc1

>  <Name>  (164) 
nan

>  <Pocket>  (164) 
nan

>  <ATP_Site>  (164) 
nan

>  <Peripheral>  (164) 
nan

>  <Num_H_Atoms_ProtBoundConf>  (164) 
nan

>  <Num_Resolved_Atoms>  (164) 
nan

>  <Num_Not_Resolved_Atoms>  (164) 
nan

$$$$
CHEMBL3929689
     RDKit          3D

  0  0  0  0  0  0  0  0  0  0999 V3000
M  V30 BEGIN CTAB
M  V30 COUNTS 66 69 0 0 0
M  V30 BEGIN ATOM
M  V30 1 C 0.273664 -4.035688 0.671880 0
M  V30 2 C 0.928635 -2.910096 -0.031947 0
M  V30 3 C 2.028955 -3.314483 -0.798308 0
M  V30 4 C 2.701839 -2.298396 -1.486209 0
M  V30 5 C 2.335811 -0.950507 -1.441670 0
M  V30 6 N 3.133121 -0.059041 -2.206718 0
M  V30 7 C 4.297575 0.694659 -1.960403 0
M  V30 8 O 4.758124 0.565537 -0.805291 0
M  V30 9 C 4.814598 1.513782 -3.050618 0
M  V30 10 C 4.328918 1.689741 -4.340367 0
M  V30 11 C 4.989740 2.518744 -5.207318 0
M  V30 12 N 6.105844 3.204148 -4.919413 0
M  V30 13 C 6.609876 3.060612 -3.679118 0
M  V30 14 C 7.851641 3.788290 -3.265146 0
M  V30 15 F 7.770807 4.241728 -1.964189 0
M  V30 16 F 8.885243 2.906924 -3.396027 0
M  V30 17 F 8.028171 4.875267 -4.066822 0
M  V30 18 C 5.979880 2.227995 -2.747381 0
M  V30 19 C 1.256155 -0.616381 -0.678940 0
M  V30 20 C 0.551417 -1.573825 0.022556 0
M  V30 21 C -0.614885 -1.244530 0.829332 0
M  V30 22 C -1.850140 -1.915633 0.738790 0
M  V30 23 C -2.926153 -1.587082 1.523753 0
M  V30 24 O -3.995054 -2.375543 1.250715 0
M  V30 25 C -5.269712 -2.421162 1.767563 0
M  V30 26 C -6.126371 -3.504321 1.131468 0
M  V30 27 O -5.581397 -4.763594 1.315853 0
M  V30 28 P -6.298991 -5.966090 0.386045 0
M  V30 29 O -5.499131 -7.232000 0.634830 0
M  V30 30 O -6.175275 -5.630356 -1.269941 0
M  V30 31 O -7.898266 -6.273340 0.806117 0
M  V30 32 N -2.850037 -0.580610 2.441165 0
M  V30 33 C -1.698272 0.111649 2.587919 0
M  V30 34 N -1.609805 1.169527 3.542274 0
M  V30 35 C -0.320276 1.775132 3.824300 0
M  V30 36 C -0.264600 2.331117 5.230289 0
M  V30 37 O -1.465139 2.930893 5.594913 0
M  V30 38 C -2.467086 1.942151 5.637183 0
M  V30 39 C -2.818475 1.623568 4.203248 0
M  V30 40 C -0.626414 -0.227102 1.795786 0
M  V30 41 H 1.058377 -4.706176 1.101550 0
M  V30 42 H -0.277678 -3.622987 1.538782 0
M  V30 43 H -0.395439 -4.619148 0.012427 0
M  V30 44 H 2.370053 -4.338512 -0.881784 0
M  V30 45 H 3.565871 -2.602905 -2.091049 0
M  V30 46 H 2.588402 -0.090604 -3.121068 0
M  V30 47 H 3.437278 1.123676 -4.523749 0
M  V30 48 H 4.578825 2.628239 -6.194508 0
M  V30 49 H 6.452962 2.169772 -1.770817 0
M  V30 50 H 0.964968 0.424455 -0.639863 0
M  V30 51 H -1.831910 -2.699554 -0.017403 0
M  V30 52 H -5.268752 -2.479745 2.856241 0
M  V30 53 H -5.793936 -1.458596 1.521302 0
M  V30 54 H -7.149157 -3.514577 1.551707 0
M  V30 55 H -6.194891 -3.349913 0.039175 0
M  V30 56 H -7.095143 -5.547465 -1.627780 0
M  V30 57 H -7.920007 -7.005790 1.471344 0
M  V30 58 H -0.098367 2.581305 3.087527 0
M  V30 59 H 0.494762 1.026269 3.754892 0
M  V30 60 H -0.002601 1.570690 5.969289 0
M  V30 61 H 0.519426 3.109011 5.249184 0
M  V30 62 H -3.335402 2.282276 6.232872 0
M  V30 63 H -1.971482 1.037378 6.057644 0
M  V30 64 H -3.638889 0.898744 4.114268 0
M  V30 65 H -3.091492 2.610854 3.725971 0
M  V30 66 H 0.316469 0.307318 1.880934 0
M  V30 END ATOM
M  V30 BEGIN BOND
M  V30 1 1 1 2
M  V30 2 2 2 3
M  V30 3 1 3 4
M  V30 4 2 4 5
M  V30 5 1 5 6
M  V30 6 1 6 7
M  V30 7 2 7 8
M  V30 8 1 7 9
M  V30 9 2 9 10
M  V30 10 1 10 11
M  V30 11 2 11 12
M  V30 12 1 12 13
M  V30 13 1 13 14
M  V30 14 1 14 15
M  V30 15 1 14 16
M  V30 16 1 14 17
M  V30 17 2 13 18
M  V30 18 1 5 19
M  V30 19 2 19 20
M  V30 20 1 20 21
M  V30 21 2 21 22
M  V30 22 1 22 23
M  V30 23 1 23 24
M  V30 24 1 24 25
M  V30 25 1 25 26
M  V30 26 1 26 27
M  V30 27 1 27 28
M  V30 28 2 28 29
M  V30 29 1 28 30
M  V30 30 1 28 31
M  V30 31 2 23 32
M  V30 32 1 32 33
M  V30 33 1 33 34
M  V30 34 1 34 35
M  V30 35 1 35 36
M  V30 36 1 36 37
M  V30 37 1 37 38
M  V30 38 1 38 39
M  V30 39 2 33 40
M  V30 40 1 20 2
M  V30 41 1 40 21
M  V30 42 1 18 9
M  V30 43 1 39 34
M  V30 44 1 1 41
M  V30 45 1 1 42
M  V30 46 1 1 43
M  V30 47 1 3 44
M  V30 48 1 4 45
M  V30 49 1 6 46
M  V30 50 1 10 47
M  V30 51 1 11 48
M  V30 52 1 18 49
M  V30 53 1 19 50
M  V30 54 1 22 51
M  V30 55 1 25 52
M  V30 56 1 25 53
M  V30 57 1 26 54
M  V30 58 1 26 55
M  V30 59 1 30 56
M  V30 60 1 31 57
M  V30 61 1 35 58
M  V30 62 1 35 59
M  V30 63 1 36 60
M  V30 64 1 36 61
M  V30 65 1 38 62
M  V30 66 1 38 63
M  V30 67 1 39 64
M  V30 68 1 39 65
M  V30 69 1 40 66
M  V30 END BOND
M  V30 END CTAB
M  END
>  <Dataset>  (165) 
ChEMBL_Kinases

>  <Ligand_Instance>  (165) 
nan

>  <PDB_ID>  (165) 
nan

>  <Standardized_SMILES>  (165) 
Cc1ccc(NC(=O)c2ccnc(C(F)(F)F)c2)cc1-c1cc(OCCOP(=O)(O)O)nc(N2CCOCC2)c1

>  <Name>  (165) 
nan

>  <Pocket>  (165) 
nan

>  <ATP_Site>  (165) 
nan

>  <Peripheral>  (165) 
nan

>  <Num_H_Atoms_ProtBoundConf>  (165) 
nan

>  <Num_Resolved_Atoms>  (165) 
nan

>  <Num_Not_Resolved_Atoms>  (165) 
nan

$$$$
CHEMBL3929632
     RDKit          3D

  0  0  0  0  0  0  0  0  0  0999 V3000
M  V30 BEGIN CTAB
M  V30 COUNTS 53 56 0 0 0
M  V30 BEGIN ATOM
M  V30 1 O 2.436813 -1.863815 -1.807594 0
M  V30 2 C 1.860158 -1.699763 -0.674568 0
M  V30 3 O 2.774934 -1.913529 0.363324 0
M  V30 4 C 0.550596 -1.359160 -0.051013 0 CFG=2
M  V30 5 C 0.699929 -0.158555 0.839802 0
M  V30 6 C 1.151789 1.063143 0.190231 0
M  V30 7 C 1.483961 1.423555 -1.093493 0
M  V30 8 C 1.894742 2.668808 -1.505516 0
M  V30 9 C 1.972494 3.628214 -0.520480 0
M  V30 10 C 1.645176 3.294125 0.774503 0
M  V30 11 N 1.776796 4.395180 1.672935 0
M  V30 12 C 2.889196 4.839933 2.449060 0
M  V30 13 C 2.863704 5.950578 3.293819 0
M  V30 14 C 4.142332 5.966536 3.804740 0
M  V30 15 N 4.867337 4.958403 3.311668 0
M  V30 16 N 4.102712 4.260782 2.476618 0
M  V30 17 N 1.248836 2.058841 1.122770 0
M  V30 18 C 0.197688 -2.603771 0.788592 0
M  V30 19 C -0.333166 -3.647548 -0.167277 0
M  V30 20 C -1.793979 -3.269010 -0.450115 0 CFG=1
M  V30 21 O -2.517836 -3.751782 0.656232 0
M  V30 22 C -3.514289 -4.682447 0.475603 0
M  V30 23 C -4.054750 -5.341218 -0.606412 0
M  V30 24 C -5.078656 -6.244153 -0.451168 0
M  V30 25 C -5.625412 -6.545760 0.785271 0
M  V30 26 C -5.097821 -5.896339 1.881995 0
M  V30 27 Cl -5.843776 -6.333686 3.403942 0
M  V30 28 C -4.054075 -4.975089 1.729007 0
M  V30 29 F -3.701040 -4.464398 2.949131 0
M  V30 30 C -1.838685 -1.762656 -0.540002 0
M  V30 31 C -0.554965 -1.136435 -1.016354 0
M  V30 32 H 3.742320 -2.104167 0.228558 0
M  V30 33 H 1.454416 -0.451134 1.632709 0
M  V30 34 H -0.255521 0.057667 1.396364 0
M  V30 35 H 1.385113 0.602408 -1.780788 0
M  V30 36 H 2.111221 2.765270 -2.544975 0
M  V30 37 H 2.299408 4.617980 -0.850196 0
M  V30 38 H 0.871715 4.889222 1.699970 0
M  V30 39 H 2.030714 6.629460 3.491403 0
M  V30 40 H 4.453877 6.739662 4.521222 0
M  V30 41 H 5.878438 4.808759 3.590801 0
M  V30 42 H -0.619368 -2.278723 1.460588 0
M  V30 43 H 1.089233 -2.948550 1.343800 0
M  V30 44 H 0.246169 -3.670550 -1.116145 0
M  V30 45 H -0.296528 -4.645336 0.300333 0
M  V30 46 H -2.118550 -3.714361 -1.414795 0
M  V30 47 H -3.581938 -5.055777 -1.518153 0
M  V30 48 H -5.403014 -6.682295 -1.374041 0
M  V30 49 H -6.428187 -7.269999 0.802559 0
M  V30 50 H -2.085091 -1.319141 0.445893 0
M  V30 51 H -2.656826 -1.418379 -1.221664 0
M  V30 52 H -0.308965 -1.396385 -2.062687 0
M  V30 53 H -0.773314 -0.028595 -1.048407 0
M  V30 END ATOM
M  V30 BEGIN BOND
M  V30 1 2 1 2
M  V30 2 1 2 3
M  V30 3 1 2 4
M  V30 4 1 4 5 CFG=1
M  V30 5 1 5 6
M  V30 6 2 6 7
M  V30 7 1 7 8
M  V30 8 2 8 9
M  V30 9 1 9 10
M  V30 10 1 10 11
M  V30 11 1 11 12
M  V30 12 1 12 13
M  V30 13 2 13 14
M  V30 14 1 14 15
M  V30 15 1 15 16
M  V30 16 2 10 17
M  V30 17 1 4 18
M  V30 18 1 18 19
M  V30 19 1 19 20
M  V30 20 1 20 21
M  V30 21 1 21 22
M  V30 22 2 22 23
M  V30 23 1 23 24
M  V30 24 2 24 25
M  V30 25 1 25 26
M  V30 26 1 26 27
M  V30 27 2 26 28
M  V30 28 1 28 29
M  V30 29 1 20 30
M  V30 30 1 30 31
M  V30 31 1 31 4
M  V30 32 1 17 6
M  V30 33 1 28 22
M  V30 34 2 16 12
M  V30 35 1 3 32
M  V30 36 1 5 33
M  V30 37 1 5 34
M  V30 38 1 7 35
M  V30 39 1 8 36
M  V30 40 1 9 37
M  V30 41 1 11 38
M  V30 42 1 13 39
M  V30 43 1 14 40
M  V30 44 1 15 41
M  V30 45 1 18 42
M  V30 46 1 18 43
M  V30 47 1 19 44
M  V30 48 1 19 45
M  V30 49 1 20 46 CFG=3
M  V30 50 1 23 47
M  V30 51 1 24 48
M  V30 52 1 25 49
M  V30 53 1 30 50
M  V30 54 1 30 51
M  V30 55 1 31 52
M  V30 56 1 31 53
M  V30 END BOND
M  V30 END CTAB
M  END
>  <Dataset>  (166) 
ChEMBL_Kinases

>  <Ligand_Instance>  (166) 
nan

>  <PDB_ID>  (166) 
nan

>  <Standardized_SMILES>  (166) 
O=C(O)[C@]1(Cc2cccc(Nc3cc[nH]n3)n2)CC[C@@H](Oc2cccc(Cl)c2F)CC1

>  <Name>  (166) 
nan

>  <Pocket>  (166) 
nan

>  <ATP_Site>  (166) 
nan

>  <Peripheral>  (166) 
nan

>  <Num_H_Atoms_ProtBoundConf>  (166) 
nan

>  <Num_Resolved_Atoms>  (166) 
nan

>  <Num_Not_Resolved_Atoms>  (166) 
nan

$$$$
CHEMBL3929480
     RDKit          3D

  0  0  0  0  0  0  0  0  0  0999 V3000
M  V30 BEGIN CTAB
M  V30 COUNTS 48 52 0 0 0
M  V30 BEGIN ATOM
M  V30 1 N 2.032056 -8.672225 1.289315 0
M  V30 2 C 3.158198 -7.866122 0.970100 0
M  V30 3 O 4.274623 -8.420505 0.873698 0
M  V30 4 C 2.980724 -6.442915 0.767702 0
M  V30 5 C 4.083986 -5.672820 0.451107 0
M  V30 6 C 3.979704 -4.317046 0.248599 0
M  V30 7 C 2.755614 -3.686843 0.358344 0
M  V30 8 N 2.415668 -2.400029 0.208942 0
M  V30 9 C 1.090482 -2.359172 0.432496 0
M  V30 10 C 0.288229 -1.139175 0.375514 0
M  V30 11 C 0.914534 0.073632 0.076460 0
M  V30 12 C 0.158049 1.238633 0.020003 0
M  V30 13 C -1.202275 1.246834 0.250082 0
M  V30 14 C -2.055306 2.460713 0.203087 0
M  V30 15 C -1.601166 3.386427 1.284036 0
M  V30 16 C -1.655846 3.045926 2.616067 0
M  V30 17 C -1.222649 3.943206 3.584760 0
M  V30 18 C -0.746248 5.157331 3.197555 0
M  V30 19 Cl -0.193118 6.303244 4.428197 0
M  V30 20 C -0.662356 5.566120 1.881406 0
M  V30 21 C -1.107986 4.633484 0.943925 0
M  V30 22 O -3.376491 2.084170 0.365539 0
M  V30 23 C -4.064500 2.411568 -0.774568 0
M  V30 24 C -3.144405 3.269407 -1.587107 0
M  V30 25 O -1.909804 3.064527 -1.027503 0
M  V30 26 C -1.748356 0.015387 0.538460 0
M  V30 27 C -1.069104 -1.181565 0.612964 0
M  V30 28 N 0.629928 -3.591517 0.711963 0
M  V30 29 C 1.664240 -4.478391 0.676125 0
M  V30 30 C 1.745941 -5.841136 0.883683 0
M  V30 31 H 1.654866 -9.621850 1.095187 0
M  V30 32 H 1.167514 -8.564746 1.856894 0
M  V30 33 H 5.039113 -6.152041 0.363355 0
M  V30 34 H 4.906471 -3.783602 0.001005 0
M  V30 35 H 3.030295 -1.594320 -0.028607 0
M  V30 36 H 1.969283 0.144759 -0.114080 0
M  V30 37 H 0.636744 2.189127 -0.212986 0
M  V30 38 H -2.032629 2.089534 2.892113 0
M  V30 39 H -1.253325 3.704116 4.639809 0
M  V30 40 H -0.286193 6.528684 1.553457 0
M  V30 41 H -1.069761 4.887630 -0.092267 0
M  V30 42 H -4.397359 1.495754 -1.312959 0
M  V30 43 H -4.996392 2.978317 -0.571699 0
M  V30 44 H -3.415886 4.342938 -1.488572 0
M  V30 45 H -3.101026 2.959407 -2.655334 0
M  V30 46 H -2.829348 -0.067073 0.734645 0
M  V30 47 H -1.560720 -2.102022 0.842015 0
M  V30 48 H 0.870009 -6.432971 1.131797 0
M  V30 END ATOM
M  V30 BEGIN BOND
M  V30 1 1 1 2
M  V30 2 2 2 3
M  V30 3 1 2 4
M  V30 4 2 4 5
M  V30 5 1 5 6
M  V30 6 2 6 7
M  V30 7 1 7 8
M  V30 8 1 8 9
M  V30 9 1 9 10
M  V30 10 2 10 11
M  V30 11 1 11 12
M  V30 12 2 12 13
M  V30 13 1 13 14
M  V30 14 1 14 15
M  V30 15 2 15 16
M  V30 16 1 16 17
M  V30 17 2 17 18
M  V30 18 1 18 19
M  V30 19 1 18 20
M  V30 20 2 20 21
M  V30 21 1 14 22
M  V30 22 1 22 23
M  V30 23 1 23 24
M  V30 24 1 24 25
M  V30 25 1 13 26
M  V30 26 2 26 27
M  V30 27 2 9 28
M  V30 28 1 28 29
M  V30 29 2 29 30
M  V30 30 1 30 4
M  V30 31 1 29 7
M  V30 32 1 27 10
M  V30 33 1 25 14
M  V30 34 1 21 15
M  V30 35 1 1 31
M  V30 36 1 1 32
M  V30 37 1 5 33
M  V30 38 1 6 34
M  V30 39 1 8 35
M  V30 40 1 11 36
M  V30 41 1 12 37
M  V30 42 1 16 38
M  V30 43 1 17 39
M  V30 44 1 20 40
M  V30 45 1 21 41
M  V30 46 1 23 42
M  V30 47 1 23 43
M  V30 48 1 24 44
M  V30 49 1 24 45
M  V30 50 1 26 46
M  V30 51 1 27 47
M  V30 52 1 30 48
M  V30 END BOND
M  V30 END CTAB
M  END
>  <Dataset>  (167) 
ChEMBL_Kinases

>  <Ligand_Instance>  (167) 
nan

>  <PDB_ID>  (167) 
nan

>  <Standardized_SMILES>  (167) 
NC(=O)c1ccc2[nH]c(-c3ccc(C4(c5ccc(Cl)cc5)OCCO4)cc3)nc2c1

>  <Name>  (167) 
nan

>  <Pocket>  (167) 
nan

>  <ATP_Site>  (167) 
nan

>  <Peripheral>  (167) 
nan

>  <Num_H_Atoms_ProtBoundConf>  (167) 
nan

>  <Num_Resolved_Atoms>  (167) 
nan

>  <Num_Not_Resolved_Atoms>  (167) 
nan

$$$$
CHEMBL3929382
     RDKit          3D

  0  0  0  0  0  0  0  0  0  0999 V3000
M  V30 BEGIN CTAB
M  V30 COUNTS 53 57 0 0 0
M  V30 BEGIN ATOM
M  V30 1 N 4.377419 -6.707404 5.756768 0
M  V30 2 C 4.836411 -5.450490 6.230502 0
M  V30 3 O 5.565935 -5.334986 7.240301 0
M  V30 4 C 4.430506 -4.258339 5.496131 0
M  V30 5 C 4.856149 -2.989996 5.891893 0
M  V30 6 C 4.485078 -1.837111 5.212780 0
M  V30 7 C 3.661177 -2.006577 4.108010 0
M  V30 8 N 3.131662 -1.092932 3.247779 0
M  V30 9 C 2.379281 -1.684914 2.305168 0
M  V30 10 C 1.647658 -1.065683 1.211287 0
M  V30 11 C 1.642552 0.292917 0.989129 0
M  V30 12 C 0.939385 0.841159 -0.049962 0
M  V30 13 C 0.207916 0.095480 -0.922701 0
M  V30 14 N -0.531205 0.633759 -2.009491 0
M  V30 15 C -0.582717 2.013771 -2.391854 0
M  V30 16 C -1.993916 2.574477 -2.380664 0
M  V30 17 N -2.932979 1.509869 -2.771613 0
M  V30 18 C -4.253019 1.581324 -2.250706 0
M  V30 19 C -4.683588 2.765664 -1.690362 0
M  V30 20 C -5.952630 2.931766 -1.185128 0
M  V30 21 C -6.879411 1.911972 -1.210011 0
M  V30 22 C -6.479934 0.718208 -1.762234 0
M  V30 23 Cl -7.627134 -0.591406 -1.810392 0
M  V30 24 C -5.203396 0.585437 -2.258230 0
M  V30 25 Cl -4.796170 -0.961423 -2.909805 0
M  V30 26 C -2.325293 0.554012 -3.663905 0
M  V30 27 C -1.336293 -0.257395 -2.847197 0
M  V30 28 C 0.212045 -1.263971 -0.702484 0
M  V30 29 C 0.912395 -1.837637 0.337015 0
M  V30 30 N 2.428083 -3.003017 2.566796 0
M  V30 31 C 3.192199 -3.235217 3.647402 0
M  V30 32 C 3.615563 -4.316702 4.387767 0
M  V30 33 H 4.601698 -7.634173 5.342280 0
M  V30 34 H 3.387403 -7.065548 5.720268 0
M  V30 35 H 5.496714 -2.998659 6.767268 0
M  V30 36 H 4.831681 -0.889638 5.548686 0
M  V30 37 H 3.267237 -0.053887 3.279133 0
M  V30 38 H 2.230795 0.877637 1.692360 0
M  V30 39 H 0.988810 1.905927 -0.152437 0
M  V30 40 H 0.018173 2.670226 -1.764469 0
M  V30 41 H -0.163185 2.119406 -3.431849 0
M  V30 42 H -2.275271 2.865844 -1.349257 0
M  V30 43 H -2.136537 3.393569 -3.105876 0
M  V30 44 H -4.094252 3.667094 -1.591460 0
M  V30 45 H -6.309947 3.859869 -0.739427 0
M  V30 46 H -7.865377 2.034952 -0.819816 0
M  V30 47 H -1.684479 1.145539 -4.385765 0
M  V30 48 H -2.993831 -0.025951 -4.286516 0
M  V30 49 H -1.860147 -0.989801 -2.202568 0
M  V30 50 H -0.643610 -0.823352 -3.497600 0
M  V30 51 H -0.320344 -1.978634 -1.312334 0
M  V30 52 H 0.921888 -2.923585 0.520994 0
M  V30 53 H 3.244920 -5.285432 4.023995 0
M  V30 END ATOM
M  V30 BEGIN BOND
M  V30 1 1 1 2
M  V30 2 2 2 3
M  V30 3 1 2 4
M  V30 4 2 4 5
M  V30 5 1 5 6
M  V30 6 2 6 7
M  V30 7 1 7 8
M  V30 8 1 8 9
M  V30 9 1 9 10
M  V30 10 2 10 11
M  V30 11 1 11 12
M  V30 12 2 12 13
M  V30 13 1 13 14
M  V30 14 1 14 15
M  V30 15 1 15 16
M  V30 16 1 16 17
M  V30 17 1 17 18
M  V30 18 2 18 19
M  V30 19 1 19 20
M  V30 20 2 20 21
M  V30 21 1 21 22
M  V30 22 1 22 23
M  V30 23 2 22 24
M  V30 24 1 24 25
M  V30 25 1 17 26
M  V30 26 1 26 27
M  V30 27 1 13 28
M  V30 28 2 28 29
M  V30 29 2 9 30
M  V30 30 1 30 31
M  V30 31 2 31 32
M  V30 32 1 32 4
M  V30 33 1 31 7
M  V30 34 1 29 10
M  V30 35 1 27 14
M  V30 36 1 24 18
M  V30 37 1 1 33
M  V30 38 1 1 34
M  V30 39 1 5 35
M  V30 40 1 6 36
M  V30 41 1 8 37
M  V30 42 1 11 38
M  V30 43 1 12 39
M  V30 44 1 15 40
M  V30 45 1 15 41
M  V30 46 1 16 42
M  V30 47 1 16 43
M  V30 48 1 19 44
M  V30 49 1 20 45
M  V30 50 1 21 46
M  V30 51 1 26 47
M  V30 52 1 26 48
M  V30 53 1 27 49
M  V30 54 1 27 50
M  V30 55 1 28 51
M  V30 56 1 29 52
M  V30 57 1 32 53
M  V30 END BOND
M  V30 END CTAB
M  END
>  <Dataset>  (168) 
ChEMBL_Kinases

>  <Ligand_Instance>  (168) 
nan

>  <PDB_ID>  (168) 
nan

>  <Standardized_SMILES>  (168) 
NC(=O)c1ccc2[nH]c(-c3ccc(N4CCN(c5cccc(Cl)c5Cl)CC4)cc3)nc2c1

>  <Name>  (168) 
nan

>  <Pocket>  (168) 
nan

>  <ATP_Site>  (168) 
nan

>  <Peripheral>  (168) 
nan

>  <Num_H_Atoms_ProtBoundConf>  (168) 
nan

>  <Num_Resolved_Atoms>  (168) 
nan

>  <Num_Not_Resolved_Atoms>  (168) 
nan

$$$$
CHEMBL3929268
     RDKit          3D

  0  0  0  0  0  0  0  0  0  0999 V3000
M  V30 BEGIN CTAB
M  V30 COUNTS 53 57 0 0 0
M  V30 BEGIN ATOM
M  V30 1 N 6.954098 -4.385476 5.094118 0
M  V30 2 C 6.964466 -2.989361 5.342879 0
M  V30 3 O 7.744337 -2.499288 6.186832 0
M  V30 4 C 6.046795 -2.131033 4.594765 0
M  V30 5 C 6.032260 -0.762723 4.795230 0
M  V30 6 C 5.183157 0.102454 4.114961 0
M  V30 7 C 4.303152 -0.450823 3.182514 0
M  V30 8 N 3.379078 0.147032 2.388783 0
M  V30 9 C 2.817239 -0.856868 1.691962 0
M  V30 10 C 1.753165 -0.689887 0.696051 0
M  V30 11 C 1.266410 0.577165 0.423705 0
M  V30 12 C 0.260134 0.730689 -0.518376 0
M  V30 13 C -0.256586 -0.361320 -1.182184 0
M  V30 14 N -1.284655 -0.195055 -2.149094 0
M  V30 15 C -1.829200 1.049570 -2.652043 0
M  V30 16 C -3.116586 1.297601 -1.927312 0
M  V30 17 N -3.918656 0.075532 -2.025621 0
M  V30 18 C -5.112134 0.124528 -1.247449 0
M  V30 19 C -5.415053 1.207380 -0.474990 0
M  V30 20 C -6.574655 1.289635 0.297573 0
M  V30 21 C -7.470926 0.260941 0.307530 0
M  V30 22 F -8.599502 0.329969 1.053337 0
M  V30 23 C -7.187844 -0.838185 -0.461223 0
M  V30 24 C -6.046521 -0.887880 -1.204923 0
M  V30 25 C -3.504589 -1.033353 -2.837247 0
M  V30 26 C -2.006813 -1.251720 -2.827727 0
M  V30 27 C 0.229191 -1.620986 -0.909602 0
M  V30 28 C 1.234193 -1.784521 0.029722 0
M  V30 29 N 3.380025 -2.027596 2.049058 0
M  V30 30 C 4.332776 -1.800328 2.999547 0
M  V30 31 C 5.172882 -2.664596 3.671321 0
M  V30 32 H 7.118883 -5.194448 4.481289 0
M  V30 33 H 6.623838 -5.003939 5.878476 0
M  V30 34 H 6.739017 -0.403749 5.530195 0
M  V30 35 H 5.227544 1.173925 4.325214 0
M  V30 36 H 3.187711 1.174002 2.365902 0
M  V30 37 H 1.679536 1.435777 0.952080 0
M  V30 38 H -0.062761 1.749845 -0.668885 0
M  V30 39 H -1.927310 1.091450 -3.752610 0
M  V30 40 H -1.143493 1.876766 -2.356912 0
M  V30 41 H -3.664718 2.196511 -2.261892 0
M  V30 42 H -2.853888 1.394256 -0.848182 0
M  V30 43 H -4.782514 2.064262 -0.411657 0
M  V30 44 H -6.807782 2.149401 0.905918 0
M  V30 45 H -7.915450 -1.652914 -0.442169 0
M  V30 46 H -5.910384 -1.780003 -1.771113 0
M  V30 47 H -4.045161 -1.959394 -2.519428 0
M  V30 48 H -3.822537 -0.833060 -3.870738 0
M  V30 49 H -1.789513 -2.266077 -2.434889 0
M  V30 50 H -1.665498 -1.176496 -3.901941 0
M  V30 51 H -0.106099 -2.533888 -1.374121 0
M  V30 52 H 1.645577 -2.756429 0.275117 0
M  V30 53 H 5.131430 -3.721276 3.465851 0
M  V30 END ATOM
M  V30 BEGIN BOND
M  V30 1 1 1 2
M  V30 2 2 2 3
M  V30 3 1 2 4
M  V30 4 2 4 5
M  V30 5 1 5 6
M  V30 6 2 6 7
M  V30 7 1 7 8
M  V30 8 1 8 9
M  V30 9 1 9 10
M  V30 10 2 10 11
M  V30 11 1 11 12
M  V30 12 2 12 13
M  V30 13 1 13 14
M  V30 14 1 14 15
M  V30 15 1 15 16
M  V30 16 1 16 17
M  V30 17 1 17 18
M  V30 18 2 18 19
M  V30 19 1 19 20
M  V30 20 2 20 21
M  V30 21 1 21 22
M  V30 22 1 21 23
M  V30 23 2 23 24
M  V30 24 1 17 25
M  V30 25 1 25 26
M  V30 26 1 13 27
M  V30 27 2 27 28
M  V30 28 2 9 29
M  V30 29 1 29 30
M  V30 30 2 30 31
M  V30 31 1 31 4
M  V30 32 1 30 7
M  V30 33 1 28 10
M  V30 34 1 26 14
M  V30 35 1 24 18
M  V30 36 1 1 32
M  V30 37 1 1 33
M  V30 38 1 5 34
M  V30 39 1 6 35
M  V30 40 1 8 36
M  V30 41 1 11 37
M  V30 42 1 12 38
M  V30 43 1 15 39
M  V30 44 1 15 40
M  V30 45 1 16 41
M  V30 46 1 16 42
M  V30 47 1 19 43
M  V30 48 1 20 44
M  V30 49 1 23 45
M  V30 50 1 24 46
M  V30 51 1 25 47
M  V30 52 1 25 48
M  V30 53 1 26 49
M  V30 54 1 26 50
M  V30 55 1 27 51
M  V30 56 1 28 52
M  V30 57 1 31 53
M  V30 END BOND
M  V30 END CTAB
M  END
>  <Dataset>  (169) 
ChEMBL_Kinases

>  <Ligand_Instance>  (169) 
nan

>  <PDB_ID>  (169) 
nan

>  <Standardized_SMILES>  (169) 
NC(=O)c1ccc2[nH]c(-c3ccc(N4CCN(c5ccc(F)cc5)CC4)cc3)nc2c1

>  <Name>  (169) 
nan

>  <Pocket>  (169) 
nan

>  <ATP_Site>  (169) 
nan

>  <Peripheral>  (169) 
nan

>  <Num_H_Atoms_ProtBoundConf>  (169) 
nan

>  <Num_Resolved_Atoms>  (169) 
nan

>  <Num_Not_Resolved_Atoms>  (169) 
nan

$$$$
CHEMBL3929167
     RDKit          3D

  0  0  0  0  0  0  0  0  0  0999 V3000
M  V30 BEGIN CTAB
M  V30 COUNTS 39 42 0 0 0
M  V30 BEGIN ATOM
M  V30 1 O 0.620872 -1.231264 2.261635 0
M  V30 2 C 0.744985 -0.711136 1.114884 0
M  V30 3 C 1.097611 -1.874899 0.286383 0
M  V30 4 C 0.240091 -2.973095 0.147327 0
M  V30 5 C 0.587897 -4.073022 -0.641746 0
M  V30 6 C 1.813055 -4.017050 -1.270945 0
M  V30 7 N 2.412490 -4.909025 -2.081385 0
M  V30 8 N 3.605680 -4.459315 -2.477740 0
M  V30 9 C 3.807818 -3.230586 -1.914636 0
M  V30 10 C 2.688880 -2.943320 -1.155156 0
M  V30 11 C 2.322333 -1.849618 -0.359254 0
M  V30 12 N 0.591648 0.637589 0.698207 0
M  V30 13 C 0.707153 1.342955 -0.562131 0
M  V30 14 C 0.482063 2.786184 -0.283683 0
M  V30 15 C -0.239988 2.799876 1.025790 0
M  V30 16 C 0.229085 1.570376 1.745044 0 CFG=1
M  V30 17 C -0.896307 1.060981 2.572666 0
M  V30 18 C -1.969661 0.530170 1.881645 0
M  V30 19 C -3.124144 -0.005465 2.464914 0
M  V30 20 C -3.146941 0.020771 3.863319 0
M  V30 21 Cl -4.563145 -0.634003 4.651927 0
M  V30 22 C -2.093743 0.542284 4.569224 0
M  V30 23 C -0.974498 1.060328 3.950962 0
M  V30 24 H -0.719608 -2.963432 0.668986 0
M  V30 25 H -0.094418 -4.901572 -0.727958 0
M  V30 26 H 2.048054 -5.844251 -2.396498 0
M  V30 27 H 4.682390 -2.594824 -2.037778 0
M  V30 28 H 3.020172 -1.030172 -0.286376 0
M  V30 29 H -0.105390 0.970079 -1.217219 0
M  V30 30 H 1.708830 1.213769 -1.020301 0
M  V30 31 H 1.485110 3.285497 -0.191621 0
M  V30 32 H -0.101178 3.248736 -1.106225 0
M  V30 33 H -1.326657 2.820094 0.855730 0
M  V30 34 H 0.091665 3.742455 1.546679 0
M  V30 35 H 1.064727 1.824125 2.392963 0
M  V30 36 H -1.970255 0.501103 0.801909 0
M  V30 37 H -3.919532 -0.400680 1.864564 0
M  V30 38 H -2.105260 0.564988 5.650260 0
M  V30 39 H -0.114920 1.483563 4.461748 0
M  V30 END ATOM
M  V30 BEGIN BOND
M  V30 1 2 1 2
M  V30 2 1 2 3
M  V30 3 2 3 4
M  V30 4 1 4 5
M  V30 5 2 5 6
M  V30 6 1 6 7
M  V30 7 1 7 8
M  V30 8 2 8 9
M  V30 9 1 9 10
M  V30 10 2 10 11
M  V30 11 1 2 12
M  V30 12 1 12 13
M  V30 13 1 13 14
M  V30 14 1 14 15
M  V30 15 1 15 16
M  V30 16 1 16 17
M  V30 17 2 17 18
M  V30 18 1 18 19
M  V30 19 2 19 20
M  V30 20 1 20 21
M  V30 21 1 20 22
M  V30 22 2 22 23
M  V30 23 1 11 3
M  V30 24 1 16 12
M  V30 25 1 23 17
M  V30 26 1 10 6
M  V30 27 1 4 24
M  V30 28 1 5 25
M  V30 29 1 7 26
M  V30 30 1 9 27
M  V30 31 1 11 28
M  V30 32 1 13 29
M  V30 33 1 13 30
M  V30 34 1 14 31
M  V30 35 1 14 32
M  V30 36 1 15 33
M  V30 37 1 15 34
M  V30 38 1 16 35 CFG=1
M  V30 39 1 18 36
M  V30 40 1 19 37
M  V30 41 1 22 38
M  V30 42 1 23 39
M  V30 END BOND
M  V30 END CTAB
M  END
>  <Dataset>  (170) 
ChEMBL_Kinases

>  <Ligand_Instance>  (170) 
nan

>  <PDB_ID>  (170) 
nan

>  <Standardized_SMILES>  (170) 
O=C(c1ccc2[nH]ncc2c1)N1CCC[C@H]1c1ccc(Cl)cc1

>  <Name>  (170) 
nan

>  <Pocket>  (170) 
nan

>  <ATP_Site>  (170) 
nan

>  <Peripheral>  (170) 
nan

>  <Num_H_Atoms_ProtBoundConf>  (170) 
nan

>  <Num_Resolved_Atoms>  (170) 
nan

>  <Num_Not_Resolved_Atoms>  (170) 
nan

$$$$
CHEMBL3929110
     RDKit          3D

  0  0  0  0  0  0  0  0  0  0999 V3000
M  V30 BEGIN CTAB
M  V30 COUNTS 36 38 0 0 0
M  V30 BEGIN ATOM
M  V30 1 O 3.953364 -4.375707 3.108557 0
M  V30 2 C 3.260268 -5.269775 2.581083 0
M  V30 3 O 4.164981 -5.680175 3.538033 0
M  V30 4 C 2.228043 -5.665900 1.634076 0
M  V30 5 C 1.745093 -4.646861 0.957867 0
M  V30 6 C 1.888765 -3.243346 0.828188 0
M  V30 7 O 1.101065 -2.732993 -0.053920 0
M  V30 8 N 2.499544 -2.047613 1.203169 0
M  V30 9 C 1.970557 -0.929950 0.460415 0
M  V30 10 C 2.604168 -0.612479 -0.731631 0
M  V30 11 C 2.102095 0.457592 -1.448220 0
M  V30 12 C 1.015582 1.159718 -0.970869 0
M  V30 13 C 0.405173 0.822512 0.216942 0
M  V30 14 C -0.752007 1.543893 0.758540 0
M  V30 15 N -0.888085 1.927847 2.058337 0
M  V30 16 N -2.052886 2.558488 2.208856 0
M  V30 17 C -2.656228 2.573224 0.997829 0
M  V30 18 C -3.874011 3.091518 0.572444 0
M  V30 19 C -4.271534 2.975457 -0.745139 0
M  V30 20 C -3.471276 2.341050 -1.679731 0
M  V30 21 C -2.245699 1.814669 -1.271351 0
M  V30 22 C -1.867920 1.941679 0.049875 0
M  V30 23 C 0.876510 -0.235108 0.956354 0
M  V30 24 H 4.920311 -6.377889 3.386465 0
M  V30 25 H 1.945795 -6.689052 1.558705 0
M  V30 26 H 0.984134 -5.105088 0.292496 0
M  V30 27 H 3.185684 -2.269178 1.928079 0
M  V30 28 H 3.456852 -1.182921 -1.081851 0
M  V30 29 H 2.553535 0.764492 -2.398999 0
M  V30 30 H 0.650143 1.977902 -1.541861 0
M  V30 31 H -2.500849 2.990505 3.049774 0
M  V30 32 H -4.550890 3.603334 1.260567 0
M  V30 33 H -5.218423 3.382811 -1.057876 0
M  V30 34 H -3.790543 2.250542 -2.726777 0
M  V30 35 H -1.620955 1.322421 -1.988443 0
M  V30 36 H 0.463312 -0.562491 1.885000 0
M  V30 END ATOM
M  V30 BEGIN BOND
M  V30 1 2 1 2
M  V30 2 1 2 3
M  V30 3 1 2 4
M  V30 4 2 4 5
M  V30 5 1 5 6
M  V30 6 2 6 7
M  V30 7 1 6 8
M  V30 8 1 8 9
M  V30 9 2 9 10
M  V30 10 1 10 11
M  V30 11 2 11 12
M  V30 12 1 12 13
M  V30 13 1 13 14
M  V30 14 2 14 15
M  V30 15 1 15 16
M  V30 16 1 16 17
M  V30 17 2 17 18
M  V30 18 1 18 19
M  V30 19 2 19 20
M  V30 20 1 20 21
M  V30 21 2 21 22
M  V30 22 2 13 23
M  V30 23 1 23 9
M  V30 24 1 22 14
M  V30 25 1 22 17
M  V30 26 1 3 24
M  V30 27 1 4 25
M  V30 28 1 5 26
M  V30 29 1 8 27
M  V30 30 1 10 28
M  V30 31 1 11 29
M  V30 32 1 12 30
M  V30 33 1 16 31
M  V30 34 1 18 32
M  V30 35 1 19 33
M  V30 36 1 20 34
M  V30 37 1 21 35
M  V30 38 1 23 36
M  V30 END BOND
M  V30 END CTAB
M  END
>  <Dataset>  (171) 
ChEMBL_Kinases

>  <Ligand_Instance>  (171) 
nan

>  <PDB_ID>  (171) 
nan

>  <Standardized_SMILES>  (171) 
O=C(O)/C=C\C(=O)Nc1cccc(-c2n[nH]c3ccccc23)c1

>  <Name>  (171) 
nan

>  <Pocket>  (171) 
nan

>  <ATP_Site>  (171) 
nan

>  <Peripheral>  (171) 
nan

>  <Num_H_Atoms_ProtBoundConf>  (171) 
nan

>  <Num_Resolved_Atoms>  (171) 
nan

>  <Num_Not_Resolved_Atoms>  (171) 
nan

$$$$
CHEMBL392900
     RDKit          3D

  0  0  0  0  0  0  0  0  0  0999 V3000
M  V30 BEGIN CTAB
M  V30 COUNTS 59 62 0 0 0
M  V30 BEGIN ATOM
M  V30 1 C 1.905974 4.955133 6.886012 0
M  V30 2 C 2.389035 3.611490 7.353670 0
M  V30 3 C 3.200015 2.927290 6.306156 0
M  V30 4 C 3.698024 1.566689 6.762026 0
M  V30 5 N 2.592016 2.864565 5.003875 0
M  V30 6 C 1.307169 2.186464 4.989021 0
M  V30 7 C 0.794580 2.156102 3.593603 0
M  V30 8 C 0.012940 3.227194 3.213540 0
M  V30 9 C -0.536678 3.359826 1.946606 0
M  V30 10 C -0.302403 2.369484 0.984018 0
M  V30 11 N -0.811852 2.414019 -0.351388 0
M  V30 12 C -0.443446 1.322421 -1.215043 0
M  V30 13 C -1.205332 0.184720 -1.366470 0
M  V30 14 C -0.500453 -0.621895 -2.266857 0
M  V30 15 C -0.874342 -1.969099 -2.768649 0
M  V30 16 C -2.114925 -2.450681 -2.288901 0
M  V30 17 C -2.346571 -3.727012 -2.825548 0
M  V30 18 C -1.581997 -4.486148 -3.678772 0
M  V30 19 C -2.008703 -5.808608 -4.135633 0
M  V30 20 C -2.664010 -6.573716 -3.205243 0
M  V30 21 C -3.085566 -7.836163 -3.615982 0
M  V30 22 C -2.871379 -8.339535 -4.905428 0
M  V30 23 O -3.238250 -9.559753 -5.413769 0
M  V30 24 C -2.188719 -7.425277 -5.721321 0
M  V30 25 C -1.724113 -6.159220 -5.435945 0
M  V30 26 O -1.064002 -5.376846 -6.358966 0
M  V30 27 C -0.404728 -3.880869 -4.056433 0
M  V30 28 C -0.031558 -2.628671 -3.616038 0
M  V30 29 N 0.617735 0.035069 -2.612254 0
M  V30 30 N 0.683932 1.227852 -1.988265 0
M  V30 31 C 0.488590 1.321728 1.427371 0
M  V30 32 N 1.017274 1.207299 2.665943 0
M  V30 33 H 0.995280 5.285723 7.467357 0
M  V30 34 H 2.640020 5.768941 7.064321 0
M  V30 35 H 1.641020 4.944961 5.805614 0
M  V30 36 H 3.063855 3.806180 8.227097 0
M  V30 37 H 1.570600 2.991683 7.778665 0
M  V30 38 H 4.139808 3.536208 6.167090 0
M  V30 39 H 2.907677 0.917463 7.149465 0
M  V30 40 H 4.224113 1.134654 5.865431 0
M  V30 41 H 4.486920 1.759379 7.531662 0
M  V30 42 H 3.261094 2.331079 4.396968 0
M  V30 43 H 0.584245 2.694450 5.662356 0
M  V30 44 H 1.453623 1.150475 5.334163 0
M  V30 45 H -0.277288 4.082773 3.827914 0
M  V30 46 H -1.154638 4.174451 1.600828 0
M  V30 47 H -1.409304 3.258674 -0.548236 0
M  V30 48 H -2.149706 -0.062076 -0.903643 0
M  V30 49 H -2.796358 -1.970917 -1.629412 0
M  V30 50 H -3.282039 -4.182161 -2.510628 0
M  V30 51 H -2.871920 -6.268671 -2.195153 0
M  V30 52 H -3.620396 -8.547600 -2.971133 0
M  V30 53 H -2.597484 -10.227912 -5.834742 0
M  V30 54 H -1.996225 -7.779897 -6.751945 0
M  V30 55 H -0.149002 -5.641232 -6.717651 0
M  V30 56 H 0.271443 -4.383327 -4.726522 0
M  V30 57 H 0.888364 -2.149435 -3.909690 0
M  V30 58 H 1.397344 -0.227255 -3.254397 0
M  V30 59 H 0.739566 0.494600 0.778829 0
M  V30 END ATOM
M  V30 BEGIN BOND
M  V30 1 1 1 2
M  V30 2 1 2 3
M  V30 3 1 3 4
M  V30 4 1 3 5
M  V30 5 1 5 6
M  V30 6 1 6 7
M  V30 7 2 7 8
M  V30 8 1 8 9
M  V30 9 2 9 10
M  V30 10 1 10 11
M  V30 11 1 11 12
M  V30 12 1 12 13
M  V30 13 2 13 14
M  V30 14 1 14 15
M  V30 15 2 15 16
M  V30 16 1 16 17
M  V30 17 2 17 18
M  V30 18 1 18 19
M  V30 19 2 19 20
M  V30 20 1 20 21
M  V30 21 2 21 22
M  V30 22 1 22 23
M  V30 23 1 22 24
M  V30 24 2 24 25
M  V30 25 1 25 26
M  V30 26 1 18 27
M  V30 27 2 27 28
M  V30 28 1 14 29
M  V30 29 1 29 30
M  V30 30 1 10 31
M  V30 31 2 31 32
M  V30 32 1 32 7
M  V30 33 2 30 12
M  V30 34 1 28 15
M  V30 35 1 25 19
M  V30 36 1 1 33
M  V30 37 1 1 34
M  V30 38 1 1 35
M  V30 39 1 2 36
M  V30 40 1 2 37
M  V30 41 1 3 38
M  V30 42 1 4 39
M  V30 43 1 4 40
M  V30 44 1 4 41
M  V30 45 1 5 42
M  V30 46 1 6 43
M  V30 47 1 6 44
M  V30 48 1 8 45
M  V30 49 1 9 46
M  V30 50 1 11 47
M  V30 51 1 13 48
M  V30 52 1 16 49
M  V30 53 1 17 50
M  V30 54 1 20 51
M  V30 55 1 21 52
M  V30 56 1 23 53
M  V30 57 1 24 54
M  V30 58 1 26 55
M  V30 59 1 27 56
M  V30 60 1 28 57
M  V30 61 1 29 58
M  V30 62 1 31 59
M  V30 END BOND
M  V30 END CTAB
M  END
>  <Dataset>  (172) 
ChEMBL_Kinases

>  <Ligand_Instance>  (172) 
nan

>  <PDB_ID>  (172) 
nan

>  <Standardized_SMILES>  (172) 
CCC(C)NCc1ccc(Nc2cc(-c3ccc(-c4ccc(O)cc4O)cc3)[nH]n2)cn1

>  <Name>  (172) 
nan

>  <Pocket>  (172) 
nan

>  <ATP_Site>  (172) 
nan

>  <Peripheral>  (172) 
nan

>  <Num_H_Atoms_ProtBoundConf>  (172) 
nan

>  <Num_Resolved_Atoms>  (172) 
nan

>  <Num_Not_Resolved_Atoms>  (172) 
nan

$$$$
CHEMBL3928912
     RDKit          3D

  0  0  0  0  0  0  0  0  0  0999 V3000
M  V30 BEGIN CTAB
M  V30 COUNTS 43 47 0 0 0
M  V30 BEGIN ATOM
M  V30 1 O 4.472046 -1.164363 0.736733 0
M  V30 2 C 3.380558 -0.732315 0.348705 0
M  V30 3 N 3.461263 0.023568 -0.853549 0
M  V30 4 C 4.489331 0.425757 -1.752292 0
M  V30 5 C 4.855899 -0.356664 -2.852819 0
M  V30 6 C 5.861515 0.045354 -3.724704 0
M  V30 7 C 6.457427 1.253198 -3.424412 0
M  V30 8 O 7.473383 1.667425 -4.298460 0
M  V30 9 C 6.156446 2.082495 -2.363346 0
M  V30 10 C 5.137298 1.630918 -1.516928 0
M  V30 11 C 2.051663 -0.883560 0.934481 0
M  V30 12 C 0.836280 -0.397950 0.495431 0
M  V30 13 C -0.298896 -0.677208 1.230268 0
M  V30 14 C -0.255537 -1.429667 2.394459 0
M  V30 15 C -1.237776 -1.829526 3.277494 0
M  V30 16 C -2.663156 -1.529955 3.184347 0
M  V30 17 N -3.245486 -0.808325 2.210091 0
M  V30 18 C -4.572380 -0.752903 2.472496 0
M  V30 19 C -5.568352 -0.126092 1.755180 0
M  V30 20 C -6.871397 -0.185573 2.190836 0
M  V30 21 Cl -8.149880 0.593903 1.309308 0
M  V30 22 C -7.130518 -0.885931 3.353171 0
M  V30 23 C -6.117557 -1.507918 4.058482 0
M  V30 24 C -4.799709 -1.469364 3.651626 0
M  V30 25 N -3.599060 -1.934833 4.063049 0
M  V30 26 N -0.627073 -2.545388 4.235297 0
M  V30 27 N 0.689638 -2.602605 3.978405 0
M  V30 28 C 0.959411 -1.915399 2.833813 0
M  V30 29 C 2.103645 -1.644324 2.109378 0
M  V30 30 H 2.682895 0.487099 -1.373113 0
M  V30 31 H 4.345122 -1.296797 -3.030036 0
M  V30 32 H 6.168112 -0.533045 -4.581135 0
M  V30 33 H 7.223746 1.735656 -5.285715 0
M  V30 34 H 6.677004 3.009747 -2.208753 0
M  V30 35 H 4.859295 2.239949 -0.669113 0
M  V30 36 H 0.916156 0.165469 -0.405823 0
M  V30 37 H -1.219532 -0.267588 0.832428 0
M  V30 38 H -5.332212 0.408132 0.858447 0
M  V30 39 H -8.156695 -0.930856 3.693268 0
M  V30 40 H -6.308338 -2.060321 4.971698 0
M  V30 41 H -3.514984 -2.503214 4.928924 0
M  V30 42 H 1.389859 -3.099117 4.569973 0
M  V30 43 H 2.995511 -2.077252 2.551200 0
M  V30 END ATOM
M  V30 BEGIN BOND
M  V30 1 2 1 2
M  V30 2 1 2 3
M  V30 3 1 3 4
M  V30 4 2 4 5
M  V30 5 1 5 6
M  V30 6 2 6 7
M  V30 7 1 7 8
M  V30 8 1 7 9
M  V30 9 2 9 10
M  V30 10 1 2 11
M  V30 11 2 11 12
M  V30 12 1 12 13
M  V30 13 2 13 14
M  V30 14 1 14 15
M  V30 15 1 15 16
M  V30 16 2 16 17
M  V30 17 1 17 18
M  V30 18 2 18 19
M  V30 19 1 19 20
M  V30 20 1 20 21
M  V30 21 2 20 22
M  V30 22 1 22 23
M  V30 23 2 23 24
M  V30 24 1 24 25
M  V30 25 2 15 26
M  V30 26 1 26 27
M  V30 27 1 27 28
M  V30 28 2 28 29
M  V30 29 1 10 4
M  V30 30 1 29 11
M  V30 31 1 28 14
M  V30 32 1 25 16
M  V30 33 1 24 18
M  V30 34 1 3 30
M  V30 35 1 5 31
M  V30 36 1 6 32
M  V30 37 1 8 33
M  V30 38 1 9 34
M  V30 39 1 10 35
M  V30 40 1 12 36
M  V30 41 1 13 37
M  V30 42 1 19 38
M  V30 43 1 22 39
M  V30 44 1 23 40
M  V30 45 1 25 41
M  V30 46 1 27 42
M  V30 47 1 29 43
M  V30 END BOND
M  V30 END CTAB
M  END
>  <Dataset>  (173) 
ChEMBL_Kinases

>  <Ligand_Instance>  (173) 
nan

>  <PDB_ID>  (173) 
nan

>  <Standardized_SMILES>  (173) 
O=C(Nc1ccc(O)cc1)c1ccc2c(-c3nc4cc(Cl)ccc4[nH]3)n[nH]c2c1

>  <Name>  (173) 
nan

>  <Pocket>  (173) 
nan

>  <ATP_Site>  (173) 
nan

>  <Peripheral>  (173) 
nan

>  <Num_H_Atoms_ProtBoundConf>  (173) 
nan

>  <Num_Resolved_Atoms>  (173) 
nan

>  <Num_Not_Resolved_Atoms>  (173) 
nan

$$$$
CHEMBL3928812
     RDKit          3D

  0  0  0  0  0  0  0  0  0  0999 V3000
M  V30 BEGIN CTAB
M  V30 COUNTS 44 48 0 0 0
M  V30 BEGIN ATOM
M  V30 1 O 2.032366 -2.991374 5.430498 0
M  V30 2 C 2.014916 -3.010081 4.185504 0
M  V30 3 C 2.698943 -4.024484 3.324310 0
M  V30 4 O 3.262024 -3.428759 2.173264 0
M  V30 5 C 2.580757 -2.447255 1.454042 0
M  V30 6 C 2.874239 -2.185215 0.112823 0
M  V30 7 C 2.187699 -1.208990 -0.577804 0
M  V30 8 C 1.205392 -0.481062 0.044785 0
M  V30 9 C 0.376165 0.619827 -0.571773 0
M  V30 10 O 0.357077 0.504498 -1.951408 0
M  V30 11 C 0.881883 1.945101 -0.100679 0
M  V30 12 C 2.072918 2.553203 -0.387224 0
M  V30 13 C 2.394447 3.801275 0.157167 0
M  V30 14 C 1.449398 4.380080 0.993818 0
M  V30 15 C 0.237979 3.794498 1.303743 0
M  V30 16 C -0.022945 2.563458 0.736303 0
M  V30 17 C -1.157558 1.626573 0.787948 0
M  V30 18 O -2.166107 1.917031 1.490107 0
M  V30 19 N -0.945330 0.484744 0.008735 0
M  V30 20 C -1.811012 -0.620573 -0.212208 0
M  V30 21 C -3.054712 -0.736736 0.365417 0
M  V30 22 C -3.931607 -1.786516 0.177465 0
M  V30 23 C -3.477736 -2.796322 -0.679772 0
M  V30 24 C -2.248118 -2.769785 -1.304746 0
M  V30 25 F -1.854070 -3.772084 -2.127132 0
M  V30 26 C -1.438245 -1.659710 -1.045057 0
M  V30 27 C 0.944094 -0.777075 1.388444 0
M  V30 28 C 1.606287 -1.745239 2.118899 0
M  V30 29 N 1.288299 -1.989845 3.480284 0
M  V30 30 H 3.472352 -4.501576 3.948078 0
M  V30 31 H 1.930162 -4.791718 3.099294 0
M  V30 32 H 3.638104 -2.752166 -0.371143 0
M  V30 33 H 2.366359 -0.960926 -1.605741 0
M  V30 34 H 0.525099 1.355475 -2.428760 0
M  V30 35 H 2.840655 2.144947 -1.030100 0
M  V30 36 H 3.329422 4.297483 -0.056187 0
M  V30 37 H 1.645252 5.356628 1.450555 0
M  V30 38 H -0.494138 4.250896 1.955645 0
M  V30 39 H -3.425539 0.027412 1.028749 0
M  V30 40 H -4.899459 -1.836707 0.651531 0
M  V30 41 H -4.115327 -3.665347 -0.881266 0
M  V30 42 H -0.487684 -1.683150 -1.557564 0
M  V30 43 H 0.165506 -0.221778 1.934291 0
M  V30 44 H 0.549678 -1.449477 3.964451 0
M  V30 END ATOM
M  V30 BEGIN BOND
M  V30 1 2 1 2
M  V30 2 1 2 3
M  V30 3 1 3 4
M  V30 4 1 4 5
M  V30 5 2 5 6
M  V30 6 1 6 7
M  V30 7 2 7 8
M  V30 8 1 8 9
M  V30 9 1 9 10
M  V30 10 1 9 11
M  V30 11 2 11 12
M  V30 12 1 12 13
M  V30 13 2 13 14
M  V30 14 1 14 15
M  V30 15 2 15 16
M  V30 16 1 16 17
M  V30 17 2 17 18
M  V30 18 1 17 19
M  V30 19 1 19 20
M  V30 20 2 20 21
M  V30 21 1 21 22
M  V30 22 2 22 23
M  V30 23 1 23 24
M  V30 24 1 24 25
M  V30 25 2 24 26
M  V30 26 1 8 27
M  V30 27 2 27 28
M  V30 28 1 28 29
M  V30 29 1 29 2
M  V30 30 1 28 5
M  V30 31 1 19 9
M  V30 32 1 26 20
M  V30 33 1 16 11
M  V30 34 1 3 30
M  V30 35 1 3 31
M  V30 36 1 6 32
M  V30 37 1 7 33
M  V30 38 1 10 34
M  V30 39 1 12 35
M  V30 40 1 13 36
M  V30 41 1 14 37
M  V30 42 1 15 38
M  V30 43 1 21 39
M  V30 44 1 22 40
M  V30 45 1 23 41
M  V30 46 1 26 42
M  V30 47 1 27 43
M  V30 48 1 29 44
M  V30 END BOND
M  V30 END CTAB
M  END
>  <Dataset>  (174) 
ChEMBL_Kinases

>  <Ligand_Instance>  (174) 
nan

>  <PDB_ID>  (174) 
nan

>  <Standardized_SMILES>  (174) 
O=C1COc2ccc(C3(O)c4ccccc4C(=O)N3c3cccc(F)c3)cc2N1

>  <Name>  (174) 
nan

>  <Pocket>  (174) 
nan

>  <ATP_Site>  (174) 
nan

>  <Peripheral>  (174) 
nan

>  <Num_H_Atoms_ProtBoundConf>  (174) 
nan

>  <Num_Resolved_Atoms>  (174) 
nan

>  <Num_Not_Resolved_Atoms>  (174) 
nan

$$$$
CHEMBL392876
     RDKit          3D

  0  0  0  0  0  0  0  0  0  0999 V3000
M  V30 BEGIN CTAB
M  V30 COUNTS 36 39 0 0 0
M  V30 BEGIN ATOM
M  V30 1 C 2.878257 -1.332304 4.649116 0
M  V30 2 O 2.402218 -2.566234 4.111402 0
M  V30 3 C 1.632868 -2.547139 2.955348 0
M  V30 4 C 1.152129 -3.739405 2.404642 0
M  V30 5 C 0.378580 -3.712652 1.241203 0
M  V30 6 C 0.093654 -2.504411 0.641823 0
M  V30 7 N -0.618156 -2.166699 -0.473398 0
M  V30 8 C -0.628478 -0.859015 -0.675303 0
M  V30 9 C 0.108893 -0.304429 0.351026 0
M  V30 10 C 0.561826 -1.315298 1.174136 0
M  V30 11 C 1.329140 -1.363116 2.331234 0
M  V30 12 C 0.293881 1.172882 0.417707 0
M  V30 13 C -1.026549 1.839902 0.744984 0
M  V30 14 C -1.697569 2.071589 -0.570402 0
M  V30 15 N -0.865920 1.389563 -1.539066 0
M  V30 16 C 0.460553 1.601967 -1.040625 0
M  V30 17 C -1.227727 0.006945 -1.697113 0
M  V30 18 C -0.781640 -0.452806 -3.031474 0
M  V30 19 O -1.024069 -1.661486 -3.336759 0
M  V30 20 O -0.124139 0.281075 -4.000985 0
M  V30 21 H 3.218784 -1.450297 5.691163 0
M  V30 22 H 1.994953 -0.632178 4.686122 0
M  V30 23 H 3.603374 -0.860196 3.967613 0
M  V30 24 H 1.397053 -4.684863 2.906598 0
M  V30 25 H 0.015531 -4.652324 0.830909 0
M  V30 26 H -1.074140 -2.916495 -1.050069 0
M  V30 27 H 1.656102 -0.413582 2.686019 0
M  V30 28 H 1.123768 1.470267 1.055259 0
M  V30 29 H -1.624758 1.149078 1.376620 0
M  V30 30 H -0.882925 2.765341 1.336750 0
M  V30 31 H -1.778174 3.146496 -0.800848 0
M  V30 32 H -2.732630 1.626058 -0.594946 0
M  V30 33 H 1.242145 1.014153 -1.534237 0
M  V30 34 H 0.658393 2.682829 -1.070471 0
M  V30 35 H -2.348115 -0.063705 -1.634586 0
M  V30 36 H 0.446550 -0.146383 -4.714407 0
M  V30 END ATOM
M  V30 BEGIN BOND
M  V30 1 1 1 2
M  V30 2 1 2 3
M  V30 3 2 3 4
M  V30 4 1 4 5
M  V30 5 2 5 6
M  V30 6 1 6 7
M  V30 7 1 7 8
M  V30 8 2 8 9
M  V30 9 1 9 10
M  V30 10 2 10 11
M  V30 11 1 9 12
M  V30 12 1 12 13
M  V30 13 1 13 14
M  V30 14 1 14 15
M  V30 15 1 15 16
M  V30 16 1 15 17
M  V30 17 1 17 18
M  V30 18 2 18 19
M  V30 19 1 18 20
M  V30 20 1 11 3
M  V30 21 1 16 12
M  V30 22 1 10 6
M  V30 23 1 17 8
M  V30 24 1 1 21
M  V30 25 1 1 22
M  V30 26 1 1 23
M  V30 27 1 4 24
M  V30 28 1 5 25
M  V30 29 1 7 26
M  V30 30 1 11 27
M  V30 31 1 12 28
M  V30 32 1 13 29
M  V30 33 1 13 30
M  V30 34 1 14 31
M  V30 35 1 14 32
M  V30 36 1 16 33
M  V30 37 1 16 34
M  V30 38 1 17 35
M  V30 39 1 20 36
M  V30 END BOND
M  V30 END CTAB
M  END
>  <Dataset>  (175) 
ChEMBL_Kinases

>  <Ligand_Instance>  (175) 
nan

>  <PDB_ID>  (175) 
nan

>  <Standardized_SMILES>  (175) 
COc1ccc2[nH]c3c(c2c1)C1CCN(C1)C3C(=O)O

>  <Name>  (175) 
nan

>  <Pocket>  (175) 
nan

>  <ATP_Site>  (175) 
nan

>  <Peripheral>  (175) 
nan

>  <Num_H_Atoms_ProtBoundConf>  (175) 
nan

>  <Num_Resolved_Atoms>  (175) 
nan

>  <Num_Not_Resolved_Atoms>  (175) 
nan

$$$$
CHEMBL3929715
     RDKit          3D

  0  0  0  0  0  0  0  0  0  0999 V3000
M  V30 BEGIN CTAB
M  V30 COUNTS 48 51 0 0 0
M  V30 BEGIN ATOM
M  V30 1 O 2.754839 -4.521874 1.755925 0
M  V30 2 C 1.998601 -3.519768 1.623803 0
M  V30 3 C 2.511905 -2.187494 1.277245 0
M  V30 4 C 1.795881 -1.106749 1.117099 0
M  V30 5 C 2.318320 0.207940 0.773910 0
M  V30 6 C 3.654683 0.489853 0.585246 0
M  V30 7 N 4.151206 1.699740 0.263035 0
M  V30 8 C 3.309541 2.754987 0.100491 0
M  V30 9 N 3.465895 4.069368 -0.213791 0
M  V30 10 C 2.253528 4.646569 -0.232878 0
M  V30 11 C 1.247886 3.750549 0.064910 0
M  V30 12 C -0.178659 4.012409 0.135095 0
M  V30 13 C -0.698451 5.104805 0.787190 0
M  V30 14 C -2.067293 5.381104 0.870189 0
M  V30 15 C -2.899019 4.465871 0.240091 0
M  V30 16 C -2.432691 3.336074 -0.439124 0
M  V30 17 C -1.070903 3.147299 -0.467809 0
M  V30 18 C 1.946378 2.554923 0.272937 0
M  V30 19 C 1.473326 1.283559 0.607221 0
M  V30 20 N 0.606098 -3.822018 1.845997 0
M  V30 21 C 0.476253 -5.215866 2.158459 0
M  V30 22 C -0.962917 -5.562248 2.405362 0
M  V30 23 C -1.855956 -5.290372 1.253590 0
M  V30 24 C -2.109406 -6.191156 0.237508 0
M  V30 25 C -2.960603 -5.818678 -0.764135 0
M  V30 26 N -3.581068 -4.633985 -0.845895 0
M  V30 27 C -3.371771 -3.701475 0.127410 0
M  V30 28 C -2.500009 -4.078150 1.156168 0
M  V30 29 H 3.581384 -2.120000 1.148651 0
M  V30 30 H 0.729209 -1.208828 1.252750 0
M  V30 31 H 4.377642 -0.303667 0.698890 0
M  V30 32 H 4.385744 4.514241 -0.400581 0
M  V30 33 H 2.027956 5.684209 -0.448998 0
M  V30 34 H -0.051924 5.822892 1.280196 0
M  V30 35 H -2.469121 6.242655 1.385054 0
M  V30 36 H -3.976694 4.583282 0.242413 0
M  V30 37 H -3.114636 2.651930 -0.914156 0
M  V30 38 H -0.715225 2.282928 -0.990256 0
M  V30 39 H 0.407207 1.092114 0.751584 0
M  V30 40 H -0.039953 -3.014066 1.746825 0
M  V30 41 H 0.901266 -5.867201 1.373288 0
M  V30 42 H 1.016683 -5.491726 3.106390 0
M  V30 43 H -1.103414 -6.636124 2.666986 0
M  V30 44 H -1.388885 -5.003862 3.271888 0
M  V30 45 H -1.634112 -7.148291 0.264518 0
M  V30 46 H -3.201987 -6.472313 -1.587126 0
M  V30 47 H -3.864710 -2.755472 0.065255 0
M  V30 48 H -2.398000 -3.275127 1.885905 0
M  V30 END ATOM
M  V30 BEGIN BOND
M  V30 1 2 1 2
M  V30 2 1 2 3
M  V30 3 2 3 4
M  V30 4 1 4 5
M  V30 5 2 5 6
M  V30 6 1 6 7
M  V30 7 2 7 8
M  V30 8 1 8 9
M  V30 9 1 9 10
M  V30 10 2 10 11
M  V30 11 1 11 12
M  V30 12 2 12 13
M  V30 13 1 13 14
M  V30 14 2 14 15
M  V30 15 1 15 16
M  V30 16 2 16 17
M  V30 17 1 11 18
M  V30 18 2 18 19
M  V30 19 1 2 20
M  V30 20 1 20 21
M  V30 21 1 21 22
M  V30 22 1 22 23
M  V30 23 2 23 24
M  V30 24 1 24 25
M  V30 25 2 25 26
M  V30 26 1 26 27
M  V30 27 2 27 28
M  V30 28 1 19 5
M  V30 29 1 28 23
M  V30 30 1 18 8
M  V30 31 1 17 12
M  V30 32 1 3 29
M  V30 33 1 4 30
M  V30 34 1 6 31
M  V30 35 1 9 32
M  V30 36 1 10 33
M  V30 37 1 13 34
M  V30 38 1 14 35
M  V30 39 1 15 36
M  V30 40 1 16 37
M  V30 41 1 17 38
M  V30 42 1 19 39
M  V30 43 1 20 40
M  V30 44 1 21 41
M  V30 45 1 21 42
M  V30 46 1 22 43
M  V30 47 1 22 44
M  V30 48 1 24 45
M  V30 49 1 25 46
M  V30 50 1 27 47
M  V30 51 1 28 48
M  V30 END BOND
M  V30 END CTAB
M  END
>  <Dataset>  (176) 
ChEMBL_Kinases

>  <Ligand_Instance>  (176) 
nan

>  <PDB_ID>  (176) 
nan

>  <Standardized_SMILES>  (176) 
O=C(/C=C/c1cnc2[nH]cc(-c3ccccc3)c2c1)NCCc1ccncc1

>  <Name>  (176) 
nan

>  <Pocket>  (176) 
nan

>  <ATP_Site>  (176) 
nan

>  <Peripheral>  (176) 
nan

>  <Num_H_Atoms_ProtBoundConf>  (176) 
nan

>  <Num_Resolved_Atoms>  (176) 
nan

>  <Num_Not_Resolved_Atoms>  (176) 
nan

$$$$
CHEMBL392517
     RDKit          3D

  0  0  0  0  0  0  0  0  0  0999 V3000
M  V30 BEGIN CTAB
M  V30 COUNTS 61 65 0 0 0
M  V30 BEGIN ATOM
M  V30 1 C 2.319995 -0.816049 0.470087 0
M  V30 2 C 3.194938 -0.137088 1.466833 0
M  V30 3 C 2.860368 -0.794631 2.826127 0
M  V30 4 C 4.614115 -0.587896 1.184642 0
M  V30 5 C 3.042460 1.323750 1.568405 0
M  V30 6 N 3.264351 2.208433 0.567167 0
M  V30 7 C 2.627942 2.552378 -0.586778 0
M  V30 8 C 1.293807 3.239462 -0.495889 0
M  V30 9 C 1.284824 4.649256 -0.604401 0
M  V30 10 C 0.195195 5.490450 -0.530312 0
M  V30 11 C -1.021758 4.889059 -0.328005 0
M  V30 12 C -1.106636 3.519569 -0.211479 0
M  V30 13 C 0.027508 2.757860 -0.296473 0
M  V30 14 C -0.308288 1.314084 -0.148942 0
M  V30 15 C -1.775376 1.333230 0.003198 0
M  V30 16 C -2.843238 0.441263 0.176835 0
M  V30 17 C -2.726219 -1.015755 0.246731 0
M  V30 18 C -3.623640 -1.819904 -0.457489 0
M  V30 19 C -3.550808 -3.219157 -0.431105 0
M  V30 20 C -2.564379 -3.836555 0.311386 0
M  V30 21 C -2.468475 -5.291905 0.349719 0
M  V30 22 C -2.876122 -5.902782 -0.824034 0
M  V30 23 C -2.867866 -7.270085 -1.010046 0
M  V30 24 C -2.426890 -8.066644 0.038571 0
M  V30 25 O -2.385495 -9.452898 -0.062111 0
M  V30 26 C -2.011514 -7.464713 1.231273 0
M  V30 27 C -2.034601 -6.079050 1.380624 0
M  V30 28 C -1.671039 -3.023163 1.012526 0
M  V30 29 C -1.736069 -1.634607 0.992043 0
M  V30 30 N -3.946316 1.247228 0.253423 0
M  V30 31 N -3.569403 2.510913 0.134932 0
M  V30 32 C -2.242763 2.628859 -0.022295 0
M  V30 33 H 2.725517 -1.851015 0.239037 0
M  V30 34 H 1.316380 -1.064827 0.940732 0
M  V30 35 H 2.101592 -0.289653 -0.444213 0
M  V30 36 H 3.169323 -1.847686 2.857428 0
M  V30 37 H 3.439590 -0.271701 3.633540 0
M  V30 38 H 1.791117 -0.740780 3.057974 0
M  V30 39 H 5.367137 0.104124 1.583732 0
M  V30 40 H 4.804631 -0.721105 0.102366 0
M  V30 41 H 4.783268 -1.576892 1.655252 0
M  V30 42 H 2.030323 1.521503 2.103375 0
M  V30 43 H 3.737037 1.620474 2.456057 0
M  V30 44 H 4.236281 2.657842 0.662090 0
M  V30 45 H 3.284011 3.336176 -1.133575 0
M  V30 46 H 2.548404 1.742071 -1.369710 0
M  V30 47 H 2.227760 5.200504 -0.767438 0
M  V30 48 H 0.279100 6.561522 -0.624653 0
M  V30 49 H -1.908906 5.494816 -0.260952 0
M  V30 50 H 0.115994 0.962095 0.831282 0
M  V30 51 H 0.052418 0.751116 -0.996723 0
M  V30 52 H -4.424173 -1.375557 -1.062781 0
M  V30 53 H -4.289768 -3.776397 -1.009089 0
M  V30 54 H -3.243983 -5.375870 -1.718552 0
M  V30 55 H -3.178350 -7.774260 -1.910743 0
M  V30 56 H -1.465808 -9.870085 -0.275794 0
M  V30 57 H -1.655691 -8.029414 2.087972 0
M  V30 58 H -1.730339 -5.549852 2.268175 0
M  V30 59 H -0.871830 -3.478308 1.614522 0
M  V30 60 H -1.018842 -1.040568 1.552568 0
M  V30 61 H -4.218614 3.328201 0.158392 0
M  V30 END ATOM
M  V30 BEGIN BOND
M  V30 1 1 1 2
M  V30 2 1 2 3
M  V30 3 1 2 4
M  V30 4 1 2 5
M  V30 5 1 5 6
M  V30 6 1 6 7
M  V30 7 1 7 8
M  V30 8 2 8 9
M  V30 9 1 9 10
M  V30 10 2 10 11
M  V30 11 1 11 12
M  V30 12 2 12 13
M  V30 13 1 13 14
M  V30 14 1 14 15
M  V30 15 1 15 16
M  V30 16 1 16 17
M  V30 17 2 17 18
M  V30 18 1 18 19
M  V30 19 2 19 20
M  V30 20 1 20 21
M  V30 21 2 21 22
M  V30 22 1 22 23
M  V30 23 2 23 24
M  V30 24 1 24 25
M  V30 25 1 24 26
M  V30 26 2 26 27
M  V30 27 1 20 28
M  V30 28 2 28 29
M  V30 29 2 16 30
M  V30 30 1 30 31
M  V30 31 1 31 32
M  V30 32 1 13 8
M  V30 33 2 32 15
M  V30 34 1 32 12
M  V30 35 1 29 17
M  V30 36 1 27 21
M  V30 37 1 1 33
M  V30 38 1 1 34
M  V30 39 1 1 35
M  V30 40 1 3 36
M  V30 41 1 3 37
M  V30 42 1 3 38
M  V30 43 1 4 39
M  V30 44 1 4 40
M  V30 45 1 4 41
M  V30 46 1 5 42
M  V30 47 1 5 43
M  V30 48 1 6 44
M  V30 49 1 7 45
M  V30 50 1 7 46
M  V30 51 1 9 47
M  V30 52 1 10 48
M  V30 53 1 11 49
M  V30 54 1 14 50
M  V30 55 1 14 51
M  V30 56 1 18 52
M  V30 57 1 19 53
M  V30 58 1 22 54
M  V30 59 1 23 55
M  V30 60 1 25 56
M  V30 61 1 26 57
M  V30 62 1 27 58
M  V30 63 1 28 59
M  V30 64 1 29 60
M  V30 65 1 31 61
M  V30 END BOND
M  V30 END CTAB
M  END
>  <Dataset>  (177) 
ChEMBL_Kinases

>  <Ligand_Instance>  (177) 
nan

>  <PDB_ID>  (177) 
nan

>  <Standardized_SMILES>  (177) 
CC(C)(C)CNCc1cccc2c1Cc1c(-c3ccc(-c4ccc(O)cc4)cc3)n[nH]c1-2

>  <Name>  (177) 
nan

>  <Pocket>  (177) 
nan

>  <ATP_Site>  (177) 
nan

>  <Peripheral>  (177) 
nan

>  <Num_H_Atoms_ProtBoundConf>  (177) 
nan

>  <Num_Resolved_Atoms>  (177) 
nan

>  <Num_Not_Resolved_Atoms>  (177) 
nan

$$$$
CHEMBL392516
     RDKit          3D

  0  0  0  0  0  0  0  0  0  0999 V3000
M  V30 BEGIN CTAB
M  V30 COUNTS 62 66 0 0 0
M  V30 BEGIN ATOM
M  V30 1 C 7.965713 -0.764843 3.685506 0
M  V30 2 C 7.190608 0.443026 3.173852 0
M  V30 3 C 7.790243 0.961882 1.883143 0
M  V30 4 C 7.034062 2.162605 1.358656 0
M  V30 5 N 5.645376 1.843022 1.085583 0
M  V30 6 C 4.979284 3.055069 0.584620 0
M  V30 7 C 3.578344 2.645687 0.321237 0
M  V30 8 O 3.397970 1.435862 0.592876 0
M  V30 9 N 2.527507 3.430386 -0.164825 0
M  V30 10 C 1.188531 3.065345 -0.424596 0
M  V30 11 C 0.319533 4.015777 -0.904516 0
M  V30 12 C -1.000932 3.739742 -1.184369 0
M  V30 13 C -1.525439 2.478553 -0.994793 0
M  V30 14 C -0.689931 1.491391 -0.514137 0
M  V30 15 C 0.622237 1.824208 -0.251348 0
M  V30 16 C -1.458939 0.216604 -0.386340 0
M  V30 17 C -2.798423 0.610296 -0.847066 0
M  V30 18 C -4.068439 0.067710 -1.045344 0
M  V30 19 C -4.498200 -1.308840 -0.802818 0
M  V30 20 C -5.264539 -2.093025 -1.651072 0
M  V30 21 C -5.598696 -3.382695 -1.293789 0
M  V30 22 C -5.204705 -3.960712 -0.104840 0
M  V30 23 C -5.562431 -5.312966 0.251243 0
M  V30 24 C -5.736332 -6.357847 -0.647284 0
M  V30 25 C -6.080060 -7.623437 -0.228147 0
M  V30 26 C -6.262644 -7.884351 1.124397 0
M  V30 27 O -6.611799 -9.178759 1.523119 0
M  V30 28 C -6.087091 -6.833185 2.022624 0
M  V30 29 C -5.745106 -5.579761 1.589580 0
M  V30 30 C -4.430494 -3.187987 0.767238 0
M  V30 31 C -4.098509 -1.896639 0.404412 0
M  V30 32 N -4.823332 1.078945 -1.511310 0
M  V30 33 N -4.128244 2.209073 -1.620155 0
M  V30 34 C -2.870679 1.942638 -1.214051 0
M  V30 35 H 7.376182 -1.186504 4.533548 0
M  V30 36 H 8.972555 -0.502371 4.030413 0
M  V30 37 H 8.059183 -1.540040 2.894330 0
M  V30 38 H 6.163986 0.082500 2.960100 0
M  V30 39 H 7.191118 1.189231 3.970809 0
M  V30 40 H 7.769929 0.165762 1.125382 0
M  V30 41 H 8.829331 1.279267 2.098244 0
M  V30 42 H 7.131305 3.035266 2.025046 0
M  V30 43 H 7.502976 2.428690 0.381682 0
M  V30 44 H 5.570423 1.077454 0.379806 0
M  V30 45 H 5.100548 3.866796 1.298828 0
M  V30 46 H 5.517163 3.304632 -0.375019 0
M  V30 47 H 2.843026 4.408565 -0.337815 0
M  V30 48 H 0.704642 5.029583 -1.066637 0
M  V30 49 H -1.593175 4.562974 -1.557478 0
M  V30 50 H 1.228588 1.017574 0.121187 0
M  V30 51 H -1.473054 -0.138798 0.679936 0
M  V30 52 H -0.972228 -0.538366 -1.029076 0
M  V30 53 H -5.546526 -1.593773 -2.568012 0
M  V30 54 H -6.204880 -3.932991 -2.018704 0
M  V30 55 H -5.585389 -6.110277 -1.671748 0
M  V30 56 H -6.207652 -8.419776 -0.964788 0
M  V30 57 H -5.881685 -9.805730 1.838092 0
M  V30 58 H -6.252980 -7.139509 3.058346 0
M  V30 59 H -5.651764 -4.890905 2.423280 0
M  V30 60 H -4.102299 -3.605937 1.709999 0
M  V30 61 H -3.498050 -1.352203 1.123887 0
M  V30 62 H -4.486896 3.133872 -1.957220 0
M  V30 END ATOM
M  V30 BEGIN BOND
M  V30 1 1 1 2
M  V30 2 1 2 3
M  V30 3 1 3 4
M  V30 4 1 4 5
M  V30 5 1 5 6
M  V30 6 1 6 7
M  V30 7 2 7 8
M  V30 8 1 7 9
M  V30 9 1 9 10
M  V30 10 2 10 11
M  V30 11 1 11 12
M  V30 12 2 12 13
M  V30 13 1 13 14
M  V30 14 2 14 15
M  V30 15 1 14 16
M  V30 16 1 16 17
M  V30 17 1 17 18
M  V30 18 1 18 19
M  V30 19 2 19 20
M  V30 20 1 20 21
M  V30 21 2 21 22
M  V30 22 1 22 23
M  V30 23 2 23 24
M  V30 24 1 24 25
M  V30 25 2 25 26
M  V30 26 1 26 27
M  V30 27 1 26 28
M  V30 28 2 28 29
M  V30 29 1 22 30
M  V30 30 2 30 31
M  V30 31 2 18 32
M  V30 32 1 32 33
M  V30 33 1 33 34
M  V30 34 1 15 10
M  V30 35 2 34 17
M  V30 36 1 34 13
M  V30 37 1 31 19
M  V30 38 1 29 23
M  V30 39 1 1 35
M  V30 40 1 1 36
M  V30 41 1 1 37
M  V30 42 1 2 38
M  V30 43 1 2 39
M  V30 44 1 3 40
M  V30 45 1 3 41
M  V30 46 1 4 42
M  V30 47 1 4 43
M  V30 48 1 5 44
M  V30 49 1 6 45
M  V30 50 1 6 46
M  V30 51 1 9 47
M  V30 52 1 11 48
M  V30 53 1 12 49
M  V30 54 1 15 50
M  V30 55 1 16 51
M  V30 56 1 16 52
M  V30 57 1 20 53
M  V30 58 1 21 54
M  V30 59 1 24 55
M  V30 60 1 25 56
M  V30 61 1 27 57
M  V30 62 1 28 58
M  V30 63 1 29 59
M  V30 64 1 30 60
M  V30 65 1 31 61
M  V30 66 1 33 62
M  V30 END BOND
M  V30 END CTAB
M  END
>  <Dataset>  (178) 
ChEMBL_Kinases

>  <Ligand_Instance>  (178) 
nan

>  <PDB_ID>  (178) 
nan

>  <Standardized_SMILES>  (178) 
CCCCNCC(=O)Nc1ccc2c(c1)Cc1c(-c3ccc(-c4ccc(O)cc4)cc3)n[nH]c1-2

>  <Name>  (178) 
nan

>  <Pocket>  (178) 
nan

>  <ATP_Site>  (178) 
nan

>  <Peripheral>  (178) 
nan

>  <Num_H_Atoms_ProtBoundConf>  (178) 
nan

>  <Num_Resolved_Atoms>  (178) 
nan

>  <Num_Not_Resolved_Atoms>  (178) 
nan

$$$$
CHEMBL3925126
     RDKit          3D

  0  0  0  0  0  0  0  0  0  0999 V3000
M  V30 BEGIN CTAB
M  V30 COUNTS 37 40 0 0 0
M  V30 BEGIN ATOM
M  V30 1 C -2.312538 -2.159425 0.649629 0
M  V30 2 C -1.478308 -2.129606 1.647172 0
M  V30 3 C -0.215707 -1.519472 1.977467 0
M  V30 4 N 0.359541 -1.739650 3.196164 0
M  V30 5 N 1.493267 -1.092114 3.274443 0
M  V30 6 C 1.776649 -0.401824 2.158956 0
M  V30 7 C 2.799769 0.416473 1.724878 0
M  V30 8 C 2.730151 0.963912 0.456178 0
M  V30 9 C 3.826770 1.826845 0.022784 0
M  V30 10 C 5.110738 1.584767 0.486012 0
M  V30 11 C 6.171681 2.374957 0.103262 0
M  V30 12 N 5.981815 3.398108 -0.728483 0
M  V30 13 C 4.735859 3.649618 -1.190934 0
M  V30 14 C 3.647665 2.883384 -0.832535 0
M  V30 15 C 1.635980 0.679602 -0.351684 0
M  V30 16 C 0.631307 -0.141993 0.113648 0
M  V30 17 C 0.688773 -0.690602 1.369504 0
M  V30 18 C -3.574558 -2.863784 0.515394 0
M  V30 19 C -4.276950 -2.728580 -0.661324 0
M  V30 20 C -5.481300 -3.410788 -0.767380 0
M  V30 21 C -5.918891 -4.191294 0.308018 0
M  V30 22 C -5.182749 -4.303183 1.478800 0
M  V30 23 N -4.021921 -3.622809 1.533206 0
M  V30 24 H -1.957778 -1.553178 -0.160000 0
M  V30 25 H -1.951631 -2.782786 2.404207 0
M  V30 26 H 2.078353 -1.140628 4.138202 0
M  V30 27 H 3.595476 0.571271 2.423833 0
M  V30 28 H 5.235278 0.752046 1.155962 0
M  V30 29 H 7.173667 2.169517 0.477887 0
M  V30 30 H 4.526324 4.476717 -1.875086 0
M  V30 31 H 2.635417 3.048175 -1.178048 0
M  V30 32 H 1.624615 1.129407 -1.336389 0
M  V30 33 H -0.187877 -0.328643 -0.548711 0
M  V30 34 H -3.891834 -2.105964 -1.473656 0
M  V30 35 H -6.061428 -3.334621 -1.663762 0
M  V30 36 H -6.845931 -4.739298 0.272779 0
M  V30 37 H -5.502048 -4.900982 2.322577 0
M  V30 END ATOM
M  V30 BEGIN BOND
M  V30 1 2 1 2
M  V30 2 1 2 3
M  V30 3 2 3 4
M  V30 4 1 4 5
M  V30 5 1 5 6
M  V30 6 2 6 7
M  V30 7 1 7 8
M  V30 8 1 8 9
M  V30 9 2 9 10
M  V30 10 1 10 11
M  V30 11 2 11 12
M  V30 12 1 12 13
M  V30 13 2 13 14
M  V30 14 2 8 15
M  V30 15 1 15 16
M  V30 16 2 16 17
M  V30 17 1 1 18
M  V30 18 2 18 19
M  V30 19 1 19 20
M  V30 20 2 20 21
M  V30 21 1 21 22
M  V30 22 2 22 23
M  V30 23 1 17 3
M  V30 24 1 23 18
M  V30 25 1 17 6
M  V30 26 1 14 9
M  V30 27 1 1 24
M  V30 28 1 2 25
M  V30 29 1 5 26
M  V30 30 1 7 27
M  V30 31 1 10 28
M  V30 32 1 11 29
M  V30 33 1 13 30
M  V30 34 1 14 31
M  V30 35 1 15 32
M  V30 36 1 16 33
M  V30 37 1 19 34
M  V30 38 1 20 35
M  V30 39 1 21 36
M  V30 40 1 22 37
M  V30 END BOND
M  V30 END CTAB
M  END
>  <Dataset>  (179) 
ChEMBL_Kinases

>  <Ligand_Instance>  (179) 
nan

>  <PDB_ID>  (179) 
nan

>  <Standardized_SMILES>  (179) 
C(=C/c1n[nH]c2cc(-c3ccncc3)ccc12)\c1ccccn1

>  <Name>  (179) 
nan

>  <Pocket>  (179) 
nan

>  <ATP_Site>  (179) 
nan

>  <Peripheral>  (179) 
nan

>  <Num_H_Atoms_ProtBoundConf>  (179) 
nan

>  <Num_Resolved_Atoms>  (179) 
nan

>  <Num_Not_Resolved_Atoms>  (179) 
nan

$$$$
CHEMBL3925035
     RDKit          3D

  0  0  0  0  0  0  0  0  0  0999 V3000
M  V30 BEGIN CTAB
M  V30 COUNTS 44 47 0 0 0
M  V30 BEGIN ATOM
M  V30 1 N 3.096479 -7.347158 -2.185394 0
M  V30 2 C 2.222297 -6.699310 -3.111618 0
M  V30 3 O 1.839930 -7.309628 -4.143090 0
M  V30 4 C 1.772302 -5.326788 -2.860193 0
M  V30 5 C 0.928766 -4.739404 -3.780362 0
M  V30 6 C 0.481338 -3.438651 -3.575198 0
M  V30 7 C 0.894643 -2.751405 -2.441021 0
M  V30 8 N 0.612443 -1.504950 -2.013039 0
M  V30 9 C 1.268223 -1.323919 -0.850781 0
M  V30 10 C 1.292380 -0.135829 0.020052 0
M  V30 11 C 2.019895 -0.101504 1.192770 0
M  V30 12 C 2.007031 1.045094 1.976155 0
M  V30 13 C 1.283370 2.168980 1.621353 0
M  V30 14 S 1.286855 3.605641 2.633869 0
M  V30 15 O 1.009882 4.782088 1.726905 0
M  V30 16 O 2.569021 3.754260 3.365046 0
M  V30 17 N 0.002396 3.462847 3.750200 0
M  V30 18 C -1.296271 3.386024 3.158991 0
M  V30 19 C -2.304751 3.266107 4.233031 0
M  V30 20 C -2.823735 2.116442 4.830409 0
M  V30 21 C -3.759811 2.319627 5.812350 0
M  V30 22 C -4.144785 3.575891 6.167032 0
M  V30 23 S -3.113998 4.641829 5.031673 0
M  V30 24 C 0.544042 2.153132 0.442931 0
M  V30 25 C 0.562203 0.992989 -0.341584 0
M  V30 26 N 1.938708 -2.455184 -0.584996 0
M  V30 27 C 1.738814 -3.376426 -1.546224 0
M  V30 28 C 2.199362 -4.671676 -1.726818 0
M  V30 29 H 3.963360 -6.875705 -2.573475 0
M  V30 30 H 3.118799 -8.022064 -1.389495 0
M  V30 31 H 0.633646 -5.313355 -4.648542 0
M  V30 32 H -0.181991 -2.980488 -4.301405 0
M  V30 33 H 0.000201 -0.775908 -2.468755 0
M  V30 34 H 2.583151 -0.992501 1.457541 0
M  V30 35 H 2.588425 1.064365 2.907610 0
M  V30 36 H 0.165238 2.815048 4.525122 0
M  V30 37 H -1.484628 4.323878 2.562777 0
M  V30 38 H -1.417896 2.551517 2.418376 0
M  V30 39 H -2.461098 1.161764 4.486749 0
M  V30 40 H -4.216784 1.466894 6.331597 0
M  V30 41 H -4.826838 3.907714 6.874803 0
M  V30 42 H -0.032425 3.024786 0.143725 0
M  V30 43 H -0.026874 1.023759 -1.250109 0
M  V30 44 H 2.866571 -5.139644 -1.001379 0
M  V30 END ATOM
M  V30 BEGIN BOND
M  V30 1 1 1 2
M  V30 2 2 2 3
M  V30 3 1 2 4
M  V30 4 2 4 5
M  V30 5 1 5 6
M  V30 6 2 6 7
M  V30 7 1 7 8
M  V30 8 1 8 9
M  V30 9 1 9 10
M  V30 10 2 10 11
M  V30 11 1 11 12
M  V30 12 2 12 13
M  V30 13 1 13 14
M  V30 14 2 14 15
M  V30 15 2 14 16
M  V30 16 1 14 17
M  V30 17 1 17 18
M  V30 18 1 18 19
M  V30 19 2 19 20
M  V30 20 1 20 21
M  V30 21 2 21 22
M  V30 22 1 22 23
M  V30 23 1 13 24
M  V30 24 2 24 25
M  V30 25 2 9 26
M  V30 26 1 26 27
M  V30 27 2 27 28
M  V30 28 1 28 4
M  V30 29 1 27 7
M  V30 30 1 25 10
M  V30 31 1 23 19
M  V30 32 1 1 29
M  V30 33 1 1 30
M  V30 34 1 5 31
M  V30 35 1 6 32
M  V30 36 1 8 33
M  V30 37 1 11 34
M  V30 38 1 12 35
M  V30 39 1 17 36
M  V30 40 1 18 37
M  V30 41 1 18 38
M  V30 42 1 20 39
M  V30 43 1 21 40
M  V30 44 1 22 41
M  V30 45 1 24 42
M  V30 46 1 25 43
M  V30 47 1 28 44
M  V30 END BOND
M  V30 END CTAB
M  END
>  <Dataset>  (180) 
ChEMBL_Kinases

>  <Ligand_Instance>  (180) 
nan

>  <PDB_ID>  (180) 
nan

>  <Standardized_SMILES>  (180) 
NC(=O)c1ccc2[nH]c(-c3ccc(S(=O)(=O)NCc4cccs4)cc3)nc2c1

>  <Name>  (180) 
nan

>  <Pocket>  (180) 
nan

>  <ATP_Site>  (180) 
nan

>  <Peripheral>  (180) 
nan

>  <Num_H_Atoms_ProtBoundConf>  (180) 
nan

>  <Num_Resolved_Atoms>  (180) 
nan

>  <Num_Not_Resolved_Atoms>  (180) 
nan

$$$$
CHEMBL3924947
     RDKit          3D

  0  0  0  0  0  0  0  0  0  0999 V3000
M  V30 BEGIN CTAB
M  V30 COUNTS 39 42 0 0 0
M  V30 BEGIN ATOM
M  V30 1 N -0.809704 -7.871873 0.742690 0
M  V30 2 C 0.558633 -7.656126 0.400785 0
M  V30 3 O 1.402235 -8.581342 0.262524 0
M  V30 4 C 1.003714 -6.266956 0.199172 0
M  V30 5 C 2.299845 -5.968986 -0.131088 0
M  V30 6 C 2.748817 -4.679730 -0.326775 0
M  V30 7 C 1.855987 -3.613083 -0.186451 0
M  V30 8 N 1.961539 -2.262803 -0.304230 0
M  V30 9 C 0.743103 -1.773775 -0.046482 0
M  V30 10 C 0.306945 -0.374355 -0.038156 0
M  V30 11 C -0.989660 0.021167 0.244739 0
M  V30 12 C -1.361109 1.352333 0.242247 0
M  V30 13 C -0.406997 2.327489 -0.052778 0
M  V30 14 O -0.913998 3.631921 -0.021031 0
M  V30 15 C -0.876075 4.353074 1.191784 0
M  V30 16 C -0.334567 3.731845 2.303539 0
M  V30 17 C -0.293022 4.430231 3.496168 0
M  V30 18 C -0.791126 5.714039 3.530885 0
M  V30 19 Cl -0.777462 6.672027 5.004120 0
M  V30 20 C -1.331645 6.314584 2.392144 0
M  V30 21 Cl -1.967642 7.960258 2.446076 0
M  V30 22 C -1.385434 5.635552 1.182251 0
M  V30 23 C 0.892537 1.951889 -0.337738 0
M  V30 24 C 1.232759 0.612894 -0.327240 0
M  V30 25 N -0.090352 -2.803198 0.223310 0
M  V30 26 C 0.571885 -3.974003 0.145248 0
M  V30 27 N 0.154735 -5.229988 0.331049 0
M  V30 28 H -1.618413 -7.550473 0.160724 0
M  V30 29 H -0.938203 -8.395165 1.653362 0
M  V30 30 H 2.994448 -6.795168 -0.240508 0
M  V30 31 H 3.780822 -4.430057 -0.590587 0
M  V30 32 H 2.808404 -1.741747 -0.542383 0
M  V30 33 H -1.656040 -0.812201 0.461243 0
M  V30 34 H -2.412419 1.570214 0.478677 0
M  V30 35 H 0.052475 2.720436 2.256001 0
M  V30 36 H 0.123884 3.972604 4.382769 0
M  V30 37 H -1.784367 6.032017 0.272374 0
M  V30 38 H 1.570502 2.764453 -0.555580 0
M  V30 39 H 2.261931 0.371197 -0.556741 0
M  V30 END ATOM
M  V30 BEGIN BOND
M  V30 1 1 1 2
M  V30 2 2 2 3
M  V30 3 1 2 4
M  V30 4 2 4 5
M  V30 5 1 5 6
M  V30 6 2 6 7
M  V30 7 1 7 8
M  V30 8 1 8 9
M  V30 9 1 9 10
M  V30 10 2 10 11
M  V30 11 1 11 12
M  V30 12 2 12 13
M  V30 13 1 13 14
M  V30 14 1 14 15
M  V30 15 2 15 16
M  V30 16 1 16 17
M  V30 17 2 17 18
M  V30 18 1 18 19
M  V30 19 1 18 20
M  V30 20 1 20 21
M  V30 21 2 20 22
M  V30 22 1 13 23
M  V30 23 2 23 24
M  V30 24 2 9 25
M  V30 25 1 25 26
M  V30 26 2 26 27
M  V30 27 1 27 4
M  V30 28 1 26 7
M  V30 29 1 24 10
M  V30 30 1 22 15
M  V30 31 1 1 28
M  V30 32 1 1 29
M  V30 33 1 5 30
M  V30 34 1 6 31
M  V30 35 1 8 32
M  V30 36 1 11 33
M  V30 37 1 12 34
M  V30 38 1 16 35
M  V30 39 1 17 36
M  V30 40 1 22 37
M  V30 41 1 23 38
M  V30 42 1 24 39
M  V30 END BOND
M  V30 END CTAB
M  END
>  <Dataset>  (181) 
ChEMBL_Kinases

>  <Ligand_Instance>  (181) 
nan

>  <PDB_ID>  (181) 
nan

>  <Standardized_SMILES>  (181) 
NC(=O)c1ccc2[nH]c(-c3ccc(Oc4ccc(Cl)c(Cl)c4)cc3)nc2n1

>  <Name>  (181) 
nan

>  <Pocket>  (181) 
nan

>  <ATP_Site>  (181) 
nan

>  <Peripheral>  (181) 
nan

>  <Num_H_Atoms_ProtBoundConf>  (181) 
nan

>  <Num_Resolved_Atoms>  (181) 
nan

>  <Num_Not_Resolved_Atoms>  (181) 
nan

$$$$
CHEMBL3702182
     RDKit          3D

  0  0  0  0  0  0  0  0  0  0999 V3000
M  V30 BEGIN CTAB
M  V30 COUNTS 71 76 0 0 0
M  V30 BEGIN ATOM
M  V30 1 C 4.118218 -3.858316 -0.283880 0
M  V30 2 C 5.396615 -3.284442 -0.837883 0
M  V30 3 N 5.449246 -1.885069 -0.927119 0
M  V30 4 C 5.493357 -1.111195 0.232412 0
M  V30 5 C 4.195038 -1.151695 1.051942 0
M  V30 6 C 5.762313 -1.383021 -2.184796 0
M  V30 7 C 5.930759 0.110854 -2.303436 0
M  V30 8 C 4.674385 0.910638 -2.245547 0
M  V30 9 N 3.473991 0.114689 -2.468824 0
M  V30 10 C 2.247047 0.143777 -1.751415 0
M  V30 11 C 1.145459 -0.639108 -2.016299 0
M  V30 12 C 0.023853 -0.497804 -1.228093 0
M  V30 13 C -0.110403 0.372926 -0.170864 0
M  V30 14 N -1.262211 0.521965 0.640228 0
M  V30 15 C -2.500557 -0.160939 0.548510 0
M  V30 16 N -2.804450 -1.091876 -0.366041 0
M  V30 17 C -3.973043 -1.743516 -0.462143 0
M  V30 18 C -4.951730 -1.440917 0.449564 0
M  V30 19 C -6.224025 -1.891138 0.649127 0
M  V30 20 C -6.951979 -2.825683 -0.029432 0
M  V30 21 C -8.246723 -3.044451 0.452270 0
M  V30 22 N -8.687516 -2.360141 1.503884 0
M  V30 23 N -7.962993 -1.448983 2.156785 0
M  V30 24 C -6.707920 -1.192886 1.741495 0
M  V30 25 N -5.755742 -0.343810 2.191412 0
M  V30 26 C -5.897851 0.542772 3.311007 0
M  V30 27 C -6.062475 1.985418 2.960823 0
M  V30 28 C -5.826616 2.655546 4.319200 0
M  V30 29 C -4.854838 1.787921 5.066479 0
M  V30 30 C -4.711474 0.520002 4.253840 0
M  V30 31 C -4.653512 -0.485854 1.396324 0
M  V30 32 N -3.455278 0.117094 1.417845 0
M  V30 33 N 0.990629 1.111775 0.045035 0
M  V30 34 C 2.108262 1.014094 -0.692025 0
M  V30 35 C 3.784609 -0.729519 -3.582544 0
M  V30 36 C 4.760863 -1.827459 -3.229201 0
M  V30 37 H 4.134519 -4.951583 -0.559251 0
M  V30 38 H 3.208743 -3.467081 -0.769828 0
M  V30 39 H 4.077853 -3.850354 0.824680 0
M  V30 40 H 5.556551 -3.739169 -1.838007 0
M  V30 41 H 6.217674 -3.728294 -0.212293 0
M  V30 42 H 6.307603 -1.447352 0.942779 0
M  V30 43 H 5.696775 -0.056956 0.053276 0
M  V30 44 H 3.947299 -0.129048 1.467667 0
M  V30 45 H 4.330498 -1.758950 1.977661 0
M  V30 46 H 3.320629 -1.416647 0.456743 0
M  V30 47 H 6.740871 -1.799827 -2.511727 0
M  V30 48 H 6.728500 0.480955 -1.618626 0
M  V30 49 H 6.372131 0.273563 -3.329113 0
M  V30 50 H 4.623966 1.673058 -3.084822 0
M  V30 51 H 4.590220 1.544742 -1.341365 0
M  V30 52 H 1.192669 -1.339963 -2.832153 0
M  V30 53 H -0.791149 -1.145912 -1.500799 0
M  V30 54 H -1.165288 1.243646 1.410176 0
M  V30 55 H -4.100403 -2.475497 -1.245329 0
M  V30 56 H -6.625215 -3.388097 -0.872794 0
M  V30 57 H -8.919931 -3.762141 -0.004279 0
M  V30 58 H -6.768224 0.228489 3.924960 0
M  V30 59 H -5.338992 2.348721 2.218013 0
M  V30 60 H -7.121040 2.244685 2.691789 0
M  V30 61 H -5.461769 3.692475 4.185768 0
M  V30 62 H -6.796618 2.697298 4.880861 0
M  V30 63 H -3.856308 2.287670 5.223186 0
M  V30 64 H -5.224455 1.549672 6.099333 0
M  V30 65 H -3.741774 0.454274 3.754909 0
M  V30 66 H -4.756593 -0.368978 4.948544 0
M  V30 67 H 2.862304 1.703481 -0.338316 0
M  V30 68 H 4.153337 -0.150312 -4.440810 0
M  V30 69 H 2.839383 -1.213762 -3.962382 0
M  V30 70 H 5.273509 -2.207478 -4.134003 0
M  V30 71 H 4.176691 -2.666412 -2.803484 0
M  V30 END ATOM
M  V30 BEGIN BOND
M  V30 1 1 1 2
M  V30 2 1 2 3
M  V30 3 1 3 4
M  V30 4 1 4 5
M  V30 5 1 3 6
M  V30 6 1 6 7
M  V30 7 1 7 8
M  V30 8 1 8 9
M  V30 9 1 9 10
M  V30 10 2 10 11
M  V30 11 1 11 12
M  V30 12 2 12 13
M  V30 13 1 13 14
M  V30 14 1 14 15
M  V30 15 2 15 16
M  V30 16 1 16 17
M  V30 17 2 17 18
M  V30 18 1 18 19
M  V30 19 2 19 20
M  V30 20 1 20 21
M  V30 21 2 21 22
M  V30 22 1 22 23
M  V30 23 2 23 24
M  V30 24 1 24 25
M  V30 25 1 25 26
M  V30 26 1 26 27
M  V30 27 1 27 28
M  V30 28 1 28 29
M  V30 29 1 29 30
M  V30 30 1 25 31
M  V30 31 2 31 32
M  V30 32 1 13 33
M  V30 33 2 33 34
M  V30 34 1 9 35
M  V30 35 1 35 36
M  V30 36 1 36 6
M  V30 37 1 34 10
M  V30 38 1 32 15
M  V30 39 1 31 18
M  V30 40 1 24 19
M  V30 41 1 30 26
M  V30 42 1 1 37
M  V30 43 1 1 38
M  V30 44 1 1 39
M  V30 45 1 2 40
M  V30 46 1 2 41
M  V30 47 1 4 42
M  V30 48 1 4 43
M  V30 49 1 5 44
M  V30 50 1 5 45
M  V30 51 1 5 46
M  V30 52 1 6 47
M  V30 53 1 7 48
M  V30 54 1 7 49
M  V30 55 1 8 50
M  V30 56 1 8 51
M  V30 57 1 11 52
M  V30 58 1 12 53
M  V30 59 1 14 54
M  V30 60 1 17 55
M  V30 61 1 20 56
M  V30 62 1 21 57
M  V30 63 1 26 58
M  V30 64 1 27 59
M  V30 65 1 27 60
M  V30 66 1 28 61
M  V30 67 1 28 62
M  V30 68 1 29 63
M  V30 69 1 29 64
M  V30 70 1 30 65
M  V30 71 1 30 66
M  V30 72 1 34 67
M  V30 73 1 35 68
M  V30 74 1 35 69
M  V30 75 1 36 70
M  V30 76 1 36 71
M  V30 END BOND
M  V30 END CTAB
M  END
>  <Dataset>  (182) 
ChEMBL_Kinases

>  <Ligand_Instance>  (182) 
nan

>  <PDB_ID>  (182) 
nan

>  <Standardized_SMILES>  (182) 
CCN(CC)C1CCN(c2ccc(Nc3ncc4c5ccnnc5n(C5CCCC5)c4n3)nc2)CC1

>  <Name>  (182) 
nan

>  <Pocket>  (182) 
nan

>  <ATP_Site>  (182) 
nan

>  <Peripheral>  (182) 
nan

>  <Num_H_Atoms_ProtBoundConf>  (182) 
nan

>  <Num_Resolved_Atoms>  (182) 
nan

>  <Num_Not_Resolved_Atoms>  (182) 
nan

$$$$
CHEMBL3924918
     RDKit          3D

  0  0  0  0  0  0  0  0  0  0999 V3000
M  V30 BEGIN CTAB
M  V30 COUNTS 52 54 0 0 0
M  V30 BEGIN ATOM
M  V30 1 C -1.469700 -2.400803 4.239793 0
M  V30 2 C -0.136589 -3.049346 4.388987 0
M  V30 3 C 0.637141 -3.136423 3.128760 0
M  V30 4 C 1.487682 -2.101182 2.762719 0
M  V30 5 C 2.198963 -2.223851 1.563875 0
M  V30 6 C 2.054619 -3.359432 0.759536 0
M  V30 7 N 2.894812 -3.209967 -0.390967 0
M  V30 8 C 2.747908 -2.272567 -1.242120 0
M  V30 9 S 1.453476 -1.008055 -1.103540 0
M  V30 10 C 2.356599 0.210204 -2.097742 0
M  V30 11 C 2.249314 1.505823 -2.120450 0
M  V30 12 C 1.318835 2.265988 -1.295722 0
M  V30 13 C 1.649223 3.477018 -0.722131 0
M  V30 14 C 0.713107 4.173986 0.049110 0
M  V30 15 N -0.535602 3.688288 0.256213 0
M  V30 16 C -0.914738 2.495577 -0.287714 0
M  V30 17 N -2.221930 1.988850 -0.085638 0
M  V30 18 C -2.788657 1.174272 0.901077 0
M  V30 19 O -2.137022 0.702763 1.897754 0
M  V30 20 C -4.203136 0.806288 0.843313 0
M  V30 21 C -4.661973 -0.041896 1.982966 0
M  V30 22 N -6.091886 -0.309038 1.757519 0
M  V30 23 C 0.021817 1.838989 -1.035332 0
M  V30 24 C 3.248120 -0.618155 -2.891840 0
M  V30 25 O 3.796301 -0.135330 -3.943309 0
M  V30 26 N 3.441488 -1.924782 -2.424410 0
M  V30 27 C 4.309501 -2.899365 -3.106467 0
M  V30 28 C 1.203752 -4.372922 1.145888 0
M  V30 29 C 0.503553 -4.251168 2.326431 0
M  V30 30 H -1.679258 -1.794905 5.141138 0
M  V30 31 H -1.509803 -1.682724 3.380863 0
M  V30 32 H -2.307668 -3.096900 4.131857 0
M  V30 33 H -0.251400 -4.016986 4.901795 0
M  V30 34 H 0.465586 -2.421947 5.108129 0
M  V30 35 H 1.541886 -1.275949 3.425759 0
M  V30 36 H 2.819931 -1.353532 1.398621 0
M  V30 37 H 2.853738 2.102650 -2.762743 0
M  V30 38 H 2.631609 3.898625 -0.862601 0
M  V30 39 H 0.917618 5.124318 0.520103 0
M  V30 40 H -2.743242 2.381261 -0.903945 0
M  V30 41 H -4.813123 1.728921 0.827294 0
M  V30 42 H -4.428360 0.279276 -0.109393 0
M  V30 43 H -4.094429 -0.965081 2.124869 0
M  V30 44 H -4.650172 0.584994 2.917950 0
M  V30 45 H -6.617277 -0.288794 2.675466 0
M  V30 46 H -6.252494 -1.227606 1.284693 0
M  V30 47 H -0.295572 0.886995 -1.462343 0
M  V30 48 H 5.285136 -3.012407 -2.636261 0
M  V30 49 H 4.459389 -2.595874 -4.171648 0
M  V30 50 H 3.838863 -3.901127 -3.172366 0
M  V30 51 H 1.207209 -5.172531 0.419438 0
M  V30 52 H -0.138804 -5.090980 2.550452 0
M  V30 END ATOM
M  V30 BEGIN BOND
M  V30 1 1 1 2
M  V30 2 1 2 3
M  V30 3 2 3 4
M  V30 4 1 4 5
M  V30 5 2 5 6
M  V30 6 1 6 7
M  V30 7 2 7 8
M  V30 8 1 8 9
M  V30 9 1 9 10
M  V30 10 2 10 11
M  V30 11 1 11 12
M  V30 12 2 12 13
M  V30 13 1 13 14
M  V30 14 2 14 15
M  V30 15 1 15 16
M  V30 16 1 16 17
M  V30 17 1 17 18
M  V30 18 2 18 19
M  V30 19 1 18 20
M  V30 20 1 20 21
M  V30 21 1 21 22
M  V30 22 2 16 23
M  V30 23 1 10 24
M  V30 24 2 24 25
M  V30 25 1 24 26
M  V30 26 1 26 27
M  V30 27 1 6 28
M  V30 28 2 28 29
M  V30 29 1 29 3
M  V30 30 1 26 8
M  V30 31 1 23 12
M  V30 32 1 1 30
M  V30 33 1 1 31
M  V30 34 1 1 32
M  V30 35 1 2 33
M  V30 36 1 2 34
M  V30 37 1 4 35
M  V30 38 1 5 36
M  V30 39 1 11 37
M  V30 40 1 13 38
M  V30 41 1 14 39
M  V30 42 1 17 40
M  V30 43 1 20 41
M  V30 44 1 20 42
M  V30 45 1 21 43
M  V30 46 1 21 44
M  V30 47 1 22 45
M  V30 48 1 22 46
M  V30 49 1 23 47
M  V30 50 1 27 48
M  V30 51 1 27 49
M  V30 52 1 27 50
M  V30 53 1 28 51
M  V30 54 1 29 52
M  V30 END BOND
M  V30 END CTAB
M  END
>  <Dataset>  (183) 
ChEMBL_Kinases

>  <Ligand_Instance>  (183) 
nan

>  <PDB_ID>  (183) 
nan

>  <Standardized_SMILES>  (183) 
CCc1ccc(/N=C2\S/C(=C\c3ccnc(NC(=O)CCN)c3)C(=O)N2C)cc1

>  <Name>  (183) 
nan

>  <Pocket>  (183) 
nan

>  <ATP_Site>  (183) 
nan

>  <Peripheral>  (183) 
nan

>  <Num_H_Atoms_ProtBoundConf>  (183) 
nan

>  <Num_Resolved_Atoms>  (183) 
nan

>  <Num_Not_Resolved_Atoms>  (183) 
nan

$$$$
CHEMBL3924904
     RDKit          3D

  0  0  0  0  0  0  0  0  0  0999 V3000
M  V30 BEGIN CTAB
M  V30 COUNTS 54 58 0 0 0
M  V30 BEGIN ATOM
M  V30 1 C 2.890164 0.983956 5.091949 0
M  V30 2 O 2.831822 1.316122 3.728564 0
M  V30 3 C 3.852849 0.955831 2.863093 0
M  V30 4 C 4.976315 0.257080 3.281626 0
M  V30 5 C 6.003104 -0.108453 2.425827 0
M  V30 6 C 5.877358 0.254390 1.088331 0
M  V30 7 F 6.877548 -0.094715 0.223162 0
M  V30 8 C 4.760687 0.956027 0.640076 0
M  V30 9 C 3.753256 1.305767 1.520089 0
M  V30 10 C 2.563940 2.041116 1.096754 0
M  V30 11 C 2.407694 3.409494 1.068113 0
M  V30 12 C 1.222960 3.977685 0.642891 0
M  V30 13 N 0.216928 3.205735 0.255199 0
M  V30 14 C 0.282212 1.854530 0.250631 0
M  V30 15 N -0.558662 0.876609 -0.080459 0
M  V30 16 C -0.019851 -0.336955 0.092674 0
M  V30 17 C -0.595475 -1.688561 -0.148424 0
M  V30 18 C -1.800875 -1.979480 0.710660 0
M  V30 19 C -2.936332 -1.451521 -0.109310 0 CFG=2
M  V30 20 C -4.078451 -2.443889 -0.038165 0
M  V30 21 N -4.611799 -2.413368 -1.387938 0
M  V30 22 S -5.665387 -3.743975 -1.687477 0
M  V30 23 C -4.794945 -5.270783 -1.524813 0
M  V30 24 O -6.832804 -3.685167 -0.765513 0
M  V30 25 O -6.142569 -3.619493 -3.110317 0
M  V30 26 C -3.460939 -2.416016 -2.236045 0
M  V30 27 C -2.533670 -1.451596 -1.548302 0 CFG=2
M  V30 28 C -1.103365 -1.893997 -1.536676 0
M  V30 29 C 1.264539 -0.060611 0.572586 0
M  V30 30 C 1.459723 1.298535 0.673446 0
M  V30 31 H 3.527611 1.650405 5.691457 0
M  V30 32 H 1.867453 1.065288 5.538662 0
M  V30 33 H 3.245784 -0.067941 5.261411 0
M  V30 34 H 5.061761 -0.019964 4.328676 0
M  V30 35 H 6.840129 -0.649873 2.832071 0
M  V30 36 H 4.689489 1.225279 -0.406535 0
M  V30 37 H 3.259003 3.985282 1.394538 0
M  V30 38 H 1.111127 5.045745 0.624276 0
M  V30 39 H -1.507491 1.065586 -0.426663 0
M  V30 40 H 0.175655 -2.453529 0.119125 0
M  V30 41 H -1.745751 -1.509734 1.711220 0
M  V30 42 H -1.890741 -3.084229 0.773696 0
M  V30 43 H -3.248189 -0.443161 0.246305 0
M  V30 44 H -3.763740 -3.450783 0.293292 0
M  V30 45 H -4.826869 -2.014064 0.684985 0
M  V30 46 H -5.452348 -5.971540 -0.963282 0
M  V30 47 H -3.876870 -5.088288 -0.925776 0
M  V30 48 H -4.562269 -5.691736 -2.506924 0
M  V30 49 H -3.799045 -2.020426 -3.238412 0
M  V30 50 H -3.031559 -3.418850 -2.410126 0
M  V30 51 H -2.682476 -0.467194 -2.043334 0
M  V30 52 H -0.472688 -1.422373 -2.324446 0
M  V30 53 H -1.121743 -3.006115 -1.721613 0
M  V30 54 H 1.988751 -0.815535 0.823865 0
M  V30 END ATOM
M  V30 BEGIN BOND
M  V30 1 1 1 2
M  V30 2 1 2 3
M  V30 3 2 3 4
M  V30 4 1 4 5
M  V30 5 2 5 6
M  V30 6 1 6 7
M  V30 7 1 6 8
M  V30 8 2 8 9
M  V30 9 1 9 10
M  V30 10 2 10 11
M  V30 11 1 11 12
M  V30 12 2 12 13
M  V30 13 1 13 14
M  V30 14 1 14 15
M  V30 15 1 15 16
M  V30 16 1 16 17
M  V30 17 1 17 18
M  V30 18 1 18 19
M  V30 19 1 19 20
M  V30 20 1 20 21
M  V30 21 1 21 22
M  V30 22 1 22 23
M  V30 23 2 22 24
M  V30 24 2 22 25
M  V30 25 1 21 26
M  V30 26 1 26 27
M  V30 27 1 27 28
M  V30 28 2 16 29
M  V30 29 1 29 30
M  V30 30 1 9 3
M  V30 31 1 30 10
M  V30 32 2 30 14
M  V30 33 1 28 17
M  V30 34 1 27 19
M  V30 35 1 1 31
M  V30 36 1 1 32
M  V30 37 1 1 33
M  V30 38 1 4 34
M  V30 39 1 5 35
M  V30 40 1 8 36
M  V30 41 1 11 37
M  V30 42 1 12 38
M  V30 43 1 15 39
M  V30 44 1 17 40
M  V30 45 1 18 41
M  V30 46 1 18 42
M  V30 47 1 19 43 CFG=1
M  V30 48 1 20 44
M  V30 49 1 20 45
M  V30 50 1 23 46
M  V30 51 1 23 47
M  V30 52 1 23 48
M  V30 53 1 26 49
M  V30 54 1 26 50
M  V30 55 1 27 51 CFG=3
M  V30 56 1 28 52
M  V30 57 1 28 53
M  V30 58 1 29 54
M  V30 END BOND
M  V30 END CTAB
M  END
>  <Dataset>  (184) 
ChEMBL_Kinases

>  <Ligand_Instance>  (184) 
nan

>  <PDB_ID>  (184) 
nan

>  <Standardized_SMILES>  (184) 
COc1ccc(F)cc1-c1ccnc2[nH]c(C3C[C@@H]4CN(S(C)(=O)=O)C[C@@H]4C3)cc12

>  <Name>  (184) 
nan

>  <Pocket>  (184) 
nan

>  <ATP_Site>  (184) 
nan

>  <Peripheral>  (184) 
nan

>  <Num_H_Atoms_ProtBoundConf>  (184) 
nan

>  <Num_Resolved_Atoms>  (184) 
nan

>  <Num_Not_Resolved_Atoms>  (184) 
nan

$$$$
CHEMBL3924812
     RDKit          3D

  0  0  0  0  0  0  0  0  0  0999 V3000
M  V30 BEGIN CTAB
M  V30 COUNTS 69 72 0 0 0
M  V30 BEGIN ATOM
M  V30 1 C -2.334961 0.828542 3.755753 0
M  V30 2 C -1.555888 -0.415196 3.479932 0
M  V30 3 C -1.167077 -1.123168 4.613979 0
M  V30 4 C -0.436920 -2.303208 4.413073 0
M  V30 5 C -0.171646 -2.652906 3.100533 0
M  V30 6 N 0.599583 -3.873305 2.985881 0
M  V30 7 C 1.947634 -3.362141 2.976360 0
M  V30 8 O 1.910357 -2.085970 3.070191 0
M  V30 9 C 3.190645 -4.155595 2.875143 0
M  V30 10 C 4.329314 -3.375736 2.882655 0
M  V30 11 C 5.586077 -3.921892 2.796179 0
M  V30 12 C 6.831153 -3.134880 2.795503 0
M  V30 13 F 7.749181 -3.707868 1.910409 0
M  V30 14 F 7.473481 -3.140507 4.023795 0
M  V30 15 F 6.677823 -1.839163 2.387319 0
M  V30 16 C 5.627623 -5.307560 2.701884 0
M  V30 17 C 4.494474 -6.093298 2.694047 0
M  V30 18 N 3.321318 -5.488661 2.780680 0
M  V30 19 C -0.537600 -1.983778 1.977402 0
M  V30 20 C -1.267377 -0.803555 2.190474 0
M  V30 21 C -1.679526 -0.019894 1.024628 0
M  V30 22 C -2.305923 -0.541226 -0.094315 0
M  V30 23 C -2.669912 0.230226 -1.183713 0
M  V30 24 O -3.248395 -0.324945 -2.184966 0
M  V30 25 C -3.836644 -0.870869 -3.210814 0
M  V30 26 C -3.127032 -0.763252 -4.560117 0
M  V30 27 O -3.874650 -1.390840 -5.557441 0
M  V30 28 C -1.758892 -1.364596 -4.514901 0
M  V30 29 P -1.750885 -3.105671 -4.088811 0
M  V30 30 O -2.702679 -3.916866 -4.912016 0
M  V30 31 O -0.200075 -3.718279 -4.370338 0
M  V30 32 O -2.064541 -3.356588 -2.434429 0
M  V30 33 N -2.396142 1.542336 -1.138949 0
M  V30 34 C -1.791925 2.127185 -0.091821 0
M  V30 35 N -1.519686 3.517228 -0.079135 0
M  V30 36 C -0.938860 4.331167 0.948889 0
M  V30 37 C 0.374048 4.952907 0.522712 0
M  V30 38 O 0.565795 4.804125 -0.866001 0
M  V30 39 C -0.586160 5.310067 -1.474445 0
M  V30 40 C -1.792932 4.431388 -1.167885 0
M  V30 41 C -1.439298 1.339553 0.979407 0
M  V30 42 H -1.642337 1.609619 4.113837 0
M  V30 43 H -2.974555 1.138312 2.910634 0
M  V30 44 H -3.057407 0.578368 4.583436 0
M  V30 45 H -1.404884 -0.798423 5.607416 0
M  V30 46 H -0.116082 -2.882732 5.265584 0
M  V30 47 H 0.528846 -4.933324 2.911280 0
M  V30 48 H 4.327504 -2.274050 2.955976 0
M  V30 49 H 6.607464 -5.790604 2.632374 0
M  V30 50 H 4.508860 -7.152500 2.620080 0
M  V30 51 H -0.281979 -2.343835 1.000786 0
M  V30 52 H -2.508886 -1.604526 -0.093409 0
M  V30 53 H -4.124735 -1.956623 -3.156212 0
M  V30 54 H -4.848663 -0.379424 -3.420253 0
M  V30 55 H -3.046777 0.299039 -4.794693 0
M  V30 56 H -3.342233 -1.713481 -6.302943 0
M  V30 57 H -1.315360 -1.262095 -5.523626 0
M  V30 58 H -1.168598 -0.812084 -3.749043 0
M  V30 59 H -0.059943 -4.624108 -3.959662 0
M  V30 60 H -2.513906 -4.222917 -2.275223 0
M  V30 61 H -0.761408 3.783515 1.887367 0
M  V30 62 H -1.594098 5.204094 1.246974 0
M  V30 63 H 1.235829 4.481662 1.037753 0
M  V30 64 H 0.425384 6.042936 0.721258 0
M  V30 65 H -0.736582 6.357607 -1.145739 0
M  V30 66 H -0.396298 5.340556 -2.577221 0
M  V30 67 H -2.076629 3.929999 -2.099938 0
M  V30 68 H -2.625448 5.134716 -0.880089 0
M  V30 69 H -0.951121 1.771213 1.830891 0
M  V30 END ATOM
M  V30 BEGIN BOND
M  V30 1 1 1 2
M  V30 2 2 2 3
M  V30 3 1 3 4
M  V30 4 2 4 5
M  V30 5 1 5 6
M  V30 6 1 6 7
M  V30 7 2 7 8
M  V30 8 1 7 9
M  V30 9 2 9 10
M  V30 10 1 10 11
M  V30 11 1 11 12
M  V30 12 1 12 13
M  V30 13 1 12 14
M  V30 14 1 12 15
M  V30 15 2 11 16
M  V30 16 1 16 17
M  V30 17 2 17 18
M  V30 18 1 5 19
M  V30 19 2 19 20
M  V30 20 1 20 21
M  V30 21 2 21 22
M  V30 22 1 22 23
M  V30 23 1 23 24
M  V30 24 1 24 25
M  V30 25 1 25 26
M  V30 26 1 26 27
M  V30 27 1 26 28
M  V30 28 1 28 29
M  V30 29 2 29 30
M  V30 30 1 29 31
M  V30 31 1 29 32
M  V30 32 2 23 33
M  V30 33 1 33 34
M  V30 34 1 34 35
M  V30 35 1 35 36
M  V30 36 1 36 37
M  V30 37 1 37 38
M  V30 38 1 38 39
M  V30 39 1 39 40
M  V30 40 2 34 41
M  V30 41 1 20 2
M  V30 42 1 41 21
M  V30 43 1 18 9
M  V30 44 1 40 35
M  V30 45 1 1 42
M  V30 46 1 1 43
M  V30 47 1 1 44
M  V30 48 1 3 45
M  V30 49 1 4 46
M  V30 50 1 6 47
M  V30 51 1 10 48
M  V30 52 1 16 49
M  V30 53 1 17 50
M  V30 54 1 19 51
M  V30 55 1 22 52
M  V30 56 1 25 53
M  V30 57 1 25 54
M  V30 58 1 26 55
M  V30 59 1 27 56
M  V30 60 1 28 57
M  V30 61 1 28 58
M  V30 62 1 31 59
M  V30 63 1 32 60
M  V30 64 1 36 61
M  V30 65 1 36 62
M  V30 66 1 37 63
M  V30 67 1 37 64
M  V30 68 1 39 65
M  V30 69 1 39 66
M  V30 70 1 40 67
M  V30 71 1 40 68
M  V30 72 1 41 69
M  V30 END BOND
M  V30 END CTAB
M  END
>  <Dataset>  (185) 
ChEMBL_Kinases

>  <Ligand_Instance>  (185) 
nan

>  <PDB_ID>  (185) 
nan

>  <Standardized_SMILES>  (185) 
Cc1ccc(NC(=O)c2cc(C(F)(F)F)ccn2)cc1-c1cc(OCC(O)CP(=O)(O)O)nc(N2CCOCC2)c1

>  <Name>  (185) 
nan

>  <Pocket>  (185) 
nan

>  <ATP_Site>  (185) 
nan

>  <Peripheral>  (185) 
nan

>  <Num_H_Atoms_ProtBoundConf>  (185) 
nan

>  <Num_Resolved_Atoms>  (185) 
nan

>  <Num_Not_Resolved_Atoms>  (185) 
nan

$$$$
CHEMBL3924774
     RDKit          3D

  0  0  0  0  0  0  0  0  0  0999 V3000
M  V30 BEGIN CTAB
M  V30 COUNTS 49 52 0 0 0
M  V30 BEGIN ATOM
M  V30 1 O 3.334900 -1.943979 2.978307 0
M  V30 2 C 2.690848 -1.725703 1.922409 0
M  V30 3 O 3.001432 -2.388819 0.776766 0
M  V30 4 C 4.011922 -3.353589 0.582371 0
M  V30 5 C 5.333939 -2.685610 0.889294 0
M  V30 6 C 6.496488 -3.642580 0.694883 0
M  V30 7 O 7.700016 -2.965552 0.998016 0
M  V30 8 C 1.610728 -0.743127 1.982997 0
M  V30 9 C 1.813458 0.420817 1.041643 0
M  V30 10 O 2.709484 0.951621 0.329505 0
M  V30 11 C 0.485432 1.034813 1.050291 0
M  V30 12 C 0.004159 2.257886 0.860640 0
M  V30 13 C -1.370106 2.740714 0.897886 0
M  V30 14 C -1.609940 3.934102 1.594474 0
M  V30 15 N -2.916884 4.240464 1.526325 0
M  V30 16 C -3.552871 3.297021 0.811555 0
M  V30 17 N -4.790578 3.007057 0.380074 0
M  V30 18 C -5.115793 1.936116 -0.358769 0
M  V30 19 C -4.151578 1.025920 -0.737147 0
M  V30 20 C -2.847059 1.260842 -0.326252 0
M  V30 21 C -2.602805 2.375355 0.424591 0
M  V30 22 O -0.401392 -0.022969 1.340716 0
M  V30 23 C 0.296220 -1.211970 1.503333 0
M  V30 24 N -0.254978 -2.372090 1.240026 0
M  V30 25 C -1.617828 -2.435382 0.769594 0
M  V30 26 C -2.754818 -2.419196 1.535614 0
M  V30 27 C -3.991906 -2.486341 0.912245 0
M  V30 28 C -4.026302 -2.567798 -0.472877 0
M  V30 29 F -5.293262 -2.627237 -0.972808 0
M  V30 30 C -2.911747 -2.586335 -1.267828 0
M  V30 31 C -1.678844 -2.517450 -0.615027 0
M  V30 32 H 3.982134 -3.747374 -0.458269 0
M  V30 33 H 3.857349 -4.254074 1.220085 0
M  V30 34 H 5.331375 -2.435304 1.969519 0
M  V30 35 H 5.423485 -1.798258 0.236035 0
M  V30 36 H 6.400064 -4.520762 1.331743 0
M  V30 37 H 6.552635 -3.852873 -0.397601 0
M  V30 38 H 7.482022 -2.135115 1.506611 0
M  V30 39 H 1.516281 -0.259170 2.980174 0
M  V30 40 H 0.818521 2.972803 0.642237 0
M  V30 41 H -0.972510 4.616461 2.145912 0
M  V30 42 H -3.516468 5.013023 1.889533 0
M  V30 43 H -6.153040 1.771129 -0.670587 0
M  V30 44 H -4.471179 0.189461 -1.327853 0
M  V30 45 H -2.111247 0.552950 -0.635074 0
M  V30 46 H -2.503347 -2.351129 2.585450 0
M  V30 47 H -4.816430 -2.467841 1.584458 0
M  V30 48 H -3.013063 -2.652459 -2.356239 0
M  V30 49 H -0.814017 -2.535922 -1.293382 0
M  V30 END ATOM
M  V30 BEGIN BOND
M  V30 1 2 1 2
M  V30 2 1 2 3
M  V30 3 1 3 4
M  V30 4 1 4 5
M  V30 5 1 5 6
M  V30 6 1 6 7
M  V30 7 1 2 8
M  V30 8 1 8 9
M  V30 9 2 9 10
M  V30 10 1 9 11
M  V30 11 2 11 12
M  V30 12 1 12 13
M  V30 13 2 13 14
M  V30 14 1 14 15
M  V30 15 1 15 16
M  V30 16 2 16 17
M  V30 17 1 17 18
M  V30 18 2 18 19
M  V30 19 1 19 20
M  V30 20 2 20 21
M  V30 21 1 11 22
M  V30 22 1 22 23
M  V30 23 2 23 24
M  V30 24 1 24 25
M  V30 25 2 25 26
M  V30 26 1 26 27
M  V30 27 2 27 28
M  V30 28 1 28 29
M  V30 29 1 28 30
M  V30 30 2 30 31
M  V30 31 1 23 8
M  V30 32 1 31 25
M  V30 33 1 21 13
M  V30 34 1 21 16
M  V30 35 1 4 32
M  V30 36 1 4 33
M  V30 37 1 5 34
M  V30 38 1 5 35
M  V30 39 1 6 36
M  V30 40 1 6 37
M  V30 41 1 7 38
M  V30 42 1 8 39
M  V30 43 1 12 40
M  V30 44 1 14 41
M  V30 45 1 15 42
M  V30 46 1 18 43
M  V30 47 1 19 44
M  V30 48 1 20 45
M  V30 49 1 26 46
M  V30 50 1 27 47
M  V30 51 1 30 48
M  V30 52 1 31 49
M  V30 END BOND
M  V30 END CTAB
M  END
>  <Dataset>  (186) 
ChEMBL_Kinases

>  <Ligand_Instance>  (186) 
nan

>  <PDB_ID>  (186) 
nan

>  <Standardized_SMILES>  (186) 
O=C(OCCCO)C1C(=O)/C(=C/c2c[nH]c3ncccc23)O/C1=N\c1ccc(F)cc1

>  <Name>  (186) 
nan

>  <Pocket>  (186) 
nan

>  <ATP_Site>  (186) 
nan

>  <Peripheral>  (186) 
nan

>  <Num_H_Atoms_ProtBoundConf>  (186) 
nan

>  <Num_Resolved_Atoms>  (186) 
nan

>  <Num_Not_Resolved_Atoms>  (186) 
nan

$$$$
CHEMBL3924626
     RDKit          3D

  0  0  0  0  0  0  0  0  0  0999 V3000
M  V30 BEGIN CTAB
M  V30 COUNTS 44 46 0 0 0
M  V30 BEGIN ATOM
M  V30 1 C 2.341237 -6.008221 -0.553375 0
M  V30 2 C 0.969554 -6.184582 0.074964 0
M  V30 3 C 0.374457 -4.886420 0.490926 0
M  V30 4 C -0.408731 -4.175473 -0.396532 0
M  V30 5 C -0.940398 -2.965185 0.047583 0
M  V30 6 C -0.692794 -2.502336 1.317118 0
M  V30 7 N -1.287819 -1.252904 1.662944 0
M  V30 8 C -1.138018 -0.185508 1.008818 0
M  V30 9 S -0.126136 -0.094468 -0.488480 0
M  V30 10 C -0.747286 1.538178 -1.005743 0
M  V30 11 C 0.386994 2.495736 -1.275267 0
M  V30 12 C 1.220150 2.703878 -0.089365 0
M  V30 13 C 2.330014 1.905493 0.189857 0
M  V30 14 C 3.070753 2.145860 1.311095 0
M  V30 15 N 2.753615 3.141728 2.159559 0
M  V30 16 C 1.693796 3.962651 1.963705 0
M  V30 17 N 1.339798 5.019010 2.843972 0
M  V30 18 C 0.949352 3.708575 0.821733 0
M  V30 19 C -1.602761 1.949412 0.121399 0
M  V30 20 O -2.230970 3.039396 0.015044 0
M  V30 21 N -1.660884 1.102922 1.234493 0
M  V30 22 C -2.204955 1.480115 2.528481 0
M  V30 23 C 0.101902 -3.253860 2.174281 0
M  V30 24 C 0.650726 -4.458262 1.780478 0
M  V30 25 H 3.101514 -5.664887 0.171543 0
M  V30 26 H 2.320018 -5.348764 -1.433675 0
M  V30 27 H 2.624698 -7.043150 -0.900911 0
M  V30 28 H 0.356248 -6.701926 -0.694201 0
M  V30 29 H 1.091003 -6.892704 0.919095 0
M  V30 30 H -0.608325 -4.540379 -1.408126 0
M  V30 31 H -1.542352 -2.446371 -0.674216 0
M  V30 32 H -1.317007 1.367166 -1.936002 0
M  V30 33 H 0.937477 2.119704 -2.151346 0
M  V30 34 H -0.079993 3.451263 -1.557743 0
M  V30 35 H 2.600458 1.111618 -0.466744 0
M  V30 36 H 3.952466 1.547236 1.576023 0
M  V30 37 H 0.631092 4.824030 3.608577 0
M  V30 38 H 1.656603 6.027547 2.900161 0
M  V30 39 H 0.095412 4.360468 0.652350 0
M  V30 40 H -2.478583 2.569732 2.553578 0
M  V30 41 H -1.485808 1.331088 3.366764 0
M  V30 42 H -3.132197 0.885900 2.759738 0
M  V30 43 H 0.269813 -2.840845 3.177825 0
M  V30 44 H 1.263754 -5.013281 2.477209 0
M  V30 END ATOM
M  V30 BEGIN BOND
M  V30 1 1 1 2
M  V30 2 1 2 3
M  V30 3 2 3 4
M  V30 4 1 4 5
M  V30 5 2 5 6
M  V30 6 1 6 7
M  V30 7 2 7 8
M  V30 8 1 8 9
M  V30 9 1 9 10
M  V30 10 1 10 11
M  V30 11 1 11 12
M  V30 12 2 12 13
M  V30 13 1 13 14
M  V30 14 2 14 15
M  V30 15 1 15 16
M  V30 16 1 16 17
M  V30 17 2 16 18
M  V30 18 1 10 19
M  V30 19 2 19 20
M  V30 20 1 19 21
M  V30 21 1 21 22
M  V30 22 1 6 23
M  V30 23 2 23 24
M  V30 24 1 24 3
M  V30 25 1 21 8
M  V30 26 1 18 12
M  V30 27 1 1 25
M  V30 28 1 1 26
M  V30 29 1 1 27
M  V30 30 1 2 28
M  V30 31 1 2 29
M  V30 32 1 4 30
M  V30 33 1 5 31
M  V30 34 1 10 32
M  V30 35 1 11 33
M  V30 36 1 11 34
M  V30 37 1 13 35
M  V30 38 1 14 36
M  V30 39 1 17 37
M  V30 40 1 17 38
M  V30 41 1 18 39
M  V30 42 1 22 40
M  V30 43 1 22 41
M  V30 44 1 22 42
M  V30 45 1 23 43
M  V30 46 1 24 44
M  V30 END BOND
M  V30 END CTAB
M  END
>  <Dataset>  (187) 
ChEMBL_Kinases

>  <Ligand_Instance>  (187) 
nan

>  <PDB_ID>  (187) 
nan

>  <Standardized_SMILES>  (187) 
CCc1ccc(/N=C2\SC(Cc3ccnc(N)c3)C(=O)N2C)cc1

>  <Name>  (187) 
nan

>  <Pocket>  (187) 
nan

>  <ATP_Site>  (187) 
nan

>  <Peripheral>  (187) 
nan

>  <Num_H_Atoms_ProtBoundConf>  (187) 
nan

>  <Num_Resolved_Atoms>  (187) 
nan

>  <Num_Not_Resolved_Atoms>  (187) 
nan

$$$$
CHEMBL3927204
     RDKit          3D

  0  0  0  0  0  0  0  0  0  0999 V3000
M  V30 BEGIN CTAB
M  V30 COUNTS 44 48 0 0 0
M  V30 BEGIN ATOM
M  V30 1 O 1.844303 -2.771726 5.934051 0
M  V30 2 C 1.799994 -2.856537 4.665566 0
M  V30 3 C 2.374981 -4.020392 3.900372 0
M  V30 4 O 3.031960 -3.527659 2.751654 0
M  V30 5 C 2.451999 -2.534042 1.970922 0
M  V30 6 C 2.807291 -2.413536 0.640620 0
M  V30 7 C 2.241568 -1.425078 -0.167900 0
M  V30 8 C 1.324210 -0.574123 0.385424 0
M  V30 9 C 0.702107 0.495207 -0.436818 0
M  V30 10 O 1.080580 0.382200 -1.776489 0
M  V30 11 C 1.054040 1.835149 0.108104 0
M  V30 12 C 2.231416 2.512243 0.234141 0
M  V30 13 C 2.304030 3.776305 0.793681 0
M  V30 14 C 1.136358 4.376754 1.242955 0
M  V30 15 C -0.099407 3.729923 1.139359 0
M  V30 16 C -0.094543 2.458719 0.564602 0
M  V30 17 C -1.249797 1.578017 0.336370 0
M  V30 18 O -2.461131 1.824666 0.631304 0
M  V30 19 N -0.732365 0.399205 -0.279588 0
M  V30 20 C -1.575912 -0.676906 -0.664480 0
M  V30 21 C -1.993640 -1.789983 0.033745 0
M  V30 22 C -2.818921 -2.725301 -0.533722 0
M  V30 23 C -3.277069 -2.606717 -1.830781 0
M  V30 24 Cl -4.331010 -3.840789 -2.496006 0
M  V30 25 C -2.870902 -1.499466 -2.547520 0
M  V30 26 C -2.035847 -0.547157 -1.982654 0
M  V30 27 C 0.979731 -0.706514 1.713626 0
M  V30 28 C 1.530536 -1.675422 2.516908 0
M  V30 29 N 1.190662 -1.831368 3.891217 0
M  V30 30 H 3.065847 -4.616429 4.497734 0
M  V30 31 H 1.478582 -4.592564 3.547209 0
M  V30 32 H 3.518914 -3.049741 0.151823 0
M  V30 33 H 2.522526 -1.330637 -1.217733 0
M  V30 34 H 0.800074 1.220829 -2.215924 0
M  V30 35 H 3.174770 2.102744 -0.094323 0
M  V30 36 H 3.216378 4.361371 0.918674 0
M  V30 37 H 1.057724 5.361753 1.699945 0
M  V30 38 H -1.024141 4.185070 1.486204 0
M  V30 39 H -1.599952 -1.816431 1.035870 0
M  V30 40 H -3.099505 -3.565120 0.077770 0
M  V30 41 H -3.215211 -1.375022 -3.576663 0
M  V30 42 H -1.771671 0.296360 -2.640634 0
M  V30 43 H 0.239958 -0.016180 2.148851 0
M  V30 44 H 0.488370 -1.182493 4.320120 0
M  V30 END ATOM
M  V30 BEGIN BOND
M  V30 1 2 1 2
M  V30 2 1 2 3
M  V30 3 1 3 4
M  V30 4 1 4 5
M  V30 5 2 5 6
M  V30 6 1 6 7
M  V30 7 2 7 8
M  V30 8 1 8 9
M  V30 9 1 9 10
M  V30 10 1 9 11
M  V30 11 2 11 12
M  V30 12 1 12 13
M  V30 13 2 13 14
M  V30 14 1 14 15
M  V30 15 2 15 16
M  V30 16 1 16 17
M  V30 17 2 17 18
M  V30 18 1 17 19
M  V30 19 1 19 20
M  V30 20 2 20 21
M  V30 21 1 21 22
M  V30 22 2 22 23
M  V30 23 1 23 24
M  V30 24 1 23 25
M  V30 25 2 25 26
M  V30 26 1 8 27
M  V30 27 2 27 28
M  V30 28 1 28 29
M  V30 29 1 29 2
M  V30 30 1 28 5
M  V30 31 1 19 9
M  V30 32 1 26 20
M  V30 33 1 16 11
M  V30 34 1 3 30
M  V30 35 1 3 31
M  V30 36 1 6 32
M  V30 37 1 7 33
M  V30 38 1 10 34
M  V30 39 1 12 35
M  V30 40 1 13 36
M  V30 41 1 14 37
M  V30 42 1 15 38
M  V30 43 1 21 39
M  V30 44 1 22 40
M  V30 45 1 25 41
M  V30 46 1 26 42
M  V30 47 1 27 43
M  V30 48 1 29 44
M  V30 END BOND
M  V30 END CTAB
M  END
>  <Dataset>  (188) 
ChEMBL_Kinases

>  <Ligand_Instance>  (188) 
nan

>  <PDB_ID>  (188) 
nan

>  <Standardized_SMILES>  (188) 
O=C1COc2ccc(C3(O)c4ccccc4C(=O)N3c3ccc(Cl)cc3)cc2N1

>  <Name>  (188) 
nan

>  <Pocket>  (188) 
nan

>  <ATP_Site>  (188) 
nan

>  <Peripheral>  (188) 
nan

>  <Num_H_Atoms_ProtBoundConf>  (188) 
nan

>  <Num_Resolved_Atoms>  (188) 
nan

>  <Num_Not_Resolved_Atoms>  (188) 
nan

$$$$
CHEMBL3924516
     RDKit          3D

  0  0  0  0  0  0  0  0  0  0999 V3000
M  V30 BEGIN CTAB
M  V30 COUNTS 39 41 0 0 0
M  V30 BEGIN ATOM
M  V30 1 N 1.403200 -3.435604 3.457841 0
M  V30 2 S 0.784645 -4.555262 2.332280 0
M  V30 3 O -0.405482 -5.275089 2.848288 0
M  V30 4 O 1.917867 -5.493229 1.984659 0
M  V30 5 C 0.278143 -3.704343 0.851597 0
M  V30 6 C 0.974593 -3.674432 -0.338808 0
M  V30 7 C 0.477144 -2.882622 -1.369599 0
M  V30 8 C -0.684930 -2.161335 -1.174033 0
M  V30 9 N -1.145157 -1.289291 -2.202199 0
M  V30 10 C -0.822719 0.082133 -1.840571 0
M  V30 11 N -1.047157 1.068184 -2.772851 0
M  V30 12 C -0.738009 2.346071 -2.514695 0
M  V30 13 C -0.186124 2.718535 -1.303381 0
M  V30 14 C 0.045335 1.740851 -0.359349 0
M  V30 15 C 0.594190 1.834990 0.991737 0
M  V30 16 C 1.855336 2.458400 1.007527 0
M  V30 17 C 2.448074 2.636575 2.259369 0
M  V30 18 C 1.870950 2.242874 3.441453 0
M  V30 19 C 0.635682 1.636029 3.439541 0
M  V30 20 C 0.059802 1.462443 2.195260 0
M  V30 21 N -1.211027 0.899485 2.162390 0 CHG=1 VAL=4
M  V30 22 O -2.233141 0.833196 2.896663 0
M  V30 23 O -2.425874 0.295508 2.001307 0 CHG=-1 VAL=1
M  V30 24 N -0.285076 0.443115 -0.658244 0
M  V30 25 C -1.343159 -2.232576 0.034136 0
M  V30 26 C -0.886000 -2.995429 1.065943 0
M  V30 27 H 2.416552 -3.303209 3.486056 0
M  V30 28 H 1.074663 -3.581779 4.428886 0
M  V30 29 H 1.846845 -4.300372 -0.314423 0
M  V30 30 H 1.068629 -2.897344 -2.279693 0
M  V30 31 H -1.632175 -1.475509 -3.085899 0
M  V30 32 H -0.892811 3.167457 -3.245061 0
M  V30 33 H 0.113364 3.703684 -0.974634 0
M  V30 34 H 2.454947 2.814106 0.196973 0
M  V30 35 H 3.413525 3.105473 2.339964 0
M  V30 36 H 2.422543 2.420533 4.383378 0
M  V30 37 H 0.122536 1.299788 4.315687 0
M  V30 38 H -2.257687 -1.645982 0.117819 0
M  V30 39 H -1.495074 -2.946828 1.940798 0
M  V30 END ATOM
M  V30 BEGIN BOND
M  V30 1 1 1 2
M  V30 2 2 2 3
M  V30 3 2 2 4
M  V30 4 1 2 5
M  V30 5 2 5 6
M  V30 6 1 6 7
M  V30 7 2 7 8
M  V30 8 1 8 9
M  V30 9 1 9 10
M  V30 10 2 10 11
M  V30 11 1 11 12
M  V30 12 2 12 13
M  V30 13 1 13 14
M  V30 14 1 14 15
M  V30 15 2 15 16
M  V30 16 1 16 17
M  V30 17 2 17 18
M  V30 18 1 18 19
M  V30 19 2 19 20
M  V30 20 1 20 21
M  V30 21 2 21 22
M  V30 22 1 21 23
M  V30 23 2 14 24
M  V30 24 1 8 25
M  V30 25 2 25 26
M  V30 26 1 26 5
M  V30 27 1 24 10
M  V30 28 1 20 15
M  V30 29 1 1 27
M  V30 30 1 1 28
M  V30 31 1 6 29
M  V30 32 1 7 30
M  V30 33 1 9 31
M  V30 34 1 12 32
M  V30 35 1 13 33
M  V30 36 1 16 34
M  V30 37 1 17 35
M  V30 38 1 18 36
M  V30 39 1 19 37
M  V30 40 1 25 38
M  V30 41 1 26 39
M  V30 END BOND
M  V30 END CTAB
M  END
>  <Dataset>  (189) 
ChEMBL_Kinases

>  <Ligand_Instance>  (189) 
nan

>  <PDB_ID>  (189) 
nan

>  <Standardized_SMILES>  (189) 
NS(=O)(=O)c1ccc(Nc2nccc(-c3ccccc3[N+](=O)[O-])n2)cc1

>  <Name>  (189) 
nan

>  <Pocket>  (189) 
nan

>  <ATP_Site>  (189) 
nan

>  <Peripheral>  (189) 
nan

>  <Num_H_Atoms_ProtBoundConf>  (189) 
nan

>  <Num_Resolved_Atoms>  (189) 
nan

>  <Num_Not_Resolved_Atoms>  (189) 
nan

$$$$
CHEMBL4876320
     RDKit          3D

  0  0  0  0  0  0  0  0  0  0999 V3000
M  V30 BEGIN CTAB
M  V30 COUNTS 60 63 0 0 0
M  V30 BEGIN ATOM
M  V30 1 C 4.347859 -1.676194 4.406717 0
M  V30 2 O 3.477126 -0.904209 3.606556 0
M  V30 3 C 2.507376 -1.549695 2.852805 0
M  V30 4 C 2.393490 -2.918480 2.882105 0
M  V30 5 C 1.462488 -3.593077 2.163491 0
M  V30 6 C 0.594338 -2.872982 1.370542 0
M  V30 7 C 0.719172 -1.508654 1.350765 0
M  V30 8 C 1.646968 -0.776349 2.061424 0
M  V30 9 N 1.757611 0.620521 2.026031 0
M  V30 10 C 1.005941 1.591010 1.310101 0
M  V30 11 N 1.284824 2.885618 1.420096 0
M  V30 12 C 0.628248 3.860685 0.783609 0
M  V30 13 C -0.403175 3.490982 -0.037867 0
M  V30 14 C -1.129259 4.534955 -0.737953 0
M  V30 15 N -0.799852 5.910080 -0.596969 0
M  V30 16 O -2.083723 4.604516 -1.533793 0
M  V30 17 C -0.742176 2.172562 -0.195580 0
M  V30 18 N -1.794512 1.718784 -1.026200 0
M  V30 19 C -2.234933 0.407527 -1.270155 0
M  V30 20 C -3.222345 -0.042338 -0.394359 0
M  V30 21 C -3.784472 0.783956 0.723020 0
M  V30 22 C -3.768958 -1.314689 -0.494524 0
M  V30 23 C -3.281955 -2.114427 -1.510520 0
M  V30 24 C -2.309163 -1.723303 -2.403100 0
M  V30 25 C -1.796002 -0.448506 -2.263171 0
M  V30 26 C -0.741645 0.109836 -3.154186 0
M  V30 27 N -0.010104 1.294269 0.494483 0
M  V30 28 C -0.412158 -3.643874 0.599561 0
M  V30 29 N 0.175683 -4.774865 -0.045180 0
M  V30 30 C 0.676160 -4.352257 -1.339992 0
M  V30 31 C 1.227112 -5.432159 0.656140 0
M  V30 32 C 1.284005 -5.089810 2.148264 0
M  V30 33 H 3.804372 -2.402902 5.060192 0
M  V30 34 H 5.125270 -2.207595 3.844437 0
M  V30 35 H 4.859860 -0.964565 5.098428 0
M  V30 36 H 3.069453 -3.492064 3.500666 0
M  V30 37 H 0.006007 -1.012735 0.708124 0
M  V30 38 H 2.531265 1.021015 2.635073 0
M  V30 39 H 0.905130 4.894910 0.916517 0
M  V30 40 H -1.182023 6.330447 0.301856 0
M  V30 41 H -0.230580 6.387882 -1.354000 0
M  V30 42 H -2.424332 2.309486 -1.603019 0
M  V30 43 H -3.288021 0.579853 1.688378 0
M  V30 44 H -3.649453 1.863603 0.526983 0
M  V30 45 H -4.894897 0.614815 0.754658 0
M  V30 46 H -4.531070 -1.692455 0.164256 0
M  V30 47 H -3.690122 -3.113601 -1.613537 0
M  V30 48 H -1.936324 -2.358001 -3.193734 0
M  V30 49 H 0.212933 0.256446 -2.615162 0
M  V30 50 H -1.101547 1.103241 -3.501377 0
M  V30 51 H -0.607952 -0.567300 -4.028457 0
M  V30 52 H -1.200315 -3.943581 1.346518 0
M  V30 53 H -0.873587 -2.940169 -0.123650 0
M  V30 54 H 1.642797 -3.793664 -1.199642 0
M  V30 55 H -0.016496 -3.645199 -1.833982 0
M  V30 56 H 0.838401 -5.209507 -2.021836 0
M  V30 57 H 1.152659 -6.530037 0.510926 0
M  V30 58 H 2.199424 -5.077087 0.254950 0
M  V30 59 H 2.197588 -5.596434 2.526845 0
M  V30 60 H 0.364265 -5.409198 2.662295 0
M  V30 END ATOM
M  V30 BEGIN BOND
M  V30 1 1 1 2
M  V30 2 1 2 3
M  V30 3 2 3 4
M  V30 4 1 4 5
M  V30 5 2 5 6
M  V30 6 1 6 7
M  V30 7 2 7 8
M  V30 8 1 8 9
M  V30 9 1 9 10
M  V30 10 2 10 11
M  V30 11 1 11 12
M  V30 12 2 12 13
M  V30 13 1 13 14
M  V30 14 1 14 15
M  V30 15 2 14 16
M  V30 16 1 13 17
M  V30 17 1 17 18
M  V30 18 1 18 19
M  V30 19 2 19 20
M  V30 20 1 20 21
M  V30 21 1 20 22
M  V30 22 2 22 23
M  V30 23 1 23 24
M  V30 24 2 24 25
M  V30 25 1 25 26
M  V30 26 2 17 27
M  V30 27 1 6 28
M  V30 28 1 28 29
M  V30 29 1 29 30
M  V30 30 1 29 31
M  V30 31 1 31 32
M  V30 32 1 8 3
M  V30 33 1 27 10
M  V30 34 1 32 5
M  V30 35 1 25 19
M  V30 36 1 1 33
M  V30 37 1 1 34
M  V30 38 1 1 35
M  V30 39 1 4 36
M  V30 40 1 7 37
M  V30 41 1 9 38
M  V30 42 1 12 39
M  V30 43 1 15 40
M  V30 44 1 15 41
M  V30 45 1 18 42
M  V30 46 1 21 43
M  V30 47 1 21 44
M  V30 48 1 21 45
M  V30 49 1 22 46
M  V30 50 1 23 47
M  V30 51 1 24 48
M  V30 52 1 26 49
M  V30 53 1 26 50
M  V30 54 1 26 51
M  V30 55 1 28 52
M  V30 56 1 28 53
M  V30 57 1 30 54
M  V30 58 1 30 55
M  V30 59 1 30 56
M  V30 60 1 31 57
M  V30 61 1 31 58
M  V30 62 1 32 59
M  V30 63 1 32 60
M  V30 END BOND
M  V30 END CTAB
M  END
>  <Dataset>  (190) 
ChEMBL_Kinases

>  <Ligand_Instance>  (190) 
nan

>  <PDB_ID>  (190) 
nan

>  <Standardized_SMILES>  (190) 
COc1cc2c(cc1Nc1ncc(C(N)=O)c(Nc3c(C)cccc3C)n1)CN(C)CC2

>  <Name>  (190) 
nan

>  <Pocket>  (190) 
nan

>  <ATP_Site>  (190) 
nan

>  <Peripheral>  (190) 
nan

>  <Num_H_Atoms_ProtBoundConf>  (190) 
nan

>  <Num_Resolved_Atoms>  (190) 
nan

>  <Num_Not_Resolved_Atoms>  (190) 
nan

$$$$
CHEMBL3924322
     RDKit          3D

  0  0  0  0  0  0  0  0  0  0999 V3000
M  V30 BEGIN CTAB
M  V30 COUNTS 60 64 0 0 0
M  V30 BEGIN ATOM
M  V30 1 C 5.496975 -1.596596 1.886186 0
M  V30 2 O 4.862625 -0.416125 1.487810 0
M  V30 3 C 4.815768 -0.361671 0.131986 0
M  V30 4 C 4.178623 0.817992 -0.509333 0
M  V30 5 O 2.855568 1.069461 -0.230575 0
M  V30 6 C 2.196689 1.387952 0.900170 0
M  V30 7 C 2.423233 1.631441 2.231400 0
M  V30 8 C 1.475428 1.944208 3.172746 0
M  V30 9 C 0.165074 2.027113 2.761544 0
M  V30 10 C -0.166611 1.797659 1.429788 0
M  V30 11 N -1.562197 1.929109 1.202300 0
M  V30 12 C -2.317046 3.093384 0.827927 0
M  V30 13 O -1.831626 4.234397 0.624475 0
M  V30 14 C -3.704693 2.660460 0.744552 0
M  V30 15 C -4.859633 3.358319 0.429764 0
M  V30 16 C -6.047602 2.657723 0.438869 0
M  V30 17 C -6.149152 1.312088 0.741413 0
M  V30 18 C -4.995554 0.613083 1.056210 0
M  V30 19 C -3.790337 1.315031 1.048966 0
M  V30 20 C -2.440244 0.797427 1.343403 0
M  V30 21 O -2.334634 0.403836 2.698238 0
M  V30 22 C -2.114363 -0.341936 0.477044 0
M  V30 23 C -2.053821 -0.210975 -0.892366 0
M  V30 24 C -1.750507 -1.247554 -1.760170 0
M  V30 25 C -1.484671 -2.515873 -1.246075 0
M  V30 26 N -1.165740 -3.715112 -1.766052 0
M  V30 27 C -1.024026 -4.594946 -0.767004 0
M  V30 28 N -0.682701 -5.951284 -1.059171 0
M  V30 29 C 0.738913 -6.141988 -1.080772 0
M  V30 30 O 1.610065 -5.271506 -0.878015 0
M  V30 31 O 1.336301 -7.345345 -1.335640 0
M  V30 32 C 2.761283 -7.511952 -1.351835 0
M  V30 33 N -1.256754 -3.938552 0.387125 0
M  V30 34 C -1.546075 -2.644028 0.125894 0
M  V30 35 C -1.848287 -1.611235 0.989752 0
M  V30 36 C 0.846155 1.480438 0.508203 0
M  V30 37 H 4.944915 -2.506192 1.509844 0
M  V30 38 H 5.539723 -1.631637 2.999338 0
M  V30 39 H 6.497302 -1.666872 1.406481 0
M  V30 40 H 4.250283 -1.266141 -0.230106 0
M  V30 41 H 5.867962 -0.423370 -0.275102 0
M  V30 42 H 4.229596 0.627809 -1.634609 0
M  V30 43 H 4.821080 1.745427 -0.417167 0
M  V30 44 H 3.459557 1.564062 2.457192 0
M  V30 45 H 1.858386 2.096606 4.159051 0
M  V30 46 H -0.533284 2.276221 3.547275 0
M  V30 47 H -4.837827 4.415496 0.184468 0
M  V30 48 H -6.975278 3.150594 0.201933 0
M  V30 49 H -7.087368 0.769155 0.746197 0
M  V30 50 H -5.031891 -0.440115 1.298700 0
M  V30 51 H -3.145786 0.646014 3.211407 0
M  V30 52 H -2.258117 0.770836 -1.312164 0
M  V30 53 H -1.714324 -1.097161 -2.834013 0
M  V30 54 H -1.071495 -3.817629 -2.811969 0
M  V30 55 H -1.313906 -6.781677 -1.249895 0
M  V30 56 H 3.164826 -6.725140 -2.038201 0
M  V30 57 H 3.034937 -8.515071 -1.689401 0
M  V30 58 H 3.172467 -7.271610 -0.343229 0
M  V30 59 H -1.891457 -1.730324 2.055480 0
M  V30 60 H 0.339948 1.351314 -0.445399 0
M  V30 END ATOM
M  V30 BEGIN BOND
M  V30 1 1 1 2
M  V30 2 1 2 3
M  V30 3 1 3 4
M  V30 4 1 4 5
M  V30 5 1 5 6
M  V30 6 2 6 7
M  V30 7 1 7 8
M  V30 8 2 8 9
M  V30 9 1 9 10
M  V30 10 1 10 11
M  V30 11 1 11 12
M  V30 12 2 12 13
M  V30 13 1 12 14
M  V30 14 2 14 15
M  V30 15 1 15 16
M  V30 16 2 16 17
M  V30 17 1 17 18
M  V30 18 2 18 19
M  V30 19 1 19 20
M  V30 20 1 20 21
M  V30 21 1 20 22
M  V30 22 2 22 23
M  V30 23 1 23 24
M  V30 24 2 24 25
M  V30 25 1 25 26
M  V30 26 1 26 27
M  V30 27 1 27 28
M  V30 28 1 28 29
M  V30 29 2 29 30
M  V30 30 1 29 31
M  V30 31 1 31 32
M  V30 32 2 27 33
M  V30 33 1 33 34
M  V30 34 2 34 35
M  V30 35 2 10 36
M  V30 36 1 36 6
M  V30 37 1 20 11
M  V30 38 1 35 22
M  V30 39 1 19 14
M  V30 40 1 34 25
M  V30 41 1 1 37
M  V30 42 1 1 38
M  V30 43 1 1 39
M  V30 44 1 3 40
M  V30 45 1 3 41
M  V30 46 1 4 42
M  V30 47 1 4 43
M  V30 48 1 7 44
M  V30 49 1 8 45
M  V30 50 1 9 46
M  V30 51 1 15 47
M  V30 52 1 16 48
M  V30 53 1 17 49
M  V30 54 1 18 50
M  V30 55 1 21 51
M  V30 56 1 23 52
M  V30 57 1 24 53
M  V30 58 1 26 54
M  V30 59 1 28 55
M  V30 60 1 32 56
M  V30 61 1 32 57
M  V30 62 1 32 58
M  V30 63 1 35 59
M  V30 64 1 36 60
M  V30 END BOND
M  V30 END CTAB
M  END
>  <Dataset>  (191) 
ChEMBL_Kinases

>  <Ligand_Instance>  (191) 
nan

>  <PDB_ID>  (191) 
nan

>  <Standardized_SMILES>  (191) 
COCCOc1cccc(N2C(=O)c3ccccc3C2(O)c2ccc3[nH]c(NC(=O)OC)nc3c2)c1

>  <Name>  (191) 
nan

>  <Pocket>  (191) 
nan

>  <ATP_Site>  (191) 
nan

>  <Peripheral>  (191) 
nan

>  <Num_H_Atoms_ProtBoundConf>  (191) 
nan

>  <Num_Resolved_Atoms>  (191) 
nan

>  <Num_Not_Resolved_Atoms>  (191) 
nan

$$$$
CHEMBL3924269
     RDKit          3D

  0  0  0  0  0  0  0  0  0  0999 V3000
M  V30 BEGIN CTAB
M  V30 COUNTS 42 46 0 0 0
M  V30 BEGIN ATOM
M  V30 1 O -2.106460 -2.794052 -0.004121 0
M  V30 2 C -1.192837 -2.024687 -0.343287 0
M  V30 3 C -1.485598 -0.987478 -1.318879 0
M  V30 4 C -2.538606 -0.535827 -2.083812 0
M  V30 5 C -2.403240 0.530741 -2.961527 0
M  V30 6 C -1.179508 1.156520 -3.071040 0
M  V30 7 C -0.088173 0.733213 -2.315952 0
M  V30 8 C -0.281599 -0.331706 -1.459630 0
M  V30 9 C 0.794589 -0.875859 -0.564040 0
M  V30 10 O 1.886292 -1.204331 -1.324376 0
M  V30 11 C 1.144977 0.155387 0.468133 0
M  V30 12 C 2.296102 0.898783 0.683535 0
M  V30 13 C 2.316927 1.790674 1.724245 0
M  V30 14 C 1.256333 1.975073 2.552092 0
M  V30 15 N 1.087688 2.796844 3.617220 0
M  V30 16 C -0.155471 2.592104 4.089516 0
M  V30 17 O -0.648871 3.189472 5.075973 0
M  V30 18 N -0.759723 1.655884 3.333277 0
M  V30 19 C 0.090680 1.255153 2.373158 0
M  V30 20 C 0.049367 0.340373 1.317144 0
M  V30 21 N 0.153810 -1.996406 0.091022 0
M  V30 22 C 0.844884 -2.835151 0.987435 0
M  V30 23 C 2.216494 -2.664496 1.211955 0
M  V30 24 C 2.965558 -3.422995 2.068840 0
M  V30 25 C 2.386423 -4.429583 2.779106 0
M  V30 26 C 1.039084 -4.669244 2.620590 0
M  V30 27 Cl 0.299439 -5.957843 3.527237 0
M  V30 28 C 0.348179 -3.867661 1.742267 0
M  V30 29 F -0.959378 -4.175097 1.656296 0
M  V30 30 H -3.463477 -1.097413 -1.922772 0
M  V30 31 H -3.303005 0.806123 -3.519510 0
M  V30 32 H -1.112593 1.982379 -3.765544 0
M  V30 33 H 0.848385 1.268497 -2.449580 0
M  V30 34 H 2.295717 -0.395861 -1.666075 0
M  V30 35 H 3.035608 0.633719 -0.055102 0
M  V30 36 H 3.262687 2.319885 1.805855 0
M  V30 37 H 1.781965 3.475084 4.020955 0
M  V30 38 H -1.731778 1.282703 3.452369 0
M  V30 39 H -0.910134 -0.162000 1.275565 0
M  V30 40 H 2.791035 -1.905893 0.703834 0
M  V30 41 H 4.021551 -3.264654 2.220114 0
M  V30 42 H 2.971570 -5.032919 3.459226 0
M  V30 END ATOM
M  V30 BEGIN BOND
M  V30 1 2 1 2
M  V30 2 1 2 3
M  V30 3 2 3 4
M  V30 4 1 4 5
M  V30 5 2 5 6
M  V30 6 1 6 7
M  V30 7 2 7 8
M  V30 8 1 8 9
M  V30 9 1 9 10
M  V30 10 1 9 11
M  V30 11 2 11 12
M  V30 12 1 12 13
M  V30 13 2 13 14
M  V30 14 1 14 15
M  V30 15 1 15 16
M  V30 16 2 16 17
M  V30 17 1 16 18
M  V30 18 1 18 19
M  V30 19 2 19 20
M  V30 20 1 9 21
M  V30 21 1 21 22
M  V30 22 2 22 23
M  V30 23 1 23 24
M  V30 24 2 24 25
M  V30 25 1 25 26
M  V30 26 1 26 27
M  V30 27 2 26 28
M  V30 28 1 28 29
M  V30 29 1 21 2
M  V30 30 1 28 22
M  V30 31 1 8 3
M  V30 32 1 20 11
M  V30 33 1 19 14
M  V30 34 1 4 30
M  V30 35 1 5 31
M  V30 36 1 6 32
M  V30 37 1 7 33
M  V30 38 1 10 34
M  V30 39 1 12 35
M  V30 40 1 13 36
M  V30 41 1 15 37
M  V30 42 1 18 38
M  V30 43 1 20 39
M  V30 44 1 23 40
M  V30 45 1 24 41
M  V30 46 1 25 42
M  V30 END BOND
M  V30 END CTAB
M  END
>  <Dataset>  (192) 
ChEMBL_Kinases

>  <Ligand_Instance>  (192) 
nan

>  <PDB_ID>  (192) 
nan

>  <Standardized_SMILES>  (192) 
O=C1c2ccccc2C(O)(c2ccc3[nH]c(=O)[nH]c3c2)N1c1cccc(Cl)c1F

>  <Name>  (192) 
nan

>  <Pocket>  (192) 
nan

>  <ATP_Site>  (192) 
nan

>  <Peripheral>  (192) 
nan

>  <Num_H_Atoms_ProtBoundConf>  (192) 
nan

>  <Num_Resolved_Atoms>  (192) 
nan

>  <Num_Not_Resolved_Atoms>  (192) 
nan

$$$$
CHEMBL3924245
     RDKit          3D

  0  0  0  0  0  0  0  0  0  0999 V3000
M  V30 BEGIN CTAB
M  V30 COUNTS 70 73 0 0 0
M  V30 BEGIN ATOM
M  V30 1 C 3.863651 -0.713438 4.515348 0
M  V30 2 C 4.774986 -0.422084 3.374367 0
M  V30 3 S 4.297109 -1.270568 1.858229 0
M  V30 4 O 5.364993 -0.950425 0.872614 0
M  V30 5 O 4.304251 -2.740166 2.270390 0
M  V30 6 C 2.710925 -0.732578 1.381434 0
M  V30 7 C 2.004277 0.192825 2.106081 0
M  V30 8 C 0.758448 0.673809 1.780223 0
M  V30 9 N 0.134023 1.624071 2.611021 0
M  V30 10 C -1.139862 2.236746 2.470708 0
M  V30 11 N -1.568738 3.114722 3.360698 0
M  V30 12 C -2.749938 3.730752 3.297806 0
M  V30 13 C -3.622706 3.483621 2.271544 0
M  V30 14 F -4.842677 4.042701 2.098937 0
M  V30 15 C -3.206799 2.574481 1.327948 0
M  V30 16 N -3.941835 2.166216 0.184455 0
M  V30 17 C -4.253902 3.271185 -0.706742 0
M  V30 18 C -4.256048 0.782998 0.079207 0
M  V30 19 C -4.996936 0.027548 0.963995 0
M  V30 20 C -5.192983 -1.296846 0.689747 0
M  V30 21 C -5.990039 -2.112032 1.640535 0
M  V30 22 O -7.315326 -2.020153 1.214443 0
M  V30 23 C -4.660277 -1.879748 -0.455516 0
M  V30 24 C -3.927590 -1.146773 -1.336889 0
M  V30 25 C -3.714546 0.210593 -1.075866 0
M  V30 26 C -2.905705 0.924413 -2.091927 0
M  V30 27 N -2.010966 2.014870 1.480974 0
M  V30 28 C 0.193387 0.174746 0.631474 0
M  V30 29 C 0.867672 -0.756013 -0.127097 0
M  V30 30 C 2.137874 -1.228352 0.231312 0
M  V30 31 N 2.673461 -2.207199 -0.640859 0
M  V30 32 C 2.355900 -2.051485 -2.072388 0
M  V30 33 C 3.552461 -2.296058 -2.958072 0
M  V30 34 N 3.999385 -3.653649 -2.781875 0
M  V30 35 C 3.955718 -4.370003 -4.019398 0
M  V30 36 C 3.336347 -4.317972 -1.700974 0
M  V30 37 C 3.466121 -3.403329 -0.466776 0
M  V30 38 H 3.510407 0.175556 5.081637 0
M  V30 39 H 4.432334 -1.305600 5.299616 0
M  V30 40 H 2.986231 -1.364526 4.257975 0
M  V30 41 H 5.800332 -0.768933 3.607444 0
M  V30 42 H 4.843476 0.660497 3.126900 0
M  V30 43 H 2.470421 0.570543 2.986126 0
M  V30 44 H 0.677890 1.938295 3.467496 0
M  V30 45 H -3.069050 4.449071 4.050759 0
M  V30 46 H -5.069955 3.924773 -0.311912 0
M  V30 47 H -4.644293 2.916656 -1.701164 0
M  V30 48 H -3.387035 3.931721 -0.873915 0
M  V30 49 H -5.372906 0.557149 1.825732 0
M  V30 50 H -5.862034 -1.677087 2.652262 0
M  V30 51 H -5.707290 -3.170832 1.672566 0
M  V30 52 H -7.834825 -2.657036 1.760152 0
M  V30 53 H -4.816462 -2.942066 -0.677254 0
M  V30 54 H -3.519156 -1.625178 -2.229209 0
M  V30 55 H -2.479157 1.857779 -1.670448 0
M  V30 56 H -3.439083 1.083210 -3.050574 0
M  V30 57 H -2.036829 0.244491 -2.333575 0
M  V30 58 H -0.776232 0.488260 0.292032 0
M  V30 59 H 0.357381 -1.119850 -1.034005 0
M  V30 60 H 1.599355 -2.819640 -2.301944 0
M  V30 61 H 1.917247 -1.055930 -2.292393 0
M  V30 62 H 4.345397 -1.547093 -2.847480 0
M  V30 63 H 3.176207 -2.191373 -3.995626 0
M  V30 64 H 3.905008 -5.452170 -3.791216 0
M  V30 65 H 3.073021 -4.091578 -4.626965 0
M  V30 66 H 4.859056 -4.195062 -4.636074 0
M  V30 67 H 3.991709 -5.205647 -1.447059 0
M  V30 68 H 2.320361 -4.655854 -1.879088 0
M  V30 69 H 4.549319 -3.234019 -0.385977 0
M  V30 70 H 3.026809 -4.030273 0.344573 0
M  V30 END ATOM
M  V30 BEGIN BOND
M  V30 1 1 1 2
M  V30 2 1 2 3
M  V30 3 2 3 4
M  V30 4 2 3 5
M  V30 5 1 3 6
M  V30 6 2 6 7
M  V30 7 1 7 8
M  V30 8 1 8 9
M  V30 9 1 9 10
M  V30 10 2 10 11
M  V30 11 1 11 12
M  V30 12 2 12 13
M  V30 13 1 13 14
M  V30 14 1 13 15
M  V30 15 1 15 16
M  V30 16 1 16 17
M  V30 17 1 16 18
M  V30 18 2 18 19
M  V30 19 1 19 20
M  V30 20 1 20 21
M  V30 21 1 21 22
M  V30 22 2 20 23
M  V30 23 1 23 24
M  V30 24 2 24 25
M  V30 25 1 25 26
M  V30 26 2 15 27
M  V30 27 2 8 28
M  V30 28 1 28 29
M  V30 29 2 29 30
M  V30 30 1 30 31
M  V30 31 1 31 32
M  V30 32 1 32 33
M  V30 33 1 33 34
M  V30 34 1 34 35
M  V30 35 1 34 36
M  V30 36 1 36 37
M  V30 37 1 30 6
M  V30 38 1 37 31
M  V30 39 1 27 10
M  V30 40 1 25 18
M  V30 41 1 1 38
M  V30 42 1 1 39
M  V30 43 1 1 40
M  V30 44 1 2 41
M  V30 45 1 2 42
M  V30 46 1 7 43
M  V30 47 1 9 44
M  V30 48 1 12 45
M  V30 49 1 17 46
M  V30 50 1 17 47
M  V30 51 1 17 48
M  V30 52 1 19 49
M  V30 53 1 21 50
M  V30 54 1 21 51
M  V30 55 1 22 52
M  V30 56 1 23 53
M  V30 57 1 24 54
M  V30 58 1 26 55
M  V30 59 1 26 56
M  V30 60 1 26 57
M  V30 61 1 28 58
M  V30 62 1 29 59
M  V30 63 1 32 60
M  V30 64 1 32 61
M  V30 65 1 33 62
M  V30 66 1 33 63
M  V30 67 1 35 64
M  V30 68 1 35 65
M  V30 69 1 35 66
M  V30 70 1 36 67
M  V30 71 1 36 68
M  V30 72 1 37 69
M  V30 73 1 37 70
M  V30 END BOND
M  V30 END CTAB
M  END
>  <Dataset>  (193) 
ChEMBL_Kinases

>  <Ligand_Instance>  (193) 
nan

>  <PDB_ID>  (193) 
nan

>  <Standardized_SMILES>  (193) 
CCS(=O)(=O)c1cc(Nc2ncc(F)c(N(C)c3cc(CO)ccc3C)n2)ccc1N1CCN(C)CC1

>  <Name>  (193) 
nan

>  <Pocket>  (193) 
nan

>  <ATP_Site>  (193) 
nan

>  <Peripheral>  (193) 
nan

>  <Num_H_Atoms_ProtBoundConf>  (193) 
nan

>  <Num_Resolved_Atoms>  (193) 
nan

>  <Num_Not_Resolved_Atoms>  (193) 
nan

$$$$
CHEMBL3924237
     RDKit          3D

  0  0  0  0  0  0  0  0  0  0999 V3000
M  V30 BEGIN CTAB
M  V30 COUNTS 64 68 0 0 0
M  V30 BEGIN ATOM
M  V30 1 C 3.108098 2.344264 1.726648 0
M  V30 2 C 3.250660 1.633919 0.421065 0 CFG=1
M  V30 3 C 4.212917 0.482934 0.678213 0
M  V30 4 N 3.454722 -0.616782 1.210623 0
M  V30 5 C 4.237567 -1.569857 1.958410 0
M  V30 6 C 3.439748 -2.730132 2.518029 0
M  V30 7 C 3.062532 -1.811300 3.677636 0
M  V30 8 C 4.360918 -1.063697 3.401387 0
M  V30 9 C 2.633430 -1.221221 0.196648 0
M  V30 10 C 2.312635 -0.153082 -0.816758 0
M  V30 11 N 2.010088 1.115957 -0.131139 0
M  V30 12 C 0.795070 1.865351 0.077405 0
M  V30 13 O 0.938063 2.968417 0.715664 0
M  V30 14 N -0.543167 1.522999 -0.342118 0
M  V30 15 C -1.311810 0.489924 -1.034495 0
M  V30 16 C -2.350784 0.196288 0.020356 0
M  V30 17 C -3.173836 -0.693597 0.677208 0
M  V30 18 N -3.230673 -2.070881 0.364443 0
M  V30 19 C -4.108569 -2.633126 -0.584742 0
M  V30 20 O -4.820903 -1.717634 -1.097843 0
M  V30 21 C -4.228818 -4.015407 -0.959315 0
M  V30 22 C -5.189711 -4.308552 -1.931709 0
M  V30 23 C -5.418577 -5.575550 -2.387782 0
M  V30 24 C -4.718648 -6.652129 -1.921341 0
M  V30 25 F -4.869572 -7.924665 -2.303975 0
M  V30 26 C -3.763229 -6.406227 -0.963027 0
M  V30 27 C -3.547942 -5.127413 -0.517736 0
M  V30 28 F -2.611002 -4.883226 0.422571 0
M  V30 29 N -3.883633 -0.059367 1.625834 0
M  V30 30 N -3.519975 1.208597 1.574095 0
M  V30 31 C -2.595954 1.409282 0.619065 0
M  V30 32 C -1.696574 2.372502 -0.099835 0
M  V30 33 C -2.387749 2.822494 -1.359297 0
M  V30 34 C -1.417381 3.583787 0.734990 0
M  V30 35 H 4.073789 2.241324 2.310531 0
M  V30 36 H 2.277791 2.022540 2.350372 0
M  V30 37 H 3.054017 3.440796 1.524888 0
M  V30 38 H 3.716280 2.278509 -0.356719 0
M  V30 39 H 4.932422 0.773191 1.505256 0
M  V30 40 H 4.818649 0.249379 -0.209744 0
M  V30 41 H 5.227614 -1.824632 1.574989 0
M  V30 42 H 4.133214 -3.515593 2.894244 0
M  V30 43 H 2.599506 -3.074124 1.910824 0
M  V30 44 H 3.033867 -2.286183 4.659384 0
M  V30 45 H 2.162295 -1.233137 3.387149 0
M  V30 46 H 5.217093 -1.452184 3.960458 0
M  V30 47 H 4.242457 0.037771 3.503052 0
M  V30 48 H 3.131284 -2.073272 -0.303961 0
M  V30 49 H 1.693158 -1.604894 0.643257 0
M  V30 50 H 3.247267 -0.020141 -1.442509 0
M  V30 51 H 1.557557 -0.450368 -1.543497 0
M  V30 52 H -0.744270 -0.415887 -1.278632 0
M  V30 53 H -1.845812 0.900284 -1.894718 0
M  V30 54 H -2.579083 -2.691803 0.874522 0
M  V30 55 H -5.797696 -3.513964 -2.363131 0
M  V30 56 H -6.168474 -5.752723 -3.136881 0
M  V30 57 H -3.151736 -7.186852 -0.525608 0
M  V30 58 H -3.880117 2.001010 2.183640 0
M  V30 59 H -2.768471 3.879194 -1.215832 0
M  V30 60 H -3.316877 2.236094 -1.550858 0
M  V30 61 H -1.711365 2.889490 -2.226761 0
M  V30 62 H -2.438022 4.066152 0.856431 0
M  V30 63 H -0.856163 4.299934 0.124999 0
M  V30 64 H -1.077649 3.411838 1.749393 0
M  V30 END ATOM
M  V30 BEGIN BOND
M  V30 1 1 1 2
M  V30 2 1 2 3
M  V30 3 1 3 4
M  V30 4 1 4 5
M  V30 5 1 5 6
M  V30 6 1 6 7
M  V30 7 1 7 8
M  V30 8 1 4 9
M  V30 9 1 9 10
M  V30 10 1 10 11
M  V30 11 1 11 12
M  V30 12 2 12 13
M  V30 13 1 12 14
M  V30 14 1 14 15
M  V30 15 1 15 16
M  V30 16 1 16 17
M  V30 17 1 17 18
M  V30 18 1 18 19
M  V30 19 2 19 20
M  V30 20 1 19 21
M  V30 21 2 21 22
M  V30 22 1 22 23
M  V30 23 2 23 24
M  V30 24 1 24 25
M  V30 25 1 24 26
M  V30 26 2 26 27
M  V30 27 1 27 28
M  V30 28 2 17 29
M  V30 29 1 29 30
M  V30 30 1 30 31
M  V30 31 1 31 32
M  V30 32 1 32 33
M  V30 33 1 32 34
M  V30 34 1 11 2
M  V30 35 1 32 14
M  V30 36 1 8 5
M  V30 37 2 31 16
M  V30 38 1 27 21
M  V30 39 1 1 35
M  V30 40 1 1 36
M  V30 41 1 1 37
M  V30 42 1 2 38 CFG=3
M  V30 43 1 3 39
M  V30 44 1 3 40
M  V30 45 1 5 41
M  V30 46 1 6 42
M  V30 47 1 6 43
M  V30 48 1 7 44
M  V30 49 1 7 45
M  V30 50 1 8 46
M  V30 51 1 8 47
M  V30 52 1 9 48
M  V30 53 1 9 49
M  V30 54 1 10 50
M  V30 55 1 10 51
M  V30 56 1 15 52
M  V30 57 1 15 53
M  V30 58 1 18 54
M  V30 59 1 22 55
M  V30 60 1 23 56
M  V30 61 1 26 57
M  V30 62 1 30 58
M  V30 63 1 33 59
M  V30 64 1 33 60
M  V30 65 1 33 61
M  V30 66 1 34 62
M  V30 67 1 34 63
M  V30 68 1 34 64
M  V30 END BOND
M  V30 END CTAB
M  END
>  <Dataset>  (194) 
ChEMBL_Kinases

>  <Ligand_Instance>  (194) 
nan

>  <PDB_ID>  (194) 
nan

>  <Standardized_SMILES>  (194) 
C[C@H]1CN(C2CCC2)CCN1C(=O)N1Cc2c(NC(=O)c3ccc(F)cc3F)n[nH]c2C1(C)C

>  <Name>  (194) 
nan

>  <Pocket>  (194) 
nan

>  <ATP_Site>  (194) 
nan

>  <Peripheral>  (194) 
nan

>  <Num_H_Atoms_ProtBoundConf>  (194) 
nan

>  <Num_Resolved_Atoms>  (194) 
nan

>  <Num_Not_Resolved_Atoms>  (194) 
nan

$$$$
CHEMBL3924211
     RDKit          3D

  0  0  0  0  0  0  0  0  0  0999 V3000
M  V30 BEGIN CTAB
M  V30 COUNTS 42 45 0 0 0
M  V30 BEGIN ATOM
M  V30 1 N 4.003719 -6.138270 4.729972 0
M  V30 2 C 4.961826 -5.300632 4.074701 0
M  V30 3 O 6.208703 -5.448498 4.236748 0
M  V30 4 C 4.524336 -4.229120 3.181975 0
M  V30 5 C 5.500378 -3.460023 2.576183 0
M  V30 6 C 5.169322 -2.418606 1.711528 0
M  V30 7 C 3.812898 -2.163187 1.465238 0
M  V30 8 N 3.224339 -1.236271 0.687879 0
M  V30 9 C 1.899025 -1.434521 0.815404 0
M  V30 10 C 0.863052 -0.649566 0.143219 0
M  V30 11 C 1.205345 0.386063 -0.698886 0
M  V30 12 C 0.298285 1.178110 -1.372535 0
M  V30 13 C -1.041405 0.912612 -1.188241 0
M  V30 14 O -1.919910 1.709238 -1.864907 0
M  V30 15 C -2.872491 2.532817 -1.286551 0
M  V30 16 C -3.177001 2.806587 0.030901 0
M  V30 17 C -4.188969 3.678626 0.339118 0
M  V30 18 C -4.935349 4.310784 -0.620667 0
M  V30 19 C -4.645634 4.049646 -1.947133 0
M  V30 20 Cl -5.629443 4.883677 -3.126930 0
M  V30 21 C -3.624455 3.169549 -2.270901 0
M  V30 22 C -1.356208 -0.124470 -0.344689 0
M  V30 23 N -2.721076 -0.437295 -0.134516 0 CHG=1 VAL=4
M  V30 24 O -3.160057 -1.571327 0.166817 0
M  V30 25 O -4.050087 -0.296179 -0.030616 0 CHG=-1 VAL=1
M  V30 26 C -0.472058 -0.929335 0.338977 0
M  V30 27 N 1.682095 -2.463167 1.654731 0
M  V30 28 C 2.876021 -2.957829 2.093059 0
M  V30 29 C 3.178414 -3.995755 2.954059 0
M  V30 30 H 4.054684 -5.941742 5.771717 0
M  V30 31 H 3.575463 -6.666022 3.935819 0
M  V30 32 H 6.560355 -3.603733 2.722696 0
M  V30 33 H 5.895188 -1.788575 1.213358 0
M  V30 34 H 3.716956 -0.517069 0.110125 0
M  V30 35 H 2.257148 0.586761 -0.836773 0
M  V30 36 H 0.659038 1.976263 -2.019044 0
M  V30 37 H -2.524016 2.251984 0.702525 0
M  V30 38 H -4.346657 3.823855 1.387530 0
M  V30 39 H -5.721793 4.988948 -0.333175 0
M  V30 40 H -3.516708 3.066897 -3.359322 0
M  V30 41 H -0.789150 -1.732169 0.990468 0
M  V30 42 H 2.430770 -4.601602 3.431848 0
M  V30 END ATOM
M  V30 BEGIN BOND
M  V30 1 1 1 2
M  V30 2 2 2 3
M  V30 3 1 2 4
M  V30 4 2 4 5
M  V30 5 1 5 6
M  V30 6 2 6 7
M  V30 7 1 7 8
M  V30 8 1 8 9
M  V30 9 1 9 10
M  V30 10 2 10 11
M  V30 11 1 11 12
M  V30 12 2 12 13
M  V30 13 1 13 14
M  V30 14 1 14 15
M  V30 15 2 15 16
M  V30 16 1 16 17
M  V30 17 2 17 18
M  V30 18 1 18 19
M  V30 19 1 19 20
M  V30 20 2 19 21
M  V30 21 1 13 22
M  V30 22 1 22 23
M  V30 23 2 23 24
M  V30 24 1 23 25
M  V30 25 2 22 26
M  V30 26 2 9 27
M  V30 27 1 27 28
M  V30 28 2 28 29
M  V30 29 1 29 4
M  V30 30 1 28 7
M  V30 31 1 26 10
M  V30 32 1 21 15
M  V30 33 1 1 30
M  V30 34 1 1 31
M  V30 35 1 5 32
M  V30 36 1 6 33
M  V30 37 1 8 34
M  V30 38 1 11 35
M  V30 39 1 12 36
M  V30 40 1 16 37
M  V30 41 1 17 38
M  V30 42 1 18 39
M  V30 43 1 21 40
M  V30 44 1 26 41
M  V30 45 1 29 42
M  V30 END BOND
M  V30 END CTAB
M  END
>  <Dataset>  (195) 
ChEMBL_Kinases

>  <Ligand_Instance>  (195) 
nan

>  <PDB_ID>  (195) 
nan

>  <Standardized_SMILES>  (195) 
NC(=O)c1ccc2[nH]c(-c3ccc(Oc4cccc(Cl)c4)c([N+](=O)[O-])c3)nc2c1

>  <Name>  (195) 
nan

>  <Pocket>  (195) 
nan

>  <ATP_Site>  (195) 
nan

>  <Peripheral>  (195) 
nan

>  <Num_H_Atoms_ProtBoundConf>  (195) 
nan

>  <Num_Resolved_Atoms>  (195) 
nan

>  <Num_Not_Resolved_Atoms>  (195) 
nan

$$$$
CHEMBL3924197
     RDKit          3D

  0  0  0  0  0  0  0  0  0  0999 V3000
M  V30 BEGIN CTAB
M  V30 COUNTS 38 41 0 0 0
M  V30 BEGIN ATOM
M  V30 1 N 1.628002 -7.403149 2.346826 0
M  V30 2 C 2.733487 -6.562949 2.630839 0
M  V30 3 O 3.843523 -6.965978 3.117506 0
M  V30 4 C 2.639991 -5.124611 2.362875 0
M  V30 5 C 3.723449 -4.317782 2.643873 0
M  V30 6 C 3.663003 -2.956364 2.400894 0
M  V30 7 C 2.522871 -2.355308 1.870839 0
M  V30 8 N 2.146240 -1.103113 1.525458 0
M  V30 9 C 0.888024 -1.179296 1.060021 0
M  V30 10 C 0.119418 -0.032516 0.582841 0
M  V30 11 C 0.727441 1.212252 0.612503 0
M  V30 12 C -0.020409 2.282031 0.155665 0
M  V30 13 C -1.312726 2.191638 -0.320377 0
M  V30 14 C -1.993127 3.399363 -0.773898 0
M  V30 15 C -3.276814 3.382767 -1.258574 0
M  V30 16 C -3.851043 4.580057 -1.670090 0
M  V30 17 C -3.101224 5.733668 -1.571866 0
M  V30 18 C -1.810982 5.735025 -1.082239 0
M  V30 19 N -1.302540 4.550536 -0.697768 0
M  V30 20 C -1.866549 0.927999 -0.326411 0
M  V30 21 C -1.171537 -0.180808 0.116673 0
M  V30 22 N 0.487292 -2.466385 1.115874 0
M  V30 23 C 1.493369 -3.228740 1.621092 0
M  V30 24 C 1.486326 -4.593291 1.838952 0
M  V30 25 H 0.761245 -7.208622 2.885879 0
M  V30 26 H 1.531143 -8.199421 1.676827 0
M  V30 27 H 4.653608 -4.696887 3.058331 0
M  V30 28 H 4.513517 -2.308299 2.619103 0
M  V30 29 H 2.801023 -0.285173 1.641893 0
M  V30 30 H 1.738616 1.337422 0.976185 0
M  V30 31 H 0.496374 3.238250 0.197324 0
M  V30 32 H -3.837243 2.479461 -1.325349 0
M  V30 33 H -4.863385 4.527449 -2.045927 0
M  V30 34 H -3.563416 6.642290 -1.894193 0
M  V30 35 H -1.286198 6.672368 -1.034496 0
M  V30 36 H -2.861835 0.810184 -0.685250 0
M  V30 37 H -1.619177 -1.163094 0.105476 0
M  V30 38 H 0.614965 -5.192107 1.604870 0
M  V30 END ATOM
M  V30 BEGIN BOND
M  V30 1 1 1 2
M  V30 2 2 2 3
M  V30 3 1 2 4
M  V30 4 2 4 5
M  V30 5 1 5 6
M  V30 6 2 6 7
M  V30 7 1 7 8
M  V30 8 1 8 9
M  V30 9 1 9 10
M  V30 10 2 10 11
M  V30 11 1 11 12
M  V30 12 2 12 13
M  V30 13 1 13 14
M  V30 14 2 14 15
M  V30 15 1 15 16
M  V30 16 2 16 17
M  V30 17 1 17 18
M  V30 18 2 18 19
M  V30 19 1 13 20
M  V30 20 2 20 21
M  V30 21 2 9 22
M  V30 22 1 22 23
M  V30 23 2 23 24
M  V30 24 1 24 4
M  V30 25 1 23 7
M  V30 26 1 21 10
M  V30 27 1 19 14
M  V30 28 1 1 25
M  V30 29 1 1 26
M  V30 30 1 5 27
M  V30 31 1 6 28
M  V30 32 1 8 29
M  V30 33 1 11 30
M  V30 34 1 12 31
M  V30 35 1 15 32
M  V30 36 1 16 33
M  V30 37 1 17 34
M  V30 38 1 18 35
M  V30 39 1 20 36
M  V30 40 1 21 37
M  V30 41 1 24 38
M  V30 END BOND
M  V30 END CTAB
M  END
>  <Dataset>  (196) 
ChEMBL_Kinases

>  <Ligand_Instance>  (196) 
nan

>  <PDB_ID>  (196) 
nan

>  <Standardized_SMILES>  (196) 
NC(=O)c1ccc2[nH]c(-c3ccc(-c4ccccn4)cc3)nc2c1

>  <Name>  (196) 
nan

>  <Pocket>  (196) 
nan

>  <ATP_Site>  (196) 
nan

>  <Peripheral>  (196) 
nan

>  <Num_H_Atoms_ProtBoundConf>  (196) 
nan

>  <Num_Resolved_Atoms>  (196) 
nan

>  <Num_Not_Resolved_Atoms>  (196) 
nan

$$$$
CHEMBL3702183
     RDKit          3D

  0  0  0  0  0  0  0  0  0  0999 V3000
M  V30 BEGIN CTAB
M  V30 COUNTS 72 77 0 0 0
M  V30 BEGIN ATOM
M  V30 1 C 4.193171 1.340713 2.543815 0
M  V30 2 C 5.330804 0.664001 1.848588 0
M  V30 3 N 4.936448 -0.390039 0.987219 0
M  V30 4 C 4.491409 -1.534378 1.706582 0
M  V30 5 C 3.162840 -1.439941 2.384843 0
M  V30 6 C 5.845949 -0.733520 -0.059042 0
M  V30 7 C 6.339642 0.468735 -0.846161 0
M  V30 8 C 5.228226 1.336001 -1.343932 0
M  V30 9 N 4.081253 0.474648 -1.561903 0
M  V30 10 C 2.731813 0.692898 -1.236196 0
M  V30 11 C 2.207451 1.906464 -0.856728 0
M  V30 12 C 0.848266 1.995354 -0.530131 0
M  V30 13 C 0.097465 0.850219 -0.606201 0
M  V30 14 N -1.284169 0.878419 -0.291100 0
M  V30 15 C -2.049113 -0.341950 -0.339239 0
M  V30 16 N -1.370098 -1.464491 -0.653971 0
M  V30 17 C -2.007100 -2.664549 -0.714055 0
M  V30 18 C -3.353208 -2.657559 -0.440238 0
M  V30 19 C -4.294655 -3.656135 -0.403849 0
M  V30 20 C -4.246419 -5.025923 -0.625402 0
M  V30 21 C -5.337469 -5.839641 -0.527633 0
M  V30 22 N -6.507548 -5.255252 -0.197588 0
M  V30 23 C -6.566322 -3.932670 0.018958 0
M  V30 24 O -7.808132 -3.463469 0.347011 0
M  V30 25 C -5.501674 -3.077162 -0.067159 0
M  V30 26 N -5.367504 -1.742238 0.113539 0
M  V30 27 C -6.368013 -0.765249 0.466909 0
M  V30 28 C -6.339187 -0.347802 1.903681 0
M  V30 29 C -5.797158 1.045049 1.888726 0
M  V30 30 C -6.425538 1.643047 0.630174 0
M  V30 31 C -6.267204 0.497850 -0.365953 0
M  V30 32 C -4.054760 -1.504460 -0.116683 0
M  V30 33 N -3.365976 -0.350104 -0.074132 0
M  V30 34 N 0.663889 -0.302709 -0.982682 0
M  V30 35 N 1.933080 -0.413910 -1.293829 0
M  V30 36 C 4.567353 -0.721758 -2.205178 0
M  V30 37 C 5.141469 -1.614892 -1.086426 0
M  V30 38 H 4.556301 2.344740 2.910702 0
M  V30 39 H 3.881984 0.752447 3.417043 0
M  V30 40 H 3.389982 1.518090 1.796031 0
M  V30 41 H 6.003992 0.235325 2.669660 0
M  V30 42 H 6.007162 1.413251 1.370516 0
M  V30 43 H 4.595920 -2.513093 1.144554 0
M  V30 44 H 5.228007 -1.748042 2.581430 0
M  V30 45 H 3.213789 -1.452691 3.509084 0
M  V30 46 H 2.545995 -0.621423 2.018298 0
M  V30 47 H 2.589672 -2.408815 2.134942 0
M  V30 48 H 6.745521 -1.232731 0.350714 0
M  V30 49 H 6.878342 0.039854 -1.731476 0
M  V30 50 H 7.069582 1.078687 -0.313638 0
M  V30 51 H 5.546197 1.752921 -2.345418 0
M  V30 52 H 5.005777 2.155231 -0.650445 0
M  V30 53 H 2.857207 2.769245 -0.819153 0
M  V30 54 H 0.411652 2.938793 -0.229542 0
M  V30 55 H -1.748579 1.774362 -0.024212 0
M  V30 56 H -1.531781 -3.603533 -0.957457 0
M  V30 57 H -3.297520 -5.504782 -0.893324 0
M  V30 58 H -5.249303 -6.899622 -0.708803 0
M  V30 59 H -8.214367 -3.740787 1.247986 0
M  V30 60 H -7.366305 -1.226840 0.293673 0
M  V30 61 H -7.367880 -0.292136 2.344522 0
M  V30 62 H -5.715829 -1.013455 2.531204 0
M  V30 63 H -6.173275 1.639693 2.760702 0
M  V30 64 H -4.706748 1.131643 1.875152 0
M  V30 65 H -7.499325 1.841133 0.834499 0
M  V30 66 H -5.867106 2.523237 0.262434 0
M  V30 67 H -7.141833 0.604897 -1.064049 0
M  V30 68 H -5.362443 0.568364 -0.966107 0
M  V30 69 H 3.711731 -1.283469 -2.644900 0
M  V30 70 H 5.292709 -0.535944 -3.001959 0
M  V30 71 H 4.265609 -2.148569 -0.693716 0
M  V30 72 H 5.838156 -2.327709 -1.552952 0
M  V30 END ATOM
M  V30 BEGIN BOND
M  V30 1 1 1 2
M  V30 2 1 2 3
M  V30 3 1 3 4
M  V30 4 1 4 5
M  V30 5 1 3 6
M  V30 6 1 6 7
M  V30 7 1 7 8
M  V30 8 1 8 9
M  V30 9 1 9 10
M  V30 10 2 10 11
M  V30 11 1 11 12
M  V30 12 2 12 13
M  V30 13 1 13 14
M  V30 14 1 14 15
M  V30 15 2 15 16
M  V30 16 1 16 17
M  V30 17 2 17 18
M  V30 18 1 18 19
M  V30 19 2 19 20
M  V30 20 1 20 21
M  V30 21 2 21 22
M  V30 22 1 22 23
M  V30 23 1 23 24
M  V30 24 2 23 25
M  V30 25 1 25 26
M  V30 26 1 26 27
M  V30 27 1 27 28
M  V30 28 1 28 29
M  V30 29 1 29 30
M  V30 30 1 30 31
M  V30 31 1 26 32
M  V30 32 2 32 33
M  V30 33 1 13 34
M  V30 34 2 34 35
M  V30 35 1 9 36
M  V30 36 1 36 37
M  V30 37 1 37 6
M  V30 38 1 35 10
M  V30 39 1 33 15
M  V30 40 1 32 18
M  V30 41 1 25 19
M  V30 42 1 31 27
M  V30 43 1 1 38
M  V30 44 1 1 39
M  V30 45 1 1 40
M  V30 46 1 2 41
M  V30 47 1 2 42
M  V30 48 1 4 43
M  V30 49 1 4 44
M  V30 50 1 5 45
M  V30 51 1 5 46
M  V30 52 1 5 47
M  V30 53 1 6 48
M  V30 54 1 7 49
M  V30 55 1 7 50
M  V30 56 1 8 51
M  V30 57 1 8 52
M  V30 58 1 11 53
M  V30 59 1 12 54
M  V30 60 1 14 55
M  V30 61 1 17 56
M  V30 62 1 20 57
M  V30 63 1 21 58
M  V30 64 1 24 59
M  V30 65 1 27 60
M  V30 66 1 28 61
M  V30 67 1 28 62
M  V30 68 1 29 63
M  V30 69 1 29 64
M  V30 70 1 30 65
M  V30 71 1 30 66
M  V30 72 1 31 67
M  V30 73 1 31 68
M  V30 74 1 36 69
M  V30 75 1 36 70
M  V30 76 1 37 71
M  V30 77 1 37 72
M  V30 END BOND
M  V30 END CTAB
M  END
>  <Dataset>  (197) 
ChEMBL_Kinases

>  <Ligand_Instance>  (197) 
nan

>  <PDB_ID>  (197) 
nan

>  <Standardized_SMILES>  (197) 
CCN(CC)C1CCN(c2ccc(Nc3ncc4c5ccnc(O)c5n(C5CCCC5)c4n3)nn2)CC1

>  <Name>  (197) 
nan

>  <Pocket>  (197) 
nan

>  <ATP_Site>  (197) 
nan

>  <Peripheral>  (197) 
nan

>  <Num_H_Atoms_ProtBoundConf>  (197) 
nan

>  <Num_Resolved_Atoms>  (197) 
nan

>  <Num_Not_Resolved_Atoms>  (197) 
nan

$$$$
CHEMBL3924015
     RDKit          3D

  0  0  0  0  0  0  0  0  0  0999 V3000
M  V30 BEGIN CTAB
M  V30 COUNTS 53 56 0 0 0
M  V30 BEGIN ATOM
M  V30 1 C 7.947100 -4.176901 -1.129760 0
M  V30 2 O 7.469123 -3.535665 -2.318145 0
M  V30 3 C 6.306025 -2.781813 -2.171981 0
M  V30 4 O 5.880111 -2.806601 -0.983656 0
M  V30 5 N 5.663966 -2.066950 -3.217757 0
M  V30 6 C 4.480126 -1.343241 -2.908305 0
M  V30 7 N 3.929762 -1.301689 -1.659253 0
M  V30 8 C 2.821733 -0.537863 -1.695989 0
M  V30 9 C 1.883748 -0.148101 -0.766709 0
M  V30 10 C 0.794668 0.655425 -1.002380 0
M  V30 11 C -0.182552 1.104818 -0.036234 0
M  V30 12 O -1.322564 1.345893 -0.573264 0
M  V30 13 C -0.146961 1.338666 1.391481 0
M  V30 14 C 0.942957 1.313306 2.229243 0
M  V30 15 C 0.947169 1.560529 3.582336 0
M  V30 16 C -0.268509 1.866277 4.159626 0
M  V30 17 C -1.397238 1.907221 3.368609 0
M  V30 18 C -1.348708 1.646366 1.990101 0
M  V30 19 N -2.640098 1.737060 1.350350 0
M  V30 20 C -3.296477 0.471731 1.350305 0
M  V30 21 O -2.613273 -0.410958 1.894384 0
M  V30 22 O -4.531708 0.248608 0.816135 0
M  V30 23 C -5.202675 -0.965243 0.795209 0
M  V30 24 C -5.488422 -1.567550 2.117051 0
M  V30 25 C -6.627547 -1.239638 2.840776 0
M  V30 26 C -6.943047 -1.789814 4.080686 0
M  V30 27 C -6.078746 -2.716579 4.631020 0
M  V30 28 C -4.917755 -3.089629 3.956109 0
M  V30 29 C -4.676248 -2.495148 2.725551 0
M  V30 30 C 0.709541 1.064454 -2.321855 0
M  V30 31 C 1.601100 0.723497 -3.314335 0
M  V30 32 C 2.662963 -0.085269 -2.987042 0
M  V30 33 N 3.693545 -0.596191 -3.701491 0
M  V30 34 H 7.234423 -4.964419 -0.787605 0
M  V30 35 H 8.152323 -3.437050 -0.322394 0
M  V30 36 H 8.952427 -4.635362 -1.361161 0
M  V30 37 H 6.087939 -2.108483 -4.150971 0
M  V30 38 H 2.054990 -0.549171 0.219244 0
M  V30 39 H 1.905180 1.092678 1.803834 0
M  V30 40 H 1.842844 1.519457 4.160232 0
M  V30 41 H -0.323932 2.070319 5.221481 0
M  V30 42 H -2.319165 2.151511 3.875023 0
M  V30 43 H -3.128176 2.571954 0.910688 0
M  V30 44 H -4.571314 -1.691432 0.202043 0
M  V30 45 H -6.150743 -0.863158 0.229134 0
M  V30 46 H -7.312590 -0.506737 2.406031 0
M  V30 47 H -7.855120 -1.494815 4.606676 0
M  V30 48 H -6.282690 -3.169993 5.591306 0
M  V30 49 H -4.241853 -3.817209 4.390391 0
M  V30 50 H -3.779408 -2.826957 2.259251 0
M  V30 51 H -0.123148 1.712637 -2.628837 0
M  V30 52 H 1.494370 1.066760 -4.329435 0
M  V30 53 H 3.898602 -0.463521 -4.718143 0
M  V30 END ATOM
M  V30 BEGIN BOND
M  V30 1 1 1 2
M  V30 2 1 2 3
M  V30 3 2 3 4
M  V30 4 1 3 5
M  V30 5 1 5 6
M  V30 6 2 6 7
M  V30 7 1 7 8
M  V30 8 2 8 9
M  V30 9 1 9 10
M  V30 10 1 10 11
M  V30 11 2 11 12
M  V30 12 1 11 13
M  V30 13 2 13 14
M  V30 14 1 14 15
M  V30 15 2 15 16
M  V30 16 1 16 17
M  V30 17 2 17 18
M  V30 18 1 18 19
M  V30 19 1 19 20
M  V30 20 2 20 21
M  V30 21 1 20 22
M  V30 22 1 22 23
M  V30 23 1 23 24
M  V30 24 2 24 25
M  V30 25 1 25 26
M  V30 26 2 26 27
M  V30 27 1 27 28
M  V30 28 2 28 29
M  V30 29 2 10 30
M  V30 30 1 30 31
M  V30 31 2 31 32
M  V30 32 1 32 33
M  V30 33 1 33 6
M  V30 34 1 32 8
M  V30 35 1 18 13
M  V30 36 1 29 24
M  V30 37 1 1 34
M  V30 38 1 1 35
M  V30 39 1 1 36
M  V30 40 1 5 37
M  V30 41 1 9 38
M  V30 42 1 14 39
M  V30 43 1 15 40
M  V30 44 1 16 41
M  V30 45 1 17 42
M  V30 46 1 19 43
M  V30 47 1 23 44
M  V30 48 1 23 45
M  V30 49 1 25 46
M  V30 50 1 26 47
M  V30 51 1 27 48
M  V30 52 1 28 49
M  V30 53 1 29 50
M  V30 54 1 30 51
M  V30 55 1 31 52
M  V30 56 1 33 53
M  V30 END BOND
M  V30 END CTAB
M  END
>  <Dataset>  (198) 
ChEMBL_Kinases

>  <Ligand_Instance>  (198) 
nan

>  <PDB_ID>  (198) 
nan

>  <Standardized_SMILES>  (198) 
COC(=O)Nc1nc2cc(C(=O)c3ccccc3NC(=O)OCc3ccccc3)ccc2[nH]1

>  <Name>  (198) 
nan

>  <Pocket>  (198) 
nan

>  <ATP_Site>  (198) 
nan

>  <Peripheral>  (198) 
nan

>  <Num_H_Atoms_ProtBoundConf>  (198) 
nan

>  <Num_Resolved_Atoms>  (198) 
nan

>  <Num_Not_Resolved_Atoms>  (198) 
nan

$$$$
CHEMBL3923965
     RDKit          3D

  0  0  0  0  0  0  0  0  0  0999 V3000
M  V30 BEGIN CTAB
M  V30 COUNTS 44 47 0 0 0
M  V30 BEGIN ATOM
M  V30 1 N 3.901374 -7.448793 -0.570071 0
M  V30 2 C 3.349412 -6.926820 -1.774932 0
M  V30 3 O 3.224205 -7.475780 -2.904608 0
M  V30 4 C 2.840348 -5.539614 -1.723776 0
M  V30 5 C 2.285854 -4.964831 -2.867228 0
M  V30 6 C 1.791136 -3.659086 -2.871845 0
M  V30 7 C 1.854652 -2.918932 -1.708543 0
M  V30 8 N 1.437807 -1.661983 -1.511814 0
M  V30 9 C 1.723174 -1.394873 -0.202468 0
M  V30 10 C 1.465946 -0.148514 0.521124 0
M  V30 11 C 1.771131 0.079817 1.848810 0
M  V30 12 C 1.491364 1.292500 2.451639 0
M  V30 13 C 0.889905 2.315597 1.720325 0
M  V30 14 S 0.533863 3.854378 2.480756 0
M  V30 15 O 0.495333 4.893535 1.384132 0
M  V30 16 O 1.538720 4.262125 3.489013 0
M  V30 17 N -1.056139 3.750820 3.140260 0
M  V30 18 C -2.060733 3.520071 2.157374 0
M  V30 19 C -3.425714 3.438288 2.783653 0
M  V30 20 C -3.991485 2.250968 3.239059 0
M  V30 21 C -5.260023 2.521226 3.762290 0
M  V30 22 C -5.374092 3.896527 3.579970 0
M  V30 23 O -4.301134 4.383129 3.015982 0
M  V30 24 C 0.563278 2.126826 0.370546 0
M  V30 25 C 0.868997 0.892358 -0.172086 0
M  V30 26 N 2.300665 -2.498864 0.341239 0
M  V30 27 C 2.402184 -3.483896 -0.576107 0
M  V30 28 C 2.894968 -4.773032 -0.556788 0
M  V30 29 H 4.740253 -8.094737 -0.483439 0
M  V30 30 H 4.741578 -8.079361 -0.677583 0
M  V30 31 H 2.213287 -5.503002 -3.802424 0
M  V30 32 H 1.370080 -3.249271 -3.774374 0
M  V30 33 H 0.991144 -1.005110 -2.184529 0
M  V30 34 H 2.241737 -0.757226 2.374116 0
M  V30 35 H 1.745727 1.430164 3.490865 0
M  V30 36 H -1.063711 3.038729 3.919629 0
M  V30 37 H -2.084930 4.403282 1.485420 0
M  V30 38 H -1.870768 2.639121 1.513673 0
M  V30 39 H -3.584181 1.237352 3.228460 0
M  V30 40 H -5.943962 1.808268 4.190196 0
M  V30 41 H -6.272215 4.424811 3.893216 0
M  V30 42 H 0.096944 2.890568 -0.234073 0
M  V30 43 H 0.607153 0.757668 -1.232762 0
M  V30 44 H 3.314754 -5.195225 0.325288 0
M  V30 END ATOM
M  V30 BEGIN BOND
M  V30 1 1 1 2
M  V30 2 2 2 3
M  V30 3 1 2 4
M  V30 4 2 4 5
M  V30 5 1 5 6
M  V30 6 2 6 7
M  V30 7 1 7 8
M  V30 8 1 8 9
M  V30 9 1 9 10
M  V30 10 2 10 11
M  V30 11 1 11 12
M  V30 12 2 12 13
M  V30 13 1 13 14
M  V30 14 2 14 15
M  V30 15 2 14 16
M  V30 16 1 14 17
M  V30 17 1 17 18
M  V30 18 1 18 19
M  V30 19 2 19 20
M  V30 20 1 20 21
M  V30 21 2 21 22
M  V30 22 1 22 23
M  V30 23 1 13 24
M  V30 24 2 24 25
M  V30 25 2 9 26
M  V30 26 1 26 27
M  V30 27 2 27 28
M  V30 28 1 28 4
M  V30 29 1 27 7
M  V30 30 1 25 10
M  V30 31 1 23 19
M  V30 32 1 1 29
M  V30 33 1 1 30
M  V30 34 1 5 31
M  V30 35 1 6 32
M  V30 36 1 8 33
M  V30 37 1 11 34
M  V30 38 1 12 35
M  V30 39 1 17 36
M  V30 40 1 18 37
M  V30 41 1 18 38
M  V30 42 1 20 39
M  V30 43 1 21 40
M  V30 44 1 22 41
M  V30 45 1 24 42
M  V30 46 1 25 43
M  V30 47 1 28 44
M  V30 END BOND
M  V30 END CTAB
M  END
>  <Dataset>  (199) 
ChEMBL_Kinases

>  <Ligand_Instance>  (199) 
nan

>  <PDB_ID>  (199) 
nan

>  <Standardized_SMILES>  (199) 
NC(=O)c1ccc2[nH]c(-c3ccc(S(=O)(=O)NCc4ccco4)cc3)nc2c1

>  <Name>  (199) 
nan

>  <Pocket>  (199) 
nan

>  <ATP_Site>  (199) 
nan

>  <Peripheral>  (199) 
nan

>  <Num_H_Atoms_ProtBoundConf>  (199) 
nan

>  <Num_Resolved_Atoms>  (199) 
nan

>  <Num_Not_Resolved_Atoms>  (199) 
nan

$$$$
CHEMBL3924544
     RDKit          3D

  0  0  0  0  0  0  0  0  0  0999 V3000
M  V30 BEGIN CTAB
M  V30 COUNTS 42 46 0 0 0
M  V30 BEGIN ATOM
M  V30 1 C 1.347080 -4.663417 0.496633 0
M  V30 2 C 2.404491 -4.280276 -0.464360 0
M  V30 3 C 3.175856 -5.268092 -1.046126 0
M  V30 4 C 4.171411 -4.947626 -1.945715 0
M  V30 5 O 4.966394 -5.911461 -2.550354 0
M  V30 6 C 4.381712 -3.620493 -2.253160 0
M  V30 7 Cl 5.636990 -3.140955 -3.394439 0
M  V30 8 C 3.588731 -2.669194 -1.649132 0
M  V30 9 C 2.581686 -2.941717 -0.744003 0
M  V30 10 C 1.798375 -1.857813 -0.162354 0
M  V30 11 C 0.434905 -1.739719 0.017866 0
M  V30 12 C -0.061946 -0.593645 0.603825 0
M  V30 13 C 0.735839 0.441052 1.018985 0
M  V30 14 C 0.441467 1.649701 1.615948 0
M  V30 15 C -0.886957 2.142733 1.969846 0
M  V30 16 N -2.036077 1.495726 1.769693 0
M  V30 17 C -3.079513 2.238989 2.215597 0
M  V30 18 C -4.437245 1.995025 2.224602 0
M  V30 19 C -5.271638 2.960150 2.756044 0
M  V30 20 C -4.731505 4.142085 3.264139 0
M  V30 21 C -3.356164 4.327028 3.225689 0
M  V30 22 C -2.482296 3.392115 2.704891 0
M  V30 23 N -1.145861 3.327340 2.552220 0
M  V30 24 N 1.622591 2.265013 1.798267 0
M  V30 25 N 2.608189 1.477992 1.337027 0
M  V30 26 C 2.099781 0.330633 0.842309 0
M  V30 27 C 2.622165 -0.806063 0.258458 0
M  V30 28 H 1.162442 -3.869824 1.254115 0
M  V30 29 H 0.407522 -4.915233 -0.030879 0
M  V30 30 H 1.645319 -5.619360 1.012717 0
M  V30 31 H 2.998374 -6.313505 -0.793620 0
M  V30 32 H 4.626513 -6.871425 -2.529363 0
M  V30 33 H 3.786019 -1.640981 -1.917346 0
M  V30 34 H -0.097294 -2.591150 -0.335755 0
M  V30 35 H -1.153514 -0.573454 0.713061 0
M  V30 36 H -4.762427 1.044026 1.805789 0
M  V30 37 H -6.320498 2.681510 2.720470 0
M  V30 38 H -5.449249 4.822960 3.650861 0
M  V30 39 H -2.983917 5.259679 3.631550 0
M  V30 40 H -0.481473 4.093480 2.852854 0
M  V30 41 H 3.638855 1.730009 1.361735 0
M  V30 42 H 3.719756 -0.774390 0.173126 0
M  V30 END ATOM
M  V30 BEGIN BOND
M  V30 1 1 1 2
M  V30 2 2 2 3
M  V30 3 1 3 4
M  V30 4 1 4 5
M  V30 5 2 4 6
M  V30 6 1 6 7
M  V30 7 1 6 8
M  V30 8 2 8 9
M  V30 9 1 9 10
M  V30 10 2 10 11
M  V30 11 1 11 12
M  V30 12 2 12 13
M  V30 13 1 13 14
M  V30 14 1 14 15
M  V30 15 2 15 16
M  V30 16 1 16 17
M  V30 17 2 17 18
M  V30 18 1 18 19
M  V30 19 2 19 20
M  V30 20 1 20 21
M  V30 21 2 21 22
M  V30 22 1 22 23
M  V30 23 2 14 24
M  V30 24 1 24 25
M  V30 25 1 25 26
M  V30 26 2 26 27
M  V30 27 1 9 2
M  V30 28 1 27 10
M  V30 29 1 26 13
M  V30 30 1 23 15
M  V30 31 1 22 17
M  V30 32 1 1 28
M  V30 33 1 1 29
M  V30 34 1 1 30
M  V30 35 1 3 31
M  V30 36 1 5 32
M  V30 37 1 8 33
M  V30 38 1 11 34
M  V30 39 1 12 35
M  V30 40 1 18 36
M  V30 41 1 19 37
M  V30 42 1 20 38
M  V30 43 1 21 39
M  V30 44 1 23 40
M  V30 45 1 25 41
M  V30 46 1 27 42
M  V30 END BOND
M  V30 END CTAB
M  END
>  <Dataset>  (200) 
ChEMBL_Kinases

>  <Ligand_Instance>  (200) 
nan

>  <PDB_ID>  (200) 
nan

>  <Standardized_SMILES>  (200) 
Cc1cc(O)c(Cl)cc1-c1ccc2c(-c3nc4ccccc4[nH]3)n[nH]c2c1

>  <Name>  (200) 
nan

>  <Pocket>  (200) 
nan

>  <ATP_Site>  (200) 
nan

>  <Peripheral>  (200) 
nan

>  <Num_H_Atoms_ProtBoundConf>  (200) 
nan

>  <Num_Resolved_Atoms>  (200) 
nan

>  <Num_Not_Resolved_Atoms>  (200) 
nan

$$$$
CHEMBL4876285
     RDKit          3D

  0  0  0  0  0  0  0  0  0  0999 V3000
M  V30 BEGIN CTAB
M  V30 COUNTS 52 55 0 0 0
M  V30 BEGIN ATOM
M  V30 1 C -0.644083 -4.133322 5.767277 0
M  V30 2 C 0.722489 -4.259712 5.128039 0
M  V30 3 C 1.467323 -5.353879 5.859438 0
M  V30 4 O 1.449113 -3.071880 5.158557 0
M  V30 5 C 1.907177 -2.350327 4.077065 0
M  V30 6 C 1.743098 -2.650143 2.733970 0
M  V30 7 C 2.280809 -1.794568 1.797850 0
M  V30 8 C 2.981448 -0.643710 2.086039 0
M  V30 9 C 3.548478 0.265626 1.057430 0
M  V30 10 N 2.594661 1.305802 0.707329 0
M  V30 11 C 1.455310 1.178389 -0.114264 0
M  V30 12 O 1.178219 0.068452 -0.633247 0
M  V30 13 C 0.573283 2.308376 -0.387001 0
M  V30 14 C 0.727644 3.606651 0.105061 0
M  V30 15 N -0.284271 4.347457 -0.373310 0
M  V30 16 C -1.066098 3.548825 -1.150195 0
M  V30 17 C -2.214919 3.911444 -1.835639 0
M  V30 18 C -2.837926 2.906933 -2.564497 0
M  V30 19 C -2.325900 1.609511 -2.596854 0
M  V30 20 C -2.966793 0.550748 -3.355613 0
M  V30 21 C -4.318247 0.401959 -3.607224 0
M  V30 22 N -4.494693 -0.700245 -4.340168 0
M  V30 23 N -3.291749 -1.254871 -4.560485 0
M  V30 24 C -3.018789 -2.477911 -5.318923 0
M  V30 25 C -2.316912 -0.508535 -3.965755 0
M  V30 26 C -1.161571 1.371145 -1.863628 0
M  V30 27 N -0.532959 2.308020 -1.150863 0
M  V30 28 C 3.142478 -0.348882 3.437548 0
M  V30 29 C 2.611316 -1.193219 4.401007 0
M  V30 30 H -0.512143 -3.886253 6.834027 0
M  V30 31 H -1.145231 -5.119914 5.640229 0
M  V30 32 H -1.294154 -3.409391 5.223541 0
M  V30 33 H 0.528491 -4.636252 4.093031 0
M  V30 34 H 0.836060 -5.841995 6.629720 0
M  V30 35 H 2.345491 -4.915304 6.413104 0
M  V30 36 H 1.809573 -6.165771 5.184666 0
M  V30 37 H 1.202503 -3.537747 2.516662 0
M  V30 38 H 2.124531 -2.078460 0.772015 0
M  V30 39 H 3.796268 -0.310775 0.139673 0
M  V30 40 H 4.448922 0.740053 1.480625 0
M  V30 41 H 2.738336 2.278739 1.092820 0
M  V30 42 H 1.507229 3.977564 0.753557 0
M  V30 43 H -2.603577 4.919930 -1.805260 0
M  V30 44 H -3.738558 3.156995 -3.111410 0
M  V30 45 H -5.114754 1.069315 -3.267853 0
M  V30 46 H -3.881410 -3.175395 -5.157436 0
M  V30 47 H -2.088164 -2.949619 -4.892087 0
M  V30 48 H -2.933870 -2.296250 -6.404907 0
M  V30 49 H -1.258199 -0.681478 -3.955915 0
M  V30 50 H -0.779827 0.361959 -1.900029 0
M  V30 51 H 3.689137 0.549606 3.758786 0
M  V30 52 H 2.779750 -0.894232 5.447186 0
M  V30 END ATOM
M  V30 BEGIN BOND
M  V30 1 1 1 2
M  V30 2 1 2 3
M  V30 3 1 2 4
M  V30 4 1 4 5
M  V30 5 2 5 6
M  V30 6 1 6 7
M  V30 7 2 7 8
M  V30 8 1 8 9
M  V30 9 1 9 10
M  V30 10 1 10 11
M  V30 11 2 11 12
M  V30 12 1 11 13
M  V30 13 2 13 14
M  V30 14 1 14 15
M  V30 15 2 15 16
M  V30 16 1 16 17
M  V30 17 2 17 18
M  V30 18 1 18 19
M  V30 19 1 19 20
M  V30 20 1 20 21
M  V30 21 2 21 22
M  V30 22 1 22 23
M  V30 23 1 23 24
M  V30 24 1 23 25
M  V30 25 2 19 26
M  V30 26 1 26 27
M  V30 27 1 8 28
M  V30 28 2 28 29
M  V30 29 1 29 5
M  V30 30 1 27 13
M  V30 31 1 27 16
M  V30 32 2 25 20
M  V30 33 1 1 30
M  V30 34 1 1 31
M  V30 35 1 1 32
M  V30 36 1 2 33
M  V30 37 1 3 34
M  V30 38 1 3 35
M  V30 39 1 3 36
M  V30 40 1 6 37
M  V30 41 1 7 38
M  V30 42 1 9 39
M  V30 43 1 9 40
M  V30 44 1 10 41
M  V30 45 1 14 42
M  V30 46 1 17 43
M  V30 47 1 18 44
M  V30 48 1 21 45
M  V30 49 1 24 46
M  V30 50 1 24 47
M  V30 51 1 24 48
M  V30 52 1 25 49
M  V30 53 1 26 50
M  V30 54 1 28 51
M  V30 55 1 29 52
M  V30 END BOND
M  V30 END CTAB
M  END
>  <Dataset>  (201) 
ChEMBL_Kinases

>  <Ligand_Instance>  (201) 
nan

>  <PDB_ID>  (201) 
nan

>  <Standardized_SMILES>  (201) 
CC(C)Oc1ccc(CNC(=O)c2cnc3ccc(-c4cnn(C)c4)cn23)cc1

>  <Name>  (201) 
nan

>  <Pocket>  (201) 
nan

>  <ATP_Site>  (201) 
nan

>  <Peripheral>  (201) 
nan

>  <Num_H_Atoms_ProtBoundConf>  (201) 
nan

>  <Num_Resolved_Atoms>  (201) 
nan

>  <Num_Not_Resolved_Atoms>  (201) 
nan

$$$$
CHEMBL3927071
     RDKit          3D

  0  0  0  0  0  0  0  0  0  0999 V3000
M  V30 BEGIN CTAB
M  V30 COUNTS 44 48 0 0 0
M  V30 BEGIN ATOM
M  V30 1 O -1.521118 -1.186411 3.519131 0
M  V30 2 C -0.511891 -1.056043 2.742821 0
M  V30 3 C 0.851187 -1.226645 3.233852 0
M  V30 4 C 1.472395 -1.518646 4.418293 0
M  V30 5 C 2.855373 -1.583223 4.441602 0
M  V30 6 C 3.648143 -1.365858 3.318573 0
M  V30 7 C 2.981909 -1.069822 2.124055 0
M  V30 8 C 1.607252 -1.005872 2.101892 0
M  V30 9 C 0.862080 -0.698295 0.853991 0
M  V30 10 O 1.129742 -1.631546 -0.129870 0
M  V30 11 C 1.258796 0.674236 0.440443 0
M  V30 12 C 0.903506 1.756448 1.202856 0
M  V30 13 C 1.261508 3.036518 0.837488 0
M  V30 14 C 1.990178 3.183707 -0.324004 0
M  V30 15 N 2.486741 4.273277 -0.947074 0
M  V30 16 N 3.127521 3.915964 -2.051239 0
M  V30 17 C 3.093880 2.596243 -2.220527 0
M  V30 18 C 2.379770 2.128822 -1.137679 0
M  V30 19 C 1.993345 0.849632 -0.725833 0
M  V30 20 N -0.502407 -0.739351 1.333401 0
M  V30 21 C -1.749735 -0.523519 0.646897 0
M  V30 22 C -2.355137 -1.712302 0.051457 0
M  V30 23 C -2.066806 -2.075429 -1.251219 0
M  V30 24 C -2.637696 -3.203150 -1.816799 0
M  V30 25 C -3.500857 -3.969553 -1.073472 0
M  V30 26 C -3.786201 -3.602874 0.228170 0
M  V30 27 C -3.222261 -2.474893 0.810551 0
M  V30 28 H 0.861615 -1.684150 5.272238 0
M  V30 29 H 3.318497 -1.817493 5.400196 0
M  V30 30 H 4.719581 -1.430739 3.400879 0
M  V30 31 H 3.671458 -0.916269 1.306072 0
M  V30 32 H 0.874300 -1.369052 -1.024403 0
M  V30 33 H 0.326769 1.605536 2.116013 0
M  V30 34 H 0.992181 3.888501 1.421271 0
M  V30 35 H 2.422617 5.289110 -0.669564 0
M  V30 36 H 3.515641 1.985824 -3.010756 0
M  V30 37 H 2.303639 0.039609 -1.367272 0
M  V30 38 H -1.577957 0.197103 -0.207633 0
M  V30 39 H -2.483799 -0.035180 1.292426 0
M  V30 40 H -1.385110 -1.453884 -1.813528 0
M  V30 41 H -2.348818 -3.399007 -2.835210 0
M  V30 42 H -3.882648 -4.815662 -1.607797 0
M  V30 43 H -4.470547 -4.253937 0.743250 0
M  V30 44 H -3.508750 -2.272546 1.833648 0
M  V30 END ATOM
M  V30 BEGIN BOND
M  V30 1 2 1 2
M  V30 2 1 2 3
M  V30 3 2 3 4
M  V30 4 1 4 5
M  V30 5 2 5 6
M  V30 6 1 6 7
M  V30 7 2 7 8
M  V30 8 1 8 9
M  V30 9 1 9 10
M  V30 10 1 9 11
M  V30 11 2 11 12
M  V30 12 1 12 13
M  V30 13 2 13 14
M  V30 14 1 14 15
M  V30 15 1 15 16
M  V30 16 2 16 17
M  V30 17 1 17 18
M  V30 18 2 18 19
M  V30 19 1 9 20
M  V30 20 1 20 21
M  V30 21 1 21 22
M  V30 22 2 22 23
M  V30 23 1 23 24
M  V30 24 2 24 25
M  V30 25 1 25 26
M  V30 26 2 26 27
M  V30 27 1 20 2
M  V30 28 1 27 22
M  V30 29 1 8 3
M  V30 30 1 19 11
M  V30 31 1 18 14
M  V30 32 1 4 28
M  V30 33 1 5 29
M  V30 34 1 6 30
M  V30 35 1 7 31
M  V30 36 1 10 32
M  V30 37 1 12 33
M  V30 38 1 13 34
M  V30 39 1 15 35
M  V30 40 1 17 36
M  V30 41 1 19 37
M  V30 42 1 21 38
M  V30 43 1 21 39
M  V30 44 1 23 40
M  V30 45 1 24 41
M  V30 46 1 25 42
M  V30 47 1 26 43
M  V30 48 1 27 44
M  V30 END BOND
M  V30 END CTAB
M  END
>  <Dataset>  (202) 
ChEMBL_Kinases

>  <Ligand_Instance>  (202) 
nan

>  <PDB_ID>  (202) 
nan

>  <Standardized_SMILES>  (202) 
O=C1c2ccccc2C(O)(c2ccc3[nH]ncc3c2)N1Cc1ccccc1

>  <Name>  (202) 
nan

>  <Pocket>  (202) 
nan

>  <ATP_Site>  (202) 
nan

>  <Peripheral>  (202) 
nan

>  <Num_H_Atoms_ProtBoundConf>  (202) 
nan

>  <Num_Resolved_Atoms>  (202) 
nan

>  <Num_Not_Resolved_Atoms>  (202) 
nan

$$$$
CHEMBL3702179
     RDKit          3D

  0  0  0  0  0  0  0  0  0  0999 V3000
M  V30 BEGIN CTAB
M  V30 COUNTS 72 77 0 0 0
M  V30 BEGIN ATOM
M  V30 1 C 4.694588 1.451776 1.686669 0
M  V30 2 C 5.658356 1.108881 0.619172 0
M  V30 3 N 5.239763 0.182830 -0.377911 0
M  V30 4 C 5.099385 -1.147028 0.069308 0
M  V30 5 C 3.883165 -1.269882 0.981627 0
M  V30 6 C 5.848236 0.410838 -1.629681 0
M  V30 7 C 5.620912 1.821735 -2.148355 0
M  V30 8 C 4.144922 2.124746 -2.100096 0
M  V30 9 N 3.379167 0.925754 -2.377169 0
M  V30 10 C 2.137300 0.565654 -1.781020 0
M  V30 11 C 1.385087 -0.557982 -2.034518 0
M  V30 12 C 0.188435 -0.772585 -1.372696 0
M  V30 13 C -0.320908 0.100503 -0.438448 0
M  V30 14 N -1.541825 -0.073107 0.261602 0
M  V30 15 C -2.477558 -1.128476 0.148496 0
M  V30 16 N -2.401881 -2.171099 -0.679842 0
M  V30 17 C -3.290815 -3.165843 -0.781089 0
M  V30 18 C -4.375930 -3.117948 0.032852 0
M  V30 19 C -5.476510 -3.921423 0.226484 0
M  V30 20 C -5.878914 -5.114365 -0.372873 0
M  V30 21 C -7.076822 -5.653763 0.085606 0
M  V30 22 N -7.810645 -5.082306 1.038066 0
M  V30 23 C -7.420120 -3.917730 1.624817 0
M  V30 24 F -8.221866 -3.402887 2.584874 0
M  V30 25 C -6.244466 -3.339124 1.211333 0
M  V30 26 N -5.637853 -2.192084 1.627756 0
M  V30 27 C -6.050405 -1.225329 2.650197 0
M  V30 28 C -6.148522 0.153866 2.075617 0
M  V30 29 C -5.458228 1.069946 3.063427 0
M  V30 30 C -4.505265 0.164448 3.839507 0
M  V30 31 C -5.092819 -1.210546 3.797131 0
M  V30 32 C -4.499548 -2.060347 0.907362 0
M  V30 33 N -3.552604 -1.116442 0.928902 0
M  V30 34 N 0.444920 1.180436 -0.223811 0
M  V30 35 C 1.608381 1.424456 -0.843216 0
M  V30 36 C 4.092575 0.146660 -3.377046 0
M  V30 37 C 5.338886 -0.475833 -2.745658 0
M  V30 38 H 5.123801 2.389918 2.192516 0
M  V30 39 H 4.565842 0.760691 2.510851 0
M  V30 40 H 3.731841 1.846610 1.258816 0
M  V30 41 H 6.606834 0.763916 1.137319 0
M  V30 42 H 5.950797 2.078564 0.138552 0
M  V30 43 H 5.103614 -1.955310 -0.683397 0
M  V30 44 H 6.027447 -1.440720 0.695237 0
M  V30 45 H 4.127854 -1.471314 2.022221 0
M  V30 46 H 3.220593 -0.393748 0.921779 0
M  V30 47 H 3.237617 -2.127399 0.627595 0
M  V30 48 H 6.965933 0.280658 -1.564163 0
M  V30 49 H 5.895152 1.797581 -3.249736 0
M  V30 50 H 6.273803 2.581379 -1.733407 0
M  V30 51 H 3.948574 2.438831 -1.050394 0
M  V30 52 H 3.869708 2.935455 -2.818563 0
M  V30 53 H 1.772457 -1.252213 -2.764418 0
M  V30 54 H -0.344099 -1.673181 -1.623199 0
M  V30 55 H -1.764990 0.700477 0.956861 0
M  V30 56 H -3.156831 -3.993118 -1.491655 0
M  V30 57 H -5.248742 -5.542346 -1.144221 0
M  V30 58 H -7.342929 -6.575254 -0.409353 0
M  V30 59 H -7.030521 -1.575435 3.057145 0
M  V30 60 H -5.769208 0.233717 1.046863 0
M  V30 61 H -7.235947 0.459732 2.047094 0
M  V30 62 H -6.171394 1.479214 3.817672 0
M  V30 63 H -4.895182 1.889462 2.583596 0
M  V30 64 H -3.484793 0.177173 3.404158 0
M  V30 65 H -4.453844 0.500806 4.904817 0
M  V30 66 H -4.289708 -1.992085 3.684454 0
M  V30 67 H -5.605064 -1.429988 4.776186 0
M  V30 68 H 2.030755 2.358112 -0.498737 0
M  V30 69 H 3.447161 -0.681513 -3.702708 0
M  V30 70 H 4.318245 0.738381 -4.282462 0
M  V30 71 H 5.077595 -1.495801 -2.484190 0
M  V30 72 H 6.099325 -0.445781 -3.589871 0
M  V30 END ATOM
M  V30 BEGIN BOND
M  V30 1 1 1 2
M  V30 2 1 2 3
M  V30 3 1 3 4
M  V30 4 1 4 5
M  V30 5 1 3 6
M  V30 6 1 6 7
M  V30 7 1 7 8
M  V30 8 1 8 9
M  V30 9 1 9 10
M  V30 10 2 10 11
M  V30 11 1 11 12
M  V30 12 2 12 13
M  V30 13 1 13 14
M  V30 14 1 14 15
M  V30 15 2 15 16
M  V30 16 1 16 17
M  V30 17 2 17 18
M  V30 18 1 18 19
M  V30 19 2 19 20
M  V30 20 1 20 21
M  V30 21 2 21 22
M  V30 22 1 22 23
M  V30 23 1 23 24
M  V30 24 2 23 25
M  V30 25 1 25 26
M  V30 26 1 26 27
M  V30 27 1 27 28
M  V30 28 1 28 29
M  V30 29 1 29 30
M  V30 30 1 30 31
M  V30 31 1 26 32
M  V30 32 2 32 33
M  V30 33 1 13 34
M  V30 34 2 34 35
M  V30 35 1 9 36
M  V30 36 1 36 37
M  V30 37 1 37 6
M  V30 38 1 35 10
M  V30 39 1 33 15
M  V30 40 1 32 18
M  V30 41 1 25 19
M  V30 42 1 31 27
M  V30 43 1 1 38
M  V30 44 1 1 39
M  V30 45 1 1 40
M  V30 46 1 2 41
M  V30 47 1 2 42
M  V30 48 1 4 43
M  V30 49 1 4 44
M  V30 50 1 5 45
M  V30 51 1 5 46
M  V30 52 1 5 47
M  V30 53 1 6 48
M  V30 54 1 7 49
M  V30 55 1 7 50
M  V30 56 1 8 51
M  V30 57 1 8 52
M  V30 58 1 11 53
M  V30 59 1 12 54
M  V30 60 1 14 55
M  V30 61 1 17 56
M  V30 62 1 20 57
M  V30 63 1 21 58
M  V30 64 1 27 59
M  V30 65 1 28 60
M  V30 66 1 28 61
M  V30 67 1 29 62
M  V30 68 1 29 63
M  V30 69 1 30 64
M  V30 70 1 30 65
M  V30 71 1 31 66
M  V30 72 1 31 67
M  V30 73 1 35 68
M  V30 74 1 36 69
M  V30 75 1 36 70
M  V30 76 1 37 71
M  V30 77 1 37 72
M  V30 END BOND
M  V30 END CTAB
M  END
>  <Dataset>  (203) 
ChEMBL_Kinases

>  <Ligand_Instance>  (203) 
nan

>  <PDB_ID>  (203) 
nan

>  <Standardized_SMILES>  (203) 
CCN(CC)C1CCN(c2ccc(Nc3ncc4c5ccnc(F)c5n(C5CCCC5)c4n3)nc2)CC1

>  <Name>  (203) 
nan

>  <Pocket>  (203) 
nan

>  <ATP_Site>  (203) 
nan

>  <Peripheral>  (203) 
nan

>  <Num_H_Atoms_ProtBoundConf>  (203) 
nan

>  <Num_Resolved_Atoms>  (203) 
nan

>  <Num_Not_Resolved_Atoms>  (203) 
nan

$$$$
CHEMBL392692
     RDKit          3D

  0  0  0  0  0  0  0  0  0  0999 V3000
M  V30 BEGIN CTAB
M  V30 COUNTS 54 57 0 0 0
M  V30 BEGIN ATOM
M  V30 1 C 1.367885 -0.372464 6.379449 0
M  V30 2 N 1.859134 -0.194114 5.018835 0
M  V30 3 C 0.894131 -0.680650 4.064066 0
M  V30 4 C 3.179641 -0.777030 4.849300 0
M  V30 5 C 3.601117 -0.549888 3.448368 0
M  V30 6 C 4.311980 0.578974 3.110083 0
M  V30 7 C 4.702101 0.804177 1.809803 0
M  V30 8 C 4.398300 -0.087879 0.795724 0
M  V30 9 N 4.703699 -0.096863 -0.594447 0
M  V30 10 C 3.587180 -0.326981 -1.483309 0
M  V30 11 C 2.255920 -0.387740 -1.067652 0
M  V30 12 C 1.407499 -0.623706 -2.137343 0
M  V30 13 C -0.048980 -0.731580 -2.087696 0
M  V30 14 C -0.697957 -0.618011 -0.854142 0
M  V30 15 C -2.084989 -0.691261 -0.772113 0
M  V30 16 C -2.833956 -0.879798 -1.924163 0
M  V30 17 C -4.265393 -0.925970 -1.760964 0
M  V30 18 C -4.794094 0.087870 -0.968975 0
M  V30 19 C -6.163188 0.114741 -0.778010 0
M  V30 20 C -6.924642 -0.881213 -1.395384 0
M  V30 21 O -8.286028 -0.751355 -1.133318 0
M  V30 22 C -6.364771 -1.872052 -2.174220 0
M  V30 23 C -4.985318 -1.918845 -2.380730 0
M  V30 24 O -4.461632 -2.910317 -3.156343 0
M  V30 25 C -2.146401 -0.987184 -3.113812 0
M  V30 26 C -0.774190 -0.920315 -3.243501 0
M  V30 27 N 2.260316 -0.700349 -3.183443 0
M  V30 28 N 3.522548 -0.530513 -2.819346 0
M  V30 29 C 3.672691 -1.227303 1.182787 0
M  V30 30 C 3.260566 -1.492939 2.480144 0
M  V30 31 H 1.016460 0.570714 6.822237 0
M  V30 32 H 0.509525 -1.075043 6.322742 0
M  V30 33 H 2.147242 -0.849939 7.015014 0
M  V30 34 H 0.806709 -1.788003 4.031517 0
M  V30 35 H 1.178056 -0.345560 3.048646 0
M  V30 36 H -0.103489 -0.260341 4.315797 0
M  V30 37 H 3.218729 -1.862700 5.041403 0
M  V30 38 H 3.932638 -0.242409 5.490277 0
M  V30 39 H 4.601429 1.342844 3.817692 0
M  V30 40 H 5.263605 1.651439 1.402239 0
M  V30 41 H 5.640443 0.044563 -1.035074 0
M  V30 42 H 1.852063 -0.271552 -0.070051 0
M  V30 43 H -0.169243 -0.471666 0.074983 0
M  V30 44 H -2.557711 -0.598354 0.209128 0
M  V30 45 H -4.178201 0.838317 -0.508308 0
M  V30 46 H -6.577239 0.898478 -0.164851 0
M  V30 47 H -8.897319 -0.932857 -1.942130 0
M  V30 48 H -7.039277 -2.582630 -2.600837 0
M  V30 49 H -3.847461 -3.625327 -2.786947 0
M  V30 50 H -2.790136 -1.135358 -3.984658 0
M  V30 51 H -0.302709 -1.013519 -4.231912 0
M  V30 52 H 1.947944 -0.877031 -4.180353 0
M  V30 53 H 3.370513 -2.018771 0.474699 0
M  V30 54 H 2.715220 -2.368190 2.737799 0
M  V30 END ATOM
M  V30 BEGIN BOND
M  V30 1 1 1 2
M  V30 2 1 2 3
M  V30 3 1 2 4
M  V30 4 1 4 5
M  V30 5 2 5 6
M  V30 6 1 6 7
M  V30 7 2 7 8
M  V30 8 1 8 9
M  V30 9 1 9 10
M  V30 10 1 10 11
M  V30 11 2 11 12
M  V30 12 1 12 13
M  V30 13 2 13 14
M  V30 14 1 14 15
M  V30 15 2 15 16
M  V30 16 1 16 17
M  V30 17 2 17 18
M  V30 18 1 18 19
M  V30 19 2 19 20
M  V30 20 1 20 21
M  V30 21 1 20 22
M  V30 22 2 22 23
M  V30 23 1 23 24
M  V30 24 1 16 25
M  V30 25 2 25 26
M  V30 26 1 12 27
M  V30 27 1 27 28
M  V30 28 1 8 29
M  V30 29 2 29 30
M  V30 30 1 30 5
M  V30 31 2 28 10
M  V30 32 1 26 13
M  V30 33 1 23 17
M  V30 34 1 1 31
M  V30 35 1 1 32
M  V30 36 1 1 33
M  V30 37 1 3 34
M  V30 38 1 3 35
M  V30 39 1 3 36
M  V30 40 1 4 37
M  V30 41 1 4 38
M  V30 42 1 6 39
M  V30 43 1 7 40
M  V30 44 1 9 41
M  V30 45 1 11 42
M  V30 46 1 14 43
M  V30 47 1 15 44
M  V30 48 1 18 45
M  V30 49 1 19 46
M  V30 50 1 21 47
M  V30 51 1 22 48
M  V30 52 1 24 49
M  V30 53 1 25 50
M  V30 54 1 26 51
M  V30 55 1 27 52
M  V30 56 1 29 53
M  V30 57 1 30 54
M  V30 END BOND
M  V30 END CTAB
M  END
>  <Dataset>  (204) 
ChEMBL_Kinases

>  <Ligand_Instance>  (204) 
nan

>  <PDB_ID>  (204) 
nan

>  <Standardized_SMILES>  (204) 
CN(C)Cc1ccc(Nc2cc(-c3ccc(-c4ccc(O)cc4O)cc3)[nH]n2)cc1

>  <Name>  (204) 
nan

>  <Pocket>  (204) 
nan

>  <ATP_Site>  (204) 
nan

>  <Peripheral>  (204) 
nan

>  <Num_H_Atoms_ProtBoundConf>  (204) 
nan

>  <Num_Resolved_Atoms>  (204) 
nan

>  <Num_Not_Resolved_Atoms>  (204) 
nan

$$$$
CHEMBL3926893
     RDKit          3D

  0  0  0  0  0  0  0  0  0  0999 V3000
M  V30 BEGIN CTAB
M  V30 COUNTS 56 59 0 0 0
M  V30 BEGIN ATOM
M  V30 1 C 4.190136 -0.273981 5.048366 0
M  V30 2 C 3.326676 -1.454273 4.647190 0
M  V30 3 N 3.677360 -1.990656 3.350659 0
M  V30 4 N 4.638099 -2.922917 3.156345 0
M  V30 5 C 4.764012 -3.211127 1.848519 0
M  V30 6 C 3.831080 -2.407829 1.247992 0
M  V30 7 C 3.587428 -2.349756 -0.112305 0
M  V30 8 C 2.617025 -1.473503 -0.443168 0
M  V30 9 N 1.961935 -0.737856 0.463196 0
M  V30 10 C 2.154735 -0.756818 1.763839 0
M  V30 11 C 3.139338 -1.637564 2.158424 0
M  V30 12 C 1.409141 0.059774 2.721385 0
M  V30 13 C 0.568983 1.153935 2.203883 0
M  V30 14 C -0.691059 0.953961 1.491953 0
M  V30 15 O -0.785332 0.211993 0.386789 0
M  V30 16 C -1.964740 0.117289 -0.310028 0
M  V30 17 C -2.419595 1.405539 -0.930284 0
M  V30 18 C -3.099197 -0.350893 0.621675 0
M  V30 19 C -1.902344 -1.013602 -1.359106 0 CFG=1
M  V30 20 C -3.118208 -1.182402 -2.104376 0
M  V30 21 C -3.459496 -0.363191 -3.152034 0
M  V30 22 C -4.615427 -0.471717 -3.915049 0
M  V30 23 C -5.500761 -1.497048 -3.589525 0
M  V30 24 C -5.155288 -2.318556 -2.536979 0
M  V30 25 C -4.019343 -2.208114 -1.790206 0
M  V30 26 N -0.756753 -0.730600 -2.256473 0
M  V30 27 C 0.646778 -0.883446 -2.027999 0
M  V30 28 O 0.229990 -1.282609 -0.941971 0
M  V30 29 N 1.983151 -1.076762 -1.685800 0
M  V30 30 H 4.778790 -0.009617 4.117594 0
M  V30 31 H 3.585866 0.592884 5.368369 0
M  V30 32 H 4.936152 -0.488256 5.823767 0
M  V30 33 H 3.698956 -2.254641 5.381481 0
M  V30 34 H 2.291017 -1.411541 4.917236 0
M  V30 35 H 5.448260 -3.919695 1.361771 0
M  V30 36 H 3.956380 -2.811854 -1.000069 0
M  V30 37 H 2.172982 0.579167 3.330723 0
M  V30 38 H 0.865671 -0.550648 3.489271 0
M  V30 39 H 1.186388 1.881778 1.580818 0
M  V30 40 H 0.319181 1.802912 3.107207 0
M  V30 41 H -1.564808 0.752603 2.222835 0
M  V30 42 H -0.992227 2.012017 1.174447 0
M  V30 43 H -1.718695 1.705105 -1.759999 0
M  V30 44 H -3.454767 1.261274 -1.319235 0
M  V30 45 H -2.461523 2.203025 -0.176893 0
M  V30 46 H -3.395086 0.472040 1.325838 0
M  V30 47 H -2.812618 -1.244037 1.203672 0
M  V30 48 H -4.017513 -0.601031 0.060751 0
M  V30 49 H -1.621476 -1.890921 -0.743772 0
M  V30 50 H -2.829575 0.468260 -3.485409 0
M  V30 51 H -4.864992 0.175337 -4.728420 0
M  V30 52 H -6.406533 -1.578133 -4.192660 0
M  V30 53 H -5.914874 -3.091408 -2.359765 0
M  V30 54 H -3.854481 -2.909554 -0.989543 0
M  V30 55 H -0.719332 -0.366518 -3.235381 0
M  V30 56 H 2.774036 -0.891684 -2.306699 0
M  V30 END ATOM
M  V30 BEGIN BOND
M  V30 1 1 1 2
M  V30 2 1 2 3
M  V30 3 1 3 4
M  V30 4 2 4 5
M  V30 5 1 5 6
M  V30 6 2 6 7
M  V30 7 1 7 8
M  V30 8 2 8 9
M  V30 9 1 9 10
M  V30 10 2 10 11
M  V30 11 1 10 12
M  V30 12 1 12 13
M  V30 13 1 13 14
M  V30 14 1 14 15
M  V30 15 1 15 16
M  V30 16 1 16 17
M  V30 17 1 16 18
M  V30 18 1 16 19
M  V30 19 1 19 20
M  V30 20 2 20 21
M  V30 21 1 21 22
M  V30 22 2 22 23
M  V30 23 1 23 24
M  V30 24 2 24 25
M  V30 25 1 19 26
M  V30 26 1 26 27
M  V30 27 2 27 28
M  V30 28 1 27 29
M  V30 29 1 11 3
M  V30 30 1 25 20
M  V30 31 1 11 6
M  V30 32 1 29 8
M  V30 33 1 1 30
M  V30 34 1 1 31
M  V30 35 1 1 32
M  V30 36 1 2 33
M  V30 37 1 2 34
M  V30 38 1 5 35
M  V30 39 1 7 36
M  V30 40 1 12 37
M  V30 41 1 12 38
M  V30 42 1 13 39
M  V30 43 1 13 40
M  V30 44 1 14 41
M  V30 45 1 14 42
M  V30 46 1 17 43
M  V30 47 1 17 44
M  V30 48 1 17 45
M  V30 49 1 18 46
M  V30 50 1 18 47
M  V30 51 1 18 48
M  V30 52 1 19 49 CFG=1
M  V30 53 1 21 50
M  V30 54 1 22 51
M  V30 55 1 23 52
M  V30 56 1 24 53
M  V30 57 1 25 54
M  V30 58 1 26 55
M  V30 59 1 29 56
M  V30 END BOND
M  V30 END CTAB
M  END
>  <Dataset>  (205) 
ChEMBL_Kinases

>  <Ligand_Instance>  (205) 
nan

>  <PDB_ID>  (205) 
nan

>  <Standardized_SMILES>  (205) 
CCn1ncc2cc3nc(c21)CCCOC(C)(C)[C@@H](c1ccccc1)NC(=O)N3

>  <Name>  (205) 
nan

>  <Pocket>  (205) 
nan

>  <ATP_Site>  (205) 
nan

>  <Peripheral>  (205) 
nan

>  <Num_H_Atoms_ProtBoundConf>  (205) 
nan

>  <Num_Resolved_Atoms>  (205) 
nan

>  <Num_Not_Resolved_Atoms>  (205) 
nan

$$$$
CHEMBL3926830
     RDKit          3D

  0  0  0  0  0  0  0  0  0  0999 V3000
M  V30 BEGIN CTAB
M  V30 COUNTS 65 69 0 0 0
M  V30 BEGIN ATOM
M  V30 1 C 5.560034 0.507312 6.468186 0
M  V30 2 O 4.714608 1.483844 5.939611 0
M  V30 3 C 3.919527 1.354583 4.812172 0
M  V30 4 C 3.836433 0.226986 4.023852 0
M  V30 5 C 3.030768 0.139349 2.907830 0
M  V30 6 N 2.955572 -0.955484 2.150913 0
M  V30 7 C 2.130866 -0.933669 1.076996 0
M  V30 8 N 1.410986 0.157793 0.783897 0
M  V30 9 C 1.467845 1.257042 1.519303 0
M  V30 10 N 0.634251 2.317152 1.061064 0
M  V30 11 C -0.456273 3.069611 1.596381 0
M  V30 12 C -1.661142 3.170382 0.696804 0
M  V30 13 N -1.493559 2.213180 -0.376313 0
M  V30 14 C -2.352414 1.061213 -0.545061 0
M  V30 15 S -3.519111 0.988176 0.622851 0
M  V30 16 N -2.151551 0.149741 -1.611156 0
M  V30 17 C -2.846332 -1.015484 -1.965509 0
M  V30 18 C -3.927513 -1.564075 -1.323041 0
M  V30 19 C -4.601839 -2.710255 -1.683538 0
M  V30 20 C -4.133202 -3.361425 -2.803636 0
M  V30 21 S -4.920308 -4.808516 -3.334704 0
M  V30 22 O -6.396101 -4.712723 -3.101040 0
M  V30 23 O -4.734606 -4.898975 -4.826947 0
M  V30 24 N -4.295596 -6.234547 -2.603968 0
M  V30 25 C -2.949231 -6.651202 -2.761077 0
M  V30 26 N -2.057951 -5.964630 -3.492420 0
M  V30 27 C -0.790363 -6.333222 -3.656383 0
M  V30 28 C -0.311346 -7.474577 -3.065605 0
M  V30 29 C -1.246163 -8.159984 -2.321267 0
M  V30 30 N -2.504776 -7.773433 -2.171840 0
M  V30 31 C -3.053600 -2.874291 -3.502701 0
M  V30 32 C -2.440738 -1.726263 -3.074274 0
M  V30 33 C -0.352244 2.679101 -1.149057 0
M  V30 34 C 0.876117 2.826441 -0.275236 0
M  V30 35 C 2.297670 1.275913 2.624333 0
M  V30 36 C 2.316101 2.440253 3.349265 0
M  V30 37 C 3.154863 2.447876 4.460868 0
M  V30 38 O 3.201911 3.600873 5.216993 0
M  V30 39 C 2.482530 4.761460 4.965804 0
M  V30 40 H 5.790566 -0.319131 5.766618 0
M  V30 41 H 6.571327 0.924734 6.740141 0
M  V30 42 H 5.109931 0.040215 7.373182 0
M  V30 43 H 4.426441 -0.624226 4.290214 0
M  V30 44 H 2.082095 -1.834018 0.471762 0
M  V30 45 H -0.760987 2.562102 2.535436 0
M  V30 46 H -0.177376 4.099593 1.901137 0
M  V30 47 H -2.561518 2.930181 1.316311 0
M  V30 48 H -1.779448 4.200163 0.280758 0
M  V30 49 H -1.340443 0.413946 -2.223213 0
M  V30 50 H -4.317031 -1.081163 -0.446609 0
M  V30 51 H -5.449638 -3.083405 -1.126266 0
M  V30 52 H -4.935022 -6.822450 -2.017155 0
M  V30 53 H -0.156788 -5.714061 -4.261583 0
M  V30 54 H 0.709244 -7.815346 -3.169064 0
M  V30 55 H -0.973689 -9.073566 -1.813075 0
M  V30 56 H -2.704597 -3.400976 -4.379425 0
M  V30 57 H -1.588025 -1.400715 -3.682808 0
M  V30 58 H -0.609549 3.681986 -1.542406 0
M  V30 59 H -0.189160 2.038895 -2.012000 0
M  V30 60 H 1.694920 2.289364 -0.795276 0
M  V30 61 H 1.196759 3.881881 -0.167851 0
M  V30 62 H 1.732192 3.285178 3.086101 0
M  V30 63 H 1.437477 4.509899 4.691013 0
M  V30 64 H 2.929323 5.429777 4.202620 0
M  V30 65 H 2.387807 5.297810 5.953878 0
M  V30 END ATOM
M  V30 BEGIN BOND
M  V30 1 1 1 2
M  V30 2 1 2 3
M  V30 3 2 3 4
M  V30 4 1 4 5
M  V30 5 2 5 6
M  V30 6 1 6 7
M  V30 7 2 7 8
M  V30 8 1 8 9
M  V30 9 1 9 10
M  V30 10 1 10 11
M  V30 11 1 11 12
M  V30 12 1 12 13
M  V30 13 1 13 14
M  V30 14 2 14 15
M  V30 15 1 14 16
M  V30 16 1 16 17
M  V30 17 2 17 18
M  V30 18 1 18 19
M  V30 19 2 19 20
M  V30 20 1 20 21
M  V30 21 2 21 22
M  V30 22 2 21 23
M  V30 23 1 21 24
M  V30 24 1 24 25
M  V30 25 2 25 26
M  V30 26 1 26 27
M  V30 27 2 27 28
M  V30 28 1 28 29
M  V30 29 2 29 30
M  V30 30 1 20 31
M  V30 31 2 31 32
M  V30 32 1 13 33
M  V30 33 1 33 34
M  V30 34 2 9 35
M  V30 35 1 35 36
M  V30 36 2 36 37
M  V30 37 1 37 38
M  V30 38 1 38 39
M  V30 39 1 37 3
M  V30 40 1 35 5
M  V30 41 1 34 10
M  V30 42 1 32 17
M  V30 43 1 30 25
M  V30 44 1 1 40
M  V30 45 1 1 41
M  V30 46 1 1 42
M  V30 47 1 4 43
M  V30 48 1 7 44
M  V30 49 1 11 45
M  V30 50 1 11 46
M  V30 51 1 12 47
M  V30 52 1 12 48
M  V30 53 1 16 49
M  V30 54 1 18 50
M  V30 55 1 19 51
M  V30 56 1 24 52
M  V30 57 1 27 53
M  V30 58 1 28 54
M  V30 59 1 29 55
M  V30 60 1 31 56
M  V30 61 1 32 57
M  V30 62 1 33 58
M  V30 63 1 33 59
M  V30 64 1 34 60
M  V30 65 1 34 61
M  V30 66 1 36 62
M  V30 67 1 39 63
M  V30 68 1 39 64
M  V30 69 1 39 65
M  V30 END BOND
M  V30 END CTAB
M  END
>  <Dataset>  (206) 
ChEMBL_Kinases

>  <Ligand_Instance>  (206) 
nan

>  <PDB_ID>  (206) 
nan

>  <Standardized_SMILES>  (206) 
COc1cc2ncnc(N3CCN(C(=S)Nc4ccc(S(=O)(=O)Nc5ncccn5)cc4)CC3)c2cc1OC

>  <Name>  (206) 
nan

>  <Pocket>  (206) 
nan

>  <ATP_Site>  (206) 
nan

>  <Peripheral>  (206) 
nan

>  <Num_H_Atoms_ProtBoundConf>  (206) 
nan

>  <Num_Resolved_Atoms>  (206) 
nan

>  <Num_Not_Resolved_Atoms>  (206) 
nan

$$$$
CHEMBL3926709
     RDKit          3D

  0  0  0  0  0  0  0  0  0  0999 V3000
M  V30 BEGIN CTAB
M  V30 COUNTS 77 80 0 0 0
M  V30 BEGIN ATOM
M  V30 1 N 6.093516 -2.084331 0.533416 0
M  V30 2 C 5.234697 -0.953635 0.493804 0
M  V30 3 O 5.767735 0.125413 0.169633 0
M  V30 4 C 3.869186 -1.409014 0.871934 0 CFG=2
M  V30 5 C 3.459002 -2.681817 0.214800 0
M  V30 6 C 3.436390 -2.714586 -1.262473 0
M  V30 7 C 2.544670 -1.761128 -1.965359 0
M  V30 8 C 1.078747 -1.894351 -1.626447 0
M  V30 9 C 0.237646 -2.132735 -2.862897 0
M  V30 10 C 0.546489 -1.163626 -3.980504 0
M  V30 11 C 2.005544 -0.932456 -4.191193 0
M  V30 12 C 2.754035 -2.029227 -3.473751 0
M  V30 13 N 2.887416 -0.355128 0.871356 0
M  V30 14 C 2.374818 0.097350 2.116985 0
M  V30 15 O 2.552924 -0.191111 3.350241 0
M  V30 16 C 1.377872 1.138186 2.511091 0 CFG=1
M  V30 17 C 1.210165 1.234891 3.986157 0
M  V30 18 C 0.002598 2.070385 4.294846 0
M  V30 19 C -0.221158 3.221282 3.384829 0 CFG=2
M  V30 20 C -1.683725 3.405636 3.062867 0
M  V30 21 N -2.352732 2.310182 2.461038 0
M  V30 22 C -2.482954 1.417537 1.389660 0
M  V30 23 O -1.643035 1.616146 0.480956 0
M  V30 24 C -3.457016 0.346879 1.261714 0
M  V30 25 C -4.455715 -0.023371 2.135597 0
M  V30 26 N -5.077984 -1.069440 1.551712 0
M  V30 27 N -4.492529 -1.329362 0.379046 0
M  V30 28 C -4.948690 -2.388017 -0.453358 0
M  V30 29 C -5.288136 -2.338920 -1.796123 0
M  V30 30 C -5.711703 -3.481220 -2.432723 0
M  V30 31 C -5.808171 -4.688475 -1.759838 0
M  V30 32 C -5.479944 -4.783274 -0.420415 0
M  V30 33 C -5.058524 -3.616536 0.186649 0
M  V30 34 C -3.461707 -0.460979 0.149867 0
M  V30 35 N -2.621686 -0.447209 -0.997369 0
M  V30 36 C 0.607351 3.413602 2.203032 0
M  V30 37 C 1.785759 2.498200 2.012423 0
M  V30 38 H 5.979955 -3.116459 0.432645 0
M  V30 39 H 6.743712 -2.898487 0.566807 0
M  V30 40 H 3.991650 -1.686396 1.979549 0
M  V30 41 H 4.002431 -3.573736 0.638957 0
M  V30 42 H 2.393863 -2.866865 0.557757 0
M  V30 43 H 4.451522 -2.608895 -1.717349 0
M  V30 44 H 3.092547 -3.749699 -1.567575 0
M  V30 45 H 2.866953 -0.722992 -1.825685 0
M  V30 46 H 0.858759 -2.718713 -0.939104 0
M  V30 47 H 0.706398 -0.961673 -1.155451 0
M  V30 48 H 0.288712 -3.189077 -3.210210 0
M  V30 49 H -0.821027 -1.974900 -2.576845 0
M  V30 50 H -0.013150 -0.198707 -3.834142 0
M  V30 51 H 0.115792 -1.598411 -4.901902 0
M  V30 52 H 2.243665 -0.991691 -5.253739 0
M  V30 53 H 2.316194 0.028794 -3.725386 0
M  V30 54 H 2.280547 -2.985762 -3.727768 0
M  V30 55 H 3.827969 -1.981502 -3.667127 0
M  V30 56 H 2.354205 0.269481 0.232954 0
M  V30 57 H 0.424213 0.816900 2.063459 0
M  V30 58 H 1.031782 0.223104 4.446386 0
M  V30 59 H 2.148601 1.610709 4.438241 0
M  V30 60 H 0.068665 2.363193 5.359165 0
M  V30 61 H -0.886201 1.388908 4.237022 0
M  V30 62 H -0.011365 4.144938 4.058148 0
M  V30 63 H -1.668896 4.265981 2.294273 0
M  V30 64 H -2.191262 3.835017 3.924698 0
M  V30 65 H -3.128901 2.018146 3.148816 0
M  V30 66 H -4.678304 0.452739 3.103159 0
M  V30 67 H -5.179630 -1.351200 -2.231994 0
M  V30 68 H -5.964009 -3.401809 -3.467874 0
M  V30 69 H -6.141004 -5.576544 -2.266827 0
M  V30 70 H -5.557164 -5.718613 0.090170 0
M  V30 71 H -4.810321 -3.745371 1.250089 0
M  V30 72 H -2.966296 -0.037115 -1.906974 0
M  V30 73 H -1.736857 -0.903134 -0.641735 0
M  V30 74 H 0.059211 3.458004 1.241305 0
M  V30 75 H 1.094920 4.457442 2.226051 0
M  V30 76 H 2.631721 2.864352 2.635307 0
M  V30 77 H 2.060989 2.481315 0.947205 0
M  V30 END ATOM
M  V30 BEGIN BOND
M  V30 1 1 1 2
M  V30 2 2 2 3
M  V30 3 1 2 4
M  V30 4 1 4 5
M  V30 5 1 5 6
M  V30 6 1 6 7
M  V30 7 1 7 8
M  V30 8 1 8 9
M  V30 9 1 9 10
M  V30 10 1 10 11
M  V30 11 1 11 12
M  V30 12 1 4 13
M  V30 13 1 13 14
M  V30 14 2 14 15
M  V30 15 1 14 16
M  V30 16 1 16 17
M  V30 17 1 17 18
M  V30 18 1 18 19
M  V30 19 1 19 20
M  V30 20 1 20 21
M  V30 21 1 21 22
M  V30 22 2 22 23
M  V30 23 1 22 24
M  V30 24 1 24 25
M  V30 25 2 25 26
M  V30 26 1 26 27
M  V30 27 1 27 28
M  V30 28 2 28 29
M  V30 29 1 29 30
M  V30 30 2 30 31
M  V30 31 1 31 32
M  V30 32 2 32 33
M  V30 33 1 27 34
M  V30 34 1 34 35
M  V30 35 1 19 36
M  V30 36 1 36 37
M  V30 37 1 12 7
M  V30 38 1 37 16
M  V30 39 2 34 24
M  V30 40 1 33 28
M  V30 41 1 1 38
M  V30 42 1 1 39
M  V30 43 1 4 40 CFG=1
M  V30 44 1 5 41
M  V30 45 1 5 42
M  V30 46 1 6 43
M  V30 47 1 6 44
M  V30 48 1 7 45
M  V30 49 1 8 46
M  V30 50 1 8 47
M  V30 51 1 9 48
M  V30 52 1 9 49
M  V30 53 1 10 50
M  V30 54 1 10 51
M  V30 55 1 11 52
M  V30 56 1 11 53
M  V30 57 1 12 54
M  V30 58 1 12 55
M  V30 59 1 13 56
M  V30 60 1 16 57 CFG=3
M  V30 61 1 17 58
M  V30 62 1 17 59
M  V30 63 1 18 60
M  V30 64 1 18 61
M  V30 65 1 19 62 CFG=1
M  V30 66 1 20 63
M  V30 67 1 20 64
M  V30 68 1 21 65
M  V30 69 1 25 66
M  V30 70 1 29 67
M  V30 71 1 30 68
M  V30 72 1 31 69
M  V30 73 1 32 70
M  V30 74 1 33 71
M  V30 75 1 35 72
M  V30 76 1 35 73
M  V30 77 1 36 74
M  V30 78 1 36 75
M  V30 79 1 37 76
M  V30 80 1 37 77
M  V30 END BOND
M  V30 END CTAB
M  END
>  <Dataset>  (207) 
ChEMBL_Kinases

>  <Ligand_Instance>  (207) 
nan

>  <PDB_ID>  (207) 
nan

>  <Standardized_SMILES>  (207) 
NC(=O)[C@H](CCC1CCCCC1)NC(=O)[C@H]1CC[C@H](CNC(=O)c2cnn(-c3ccccc3)c2N)CC1

>  <Name>  (207) 
nan

>  <Pocket>  (207) 
nan

>  <ATP_Site>  (207) 
nan

>  <Peripheral>  (207) 
nan

>  <Num_H_Atoms_ProtBoundConf>  (207) 
nan

>  <Num_Resolved_Atoms>  (207) 
nan

>  <Num_Not_Resolved_Atoms>  (207) 
nan

$$$$
CHEMBL3926696
     RDKit          3D

  0  0  0  0  0  0  0  0  0  0999 V3000
M  V30 BEGIN CTAB
M  V30 COUNTS 26 27 0 0 0
M  V30 BEGIN ATOM
M  V30 1 N -1.353807 -5.495280 0.219567 0
M  V30 2 C -0.656292 -4.601375 0.829613 0
M  V30 3 N 0.357819 -4.756513 1.807089 0
M  V30 4 C 1.063883 -3.580981 2.152660 0
M  V30 5 O 1.995096 -3.527156 2.998208 0
M  V30 6 C 0.647833 -2.361066 1.448823 0
M  V30 7 C 1.209308 -1.187527 1.465820 0
M  V30 8 C 0.657640 -0.076145 0.698715 0
M  V30 9 C 0.185997 -0.299267 -0.572248 0
M  V30 10 C -0.354233 0.777146 -1.285333 0
M  V30 11 C -0.390798 2.035755 -0.673357 0
M  V30 12 O -0.937150 3.069507 -1.424346 0
M  V30 13 C 0.104428 2.187038 0.613521 0
M  V30 14 C 0.023840 3.517996 1.170878 0
M  V30 15 O -0.463489 4.482315 0.540536 0
M  V30 16 O 0.514624 3.727728 2.474993 0
M  V30 17 C 0.641252 1.134180 1.331290 0
M  V30 18 S -0.831607 -2.842675 0.556191 0
M  V30 19 H -2.082806 -5.257754 -0.490765 0
M  V30 20 H 0.550504 -5.690844 2.230604 0
M  V30 21 H 2.099480 -1.031051 2.056755 0
M  V30 22 H 0.193684 -1.242692 -1.092333 0
M  V30 23 H -0.732198 0.617741 -2.289789 0
M  V30 24 H -0.384224 3.646281 -2.073518 0
M  V30 25 H 0.706949 4.707397 2.702389 0
M  V30 26 H 1.010223 1.310313 2.322183 0
M  V30 END ATOM
M  V30 BEGIN BOND
M  V30 1 2 1 2 CFG=2
M  V30 2 1 2 3
M  V30 3 1 3 4
M  V30 4 2 4 5
M  V30 5 1 4 6
M  V30 6 2 6 7
M  V30 7 1 7 8
M  V30 8 2 8 9
M  V30 9 1 9 10
M  V30 10 2 10 11
M  V30 11 1 11 12
M  V30 12 1 11 13
M  V30 13 1 13 14
M  V30 14 2 14 15
M  V30 15 1 14 16
M  V30 16 2 13 17
M  V30 17 1 6 18
M  V30 18 1 18 2
M  V30 19 1 17 8
M  V30 20 1 1 19
M  V30 21 1 3 20
M  V30 22 1 7 21
M  V30 23 1 9 22
M  V30 24 1 10 23
M  V30 25 1 12 24
M  V30 26 1 16 25
M  V30 27 1 17 26
M  V30 END BOND
M  V30 END CTAB
M  END
>  <Dataset>  (208) 
ChEMBL_Kinases

>  <Ligand_Instance>  (208) 
nan

>  <PDB_ID>  (208) 
nan

>  <Standardized_SMILES>  (208) 
N=C1NC(=O)/C(=C/c2ccc(O)c(C(=O)O)c2)S1

>  <Name>  (208) 
nan

>  <Pocket>  (208) 
nan

>  <ATP_Site>  (208) 
nan

>  <Peripheral>  (208) 
nan

>  <Num_H_Atoms_ProtBoundConf>  (208) 
nan

>  <Num_Resolved_Atoms>  (208) 
nan

>  <Num_Not_Resolved_Atoms>  (208) 
nan

$$$$
CHEMBL392665
     RDKit          3D

  0  0  0  0  0  0  0  0  0  0999 V3000
M  V30 BEGIN CTAB
M  V30 COUNTS 36 38 0 0 0
M  V30 BEGIN ATOM
M  V30 1 C 1.662842 -2.154171 5.031639 0
M  V30 2 O 1.345621 -3.206421 4.165834 0
M  V30 3 C 0.943980 -2.964094 2.876833 0
M  V30 4 C 0.639587 -4.022877 2.052072 0
M  V30 5 C 0.226860 -3.862884 0.738394 0
M  V30 6 C 0.099984 -2.598943 0.185817 0
M  V30 7 N -0.259250 -2.072137 -1.005049 0
M  V30 8 C -0.186007 -0.728850 -0.939882 0
M  V30 9 C 0.232825 -0.375118 0.330032 0
M  V30 10 C 0.413076 -1.552122 1.039320 0
M  V30 11 C 0.824057 -1.696062 2.345549 0
M  V30 12 C 0.393565 1.071590 0.656904 0
M  V30 13 C -0.575229 1.780889 -0.296315 0
M  V30 14 C -0.756714 3.225060 0.073265 0
M  V30 15 O -1.320081 3.269097 1.361482 0
M  V30 16 N 0.003791 1.587826 -1.615985 0
M  V30 17 C -0.489270 0.258473 -2.011619 0
M  V30 18 C -0.006048 -0.129881 -3.337407 0
M  V30 19 O -0.370912 -1.267621 -3.786257 0
M  V30 20 O 0.798409 0.426522 -4.325718 0
M  V30 21 H 2.692549 -1.776978 4.830064 0
M  V30 22 H 1.635236 -2.448005 6.110477 0
M  V30 23 H 0.986624 -1.279413 4.950171 0
M  V30 24 H 0.731137 -5.026908 2.462064 0
M  V30 25 H -0.002461 -4.705618 0.122518 0
M  V30 26 H -0.546889 -2.660015 -1.834953 0
M  V30 27 H 1.052429 -0.835530 2.956214 0
M  V30 28 H 1.421339 1.367887 0.377885 0
M  V30 29 H 0.165290 1.276930 1.714361 0
M  V30 30 H -1.531065 1.235431 -0.153005 0
M  V30 31 H 0.180693 3.781232 0.127183 0
M  V30 32 H -1.518496 3.629115 -0.619850 0
M  V30 33 H -1.693718 2.381426 1.602113 0
M  V30 34 H 1.048613 1.603431 -1.576045 0
M  V30 35 H -1.601950 0.417482 -2.049604 0
M  V30 36 H 1.573250 -0.075613 -4.763519 0
M  V30 END ATOM
M  V30 BEGIN BOND
M  V30 1 1 1 2
M  V30 2 1 2 3
M  V30 3 2 3 4
M  V30 4 1 4 5
M  V30 5 2 5 6
M  V30 6 1 6 7
M  V30 7 1 7 8
M  V30 8 2 8 9
M  V30 9 1 9 10
M  V30 10 2 10 11
M  V30 11 1 9 12
M  V30 12 1 12 13
M  V30 13 1 13 14
M  V30 14 1 14 15
M  V30 15 1 13 16
M  V30 16 1 16 17
M  V30 17 1 17 18
M  V30 18 2 18 19
M  V30 19 1 18 20
M  V30 20 1 11 3
M  V30 21 1 10 6
M  V30 22 1 17 8
M  V30 23 1 1 21
M  V30 24 1 1 22
M  V30 25 1 1 23
M  V30 26 1 4 24
M  V30 27 1 5 25
M  V30 28 1 7 26
M  V30 29 1 11 27
M  V30 30 1 12 28
M  V30 31 1 12 29
M  V30 32 1 13 30
M  V30 33 1 14 31
M  V30 34 1 14 32
M  V30 35 1 15 33
M  V30 36 1 16 34
M  V30 37 1 17 35
M  V30 38 1 20 36
M  V30 END BOND
M  V30 END CTAB
M  END
>  <Dataset>  (209) 
ChEMBL_Kinases

>  <Ligand_Instance>  (209) 
nan

>  <PDB_ID>  (209) 
nan

>  <Standardized_SMILES>  (209) 
COc1ccc2[nH]c3c(c2c1)CC(CO)NC3C(=O)O

>  <Name>  (209) 
nan

>  <Pocket>  (209) 
nan

>  <ATP_Site>  (209) 
nan

>  <Peripheral>  (209) 
nan

>  <Num_H_Atoms_ProtBoundConf>  (209) 
nan

>  <Num_Resolved_Atoms>  (209) 
nan

>  <Num_Not_Resolved_Atoms>  (209) 
nan

$$$$
CHEMBL3926327
     RDKit          3D

  0  0  0  0  0  0  0  0  0  0999 V3000
M  V30 BEGIN CTAB
M  V30 COUNTS 49 52 0 0 0
M  V30 BEGIN ATOM
M  V30 1 C 6.364782 -5.466616 3.701369 0
M  V30 2 O 6.001793 -5.551488 2.311791 0
M  V30 3 C 5.328158 -4.546901 1.673322 0
M  V30 4 O 5.150454 -3.644547 2.562900 0
M  V30 5 N 4.866551 -4.399648 0.335334 0
M  V30 6 C 4.189826 -3.160371 0.083352 0
M  V30 7 N 4.686166 -1.982371 -0.341043 0
M  V30 8 C 3.678828 -1.076559 -0.433253 0
M  V30 9 C 3.568134 0.248847 -0.795949 0
M  V30 10 C 2.336540 0.825506 -0.752534 0
M  V30 11 C 1.158642 0.220420 -0.377062 0
M  V30 12 C -0.159846 0.795126 -0.273100 0
M  V30 13 O -1.101234 -0.060031 -0.439461 0
M  V30 14 C -0.627245 2.135659 -0.018258 0
M  V30 15 C 0.114520 3.233219 0.325607 0
M  V30 16 C -0.362519 4.496771 0.584414 0
M  V30 17 C -1.736927 4.702811 0.493344 0
M  V30 18 C -2.515069 3.620223 0.149434 0
M  V30 19 C -1.974725 2.353069 -0.103698 0
M  V30 20 N -2.990431 1.410646 -0.437645 0
M  V30 21 C -3.452337 0.788401 0.750822 0
M  V30 22 O -2.864580 1.206650 1.781856 0
M  V30 23 C -4.513465 -0.241973 0.772968 0
M  V30 24 C -5.217020 -0.717541 -0.307523 0
M  V30 25 C -6.168930 -1.677531 -0.097027 0
M  V30 26 C -6.464248 -2.197874 1.143617 0
M  V30 27 C -5.755665 -1.721348 2.245794 0
M  V30 28 C -4.806710 -0.761982 2.021928 0
M  V30 29 C 1.347051 -1.123454 -0.023437 0
M  V30 30 C 2.558775 -1.778683 -0.041340 0
M  V30 31 N 2.857264 -3.065334 0.280513 0
M  V30 32 H 5.480505 -5.546083 4.349895 0
M  V30 33 H 7.181563 -6.156888 3.888861 0
M  V30 34 H 6.750796 -4.411098 3.808634 0
M  V30 35 H 5.104201 -5.228719 -0.231789 0
M  V30 36 H 4.451026 0.766842 -1.095291 0
M  V30 37 H 2.312527 1.838089 -1.060904 0
M  V30 38 H 1.176377 3.142228 0.428081 0
M  V30 39 H 0.288546 5.319246 0.851309 0
M  V30 40 H -2.121832 5.690361 0.695997 0
M  V30 41 H -3.573384 3.856713 0.097927 0
M  V30 42 H -3.434245 1.108106 -1.356537 0
M  V30 43 H -4.953609 -0.282247 -1.262800 0
M  V30 44 H -6.722647 -2.047207 -0.954324 0
M  V30 45 H -7.221546 -2.958034 1.293552 0
M  V30 46 H -6.000927 -2.138659 3.204678 0
M  V30 47 H -4.287456 -0.429202 2.916774 0
M  V30 48 H 0.467896 -1.696729 0.292477 0
M  V30 49 H 2.198578 -3.797268 0.602024 0
M  V30 END ATOM
M  V30 BEGIN BOND
M  V30 1 1 1 2
M  V30 2 1 2 3
M  V30 3 2 3 4
M  V30 4 1 3 5
M  V30 5 1 5 6
M  V30 6 2 6 7
M  V30 7 1 7 8
M  V30 8 2 8 9
M  V30 9 1 9 10
M  V30 10 2 10 11
M  V30 11 1 11 12
M  V30 12 2 12 13
M  V30 13 1 12 14
M  V30 14 2 14 15
M  V30 15 1 15 16
M  V30 16 2 16 17
M  V30 17 1 17 18
M  V30 18 2 18 19
M  V30 19 1 19 20
M  V30 20 1 20 21
M  V30 21 2 21 22
M  V30 22 1 21 23
M  V30 23 2 23 24
M  V30 24 1 24 25
M  V30 25 2 25 26
M  V30 26 1 26 27
M  V30 27 2 27 28
M  V30 28 1 11 29
M  V30 29 2 29 30
M  V30 30 1 30 31
M  V30 31 1 31 6
M  V30 32 1 30 8
M  V30 33 1 19 14
M  V30 34 1 28 23
M  V30 35 1 1 32
M  V30 36 1 1 33
M  V30 37 1 1 34
M  V30 38 1 5 35
M  V30 39 1 9 36
M  V30 40 1 10 37
M  V30 41 1 15 38
M  V30 42 1 16 39
M  V30 43 1 17 40
M  V30 44 1 18 41
M  V30 45 1 20 42
M  V30 46 1 24 43
M  V30 47 1 25 44
M  V30 48 1 26 45
M  V30 49 1 27 46
M  V30 50 1 28 47
M  V30 51 1 29 48
M  V30 52 1 31 49
M  V30 END BOND
M  V30 END CTAB
M  END
>  <Dataset>  (210) 
ChEMBL_Kinases

>  <Ligand_Instance>  (210) 
nan

>  <PDB_ID>  (210) 
nan

>  <Standardized_SMILES>  (210) 
COC(=O)Nc1nc2ccc(C(=O)c3ccccc3NC(=O)c3ccccc3)cc2[nH]1

>  <Name>  (210) 
nan

>  <Pocket>  (210) 
nan

>  <ATP_Site>  (210) 
nan

>  <Peripheral>  (210) 
nan

>  <Num_H_Atoms_ProtBoundConf>  (210) 
nan

>  <Num_Resolved_Atoms>  (210) 
nan

>  <Num_Not_Resolved_Atoms>  (210) 
nan

$$$$
CHEMBL3926180
     RDKit          3D

  0  0  0  0  0  0  0  0  0  0999 V3000
M  V30 BEGIN CTAB
M  V30 COUNTS 44 47 0 0 0
M  V30 BEGIN ATOM
M  V30 1 N 2.120994 0.375090 -7.651278 0
M  V30 2 C 3.214459 0.167414 -6.769407 0
M  V30 3 O 4.274271 0.177278 -7.441034 0
M  V30 4 C 3.244540 -0.033320 -5.329580 0
M  V30 5 C 4.492838 -0.205293 -4.775273 0
M  V30 6 C 4.598619 -0.400627 -3.417903 0
M  V30 7 C 3.477865 -0.428030 -2.594244 0
M  V30 8 N 3.265600 -0.595806 -1.257399 0
M  V30 9 C 1.945308 -0.529227 -1.003689 0
M  V30 10 C 1.315057 -0.659968 0.309228 0
M  V30 11 C -0.047035 -0.585582 0.501240 0
M  V30 12 C -0.592826 -0.713379 1.760840 0
M  V30 13 C 0.183639 -0.921480 2.900437 0
M  V30 14 C -0.344712 -1.044771 4.249783 0
M  V30 15 O 0.390986 -1.666472 5.075568 0
M  V30 16 C -1.604368 -0.551131 4.782604 0
M  V30 17 C -2.370814 0.487003 4.298737 0
M  V30 18 C -3.555687 0.906795 4.815754 0
M  V30 19 C -4.063606 0.272360 5.907032 0
M  V30 20 Cl -5.587290 0.766751 6.616855 0
M  V30 21 C -3.364655 -0.771990 6.453670 0
M  V30 22 C -3.920995 -1.464709 7.646993 0
M  V30 23 F -5.161329 -1.979639 7.266423 0
M  V30 24 F -3.072852 -2.414678 8.139586 0
M  V30 25 F -4.209779 -0.568305 8.670404 0
M  V30 26 C -2.166732 -1.168329 5.900818 0
M  V30 27 C 1.545526 -0.993356 2.685191 0
M  V30 28 C 2.095632 -0.866367 1.426035 0
M  V30 29 N 1.311575 -0.318979 -2.176998 0
M  V30 30 C 2.224879 -0.250957 -3.181403 0
M  V30 31 C 2.097131 -0.050754 -4.563787 0
M  V30 32 H 1.109403 0.580583 -7.648724 0
M  V30 33 H 1.144334 0.580195 -7.290173 0
M  V30 34 H 5.393828 -0.191967 -5.368019 0
M  V30 35 H 5.539555 -0.541868 -2.914184 0
M  V30 36 H 4.063532 -0.746765 -0.604752 0
M  V30 37 H -0.708446 -0.422816 -0.358752 0
M  V30 38 H -1.664710 -0.656914 1.850724 0
M  V30 39 H -2.000886 1.020462 3.445570 0
M  V30 40 H -4.094802 1.736541 4.370934 0
M  V30 41 H -1.659669 -2.003246 6.380178 0
M  V30 42 H 2.237646 -1.151996 3.493742 0
M  V30 43 H 3.182638 -0.929578 1.296214 0
M  V30 44 H 1.119222 0.087008 -5.020373 0
M  V30 END ATOM
M  V30 BEGIN BOND
M  V30 1 1 1 2
M  V30 2 2 2 3
M  V30 3 1 2 4
M  V30 4 2 4 5
M  V30 5 1 5 6
M  V30 6 2 6 7
M  V30 7 1 7 8
M  V30 8 1 8 9
M  V30 9 1 9 10
M  V30 10 2 10 11
M  V30 11 1 11 12
M  V30 12 2 12 13
M  V30 13 1 13 14
M  V30 14 2 14 15
M  V30 15 1 14 16
M  V30 16 2 16 17
M  V30 17 1 17 18
M  V30 18 2 18 19
M  V30 19 1 19 20
M  V30 20 1 19 21
M  V30 21 1 21 22
M  V30 22 1 22 23
M  V30 23 1 22 24
M  V30 24 1 22 25
M  V30 25 2 21 26
M  V30 26 1 13 27
M  V30 27 2 27 28
M  V30 28 2 9 29
M  V30 29 1 29 30
M  V30 30 2 30 31
M  V30 31 1 31 4
M  V30 32 1 30 7
M  V30 33 1 28 10
M  V30 34 1 26 16
M  V30 35 1 1 32
M  V30 36 1 1 33
M  V30 37 1 5 34
M  V30 38 1 6 35
M  V30 39 1 8 36
M  V30 40 1 11 37
M  V30 41 1 12 38
M  V30 42 1 17 39
M  V30 43 1 18 40
M  V30 44 1 26 41
M  V30 45 1 27 42
M  V30 46 1 28 43
M  V30 47 1 31 44
M  V30 END BOND
M  V30 END CTAB
M  END
>  <Dataset>  (211) 
ChEMBL_Kinases

>  <Ligand_Instance>  (211) 
nan

>  <PDB_ID>  (211) 
nan

>  <Standardized_SMILES>  (211) 
NC(=O)c1ccc2[nH]c(-c3ccc(C(=O)c4ccc(Cl)c(C(F)(F)F)c4)cc3)nc2c1

>  <Name>  (211) 
nan

>  <Pocket>  (211) 
nan

>  <ATP_Site>  (211) 
nan

>  <Peripheral>  (211) 
nan

>  <Num_H_Atoms_ProtBoundConf>  (211) 
nan

>  <Num_Resolved_Atoms>  (211) 
nan

>  <Num_Not_Resolved_Atoms>  (211) 
nan

$$$$
CHEMBL392525
     RDKit          3D

  0  0  0  0  0  0  0  0  0  0999 V3000
M  V30 BEGIN CTAB
M  V30 COUNTS 59 63 0 0 0
M  V30 BEGIN ATOM
M  V30 1 C 6.473471 -0.004933 3.748750 0
M  V30 2 N 5.046004 0.223591 3.672725 0
M  V30 3 C 4.323439 0.689083 4.832465 0
M  V30 4 C 4.340215 -0.003899 2.460991 0
M  V30 5 C 4.967758 -0.441214 1.314580 0
M  V30 6 C 4.269610 -0.661328 0.134501 0
M  V30 7 C 2.907582 -0.441564 0.088543 0
M  V30 8 C 2.179515 -0.669380 -1.147485 0
M  V30 9 N 0.866723 -0.492393 -1.307237 0
M  V30 10 C 0.453593 -0.773664 -2.549772 0
M  V30 11 C -0.711292 -0.780496 -3.278863 0
M  V30 12 N -1.908331 -0.407357 -2.662007 0
M  V30 13 C -1.777819 -0.056091 -1.268415 0
M  V30 14 C -3.055524 0.430846 -0.627187 0
M  V30 15 N -4.066500 -0.532318 -0.794802 0
M  V30 16 C -5.094248 -0.659728 0.144247 0
M  V30 17 C -4.625170 -1.224022 1.415371 0
M  V30 18 O -5.595541 -1.287163 2.246869 0
M  V30 19 N -3.372864 -1.676578 1.838442 0
M  V30 20 C -3.162631 -2.208737 3.211852 0
M  V30 21 N -2.141475 -2.643762 3.731453 0
M  V30 22 C -2.144688 -3.074661 4.974117 0
M  V30 23 C -3.415887 -3.015569 5.716141 0
M  V30 24 S -4.508385 -2.271629 4.357960 0
M  V30 25 C -4.212356 -1.088613 -2.082188 0
M  V30 26 C -3.292126 -0.254301 -3.000695 0
M  V30 27 C -0.597661 -1.168427 -4.590295 0
M  V30 28 Cl -1.964300 -1.239830 -5.662862 0
M  V30 29 C 0.557018 -1.545662 -5.234063 0
M  V30 30 N 1.703052 -1.533076 -4.496373 0
M  V30 31 C 1.634590 -1.155266 -3.193139 0
M  V30 32 N 2.645595 -1.078598 -2.315559 0
M  V30 33 C 2.235525 0.002510 1.232869 0
M  V30 34 C 2.988285 0.202827 2.376151 0
M  V30 35 H 6.790751 -0.233730 4.808143 0
M  V30 36 H 6.805852 -0.899657 3.174660 0
M  V30 37 H 7.033788 0.907642 3.459099 0
M  V30 38 H 3.727529 1.600207 4.585249 0
M  V30 39 H 3.658824 -0.083519 5.245688 0
M  V30 40 H 5.001937 1.010274 5.650907 0
M  V30 41 H 6.032570 -0.627494 1.300475 0
M  V30 42 H 4.821611 -1.007845 -0.741181 0
M  V30 43 H -1.334454 -0.892011 -0.680351 0
M  V30 44 H -1.065577 0.802760 -1.206298 0
M  V30 45 H -3.308019 1.468848 -0.967934 0
M  V30 46 H -2.834976 0.566284 0.456172 0
M  V30 47 H -5.896399 -1.298781 -0.314644 0
M  V30 48 H -5.614975 0.309503 0.390023 0
M  V30 49 H -2.617676 -1.637487 1.169388 0
M  V30 50 H -1.130033 -3.422009 5.245897 0
M  V30 51 H -3.099339 -3.484794 6.839565 0
M  V30 52 H -3.833557 -2.111786 -2.112457 0
M  V30 53 H -5.242562 -1.082515 -2.475569 0
M  V30 54 H -3.535607 -0.447137 -4.041576 0
M  V30 55 H -3.590103 0.806040 -2.819956 0
M  V30 56 H 0.672464 -1.851493 -6.252678 0
M  V30 57 H 3.646319 -1.299264 -2.496671 0
M  V30 58 H 1.163540 0.186843 1.237841 0
M  V30 59 H 2.471785 0.547590 3.268672 0
M  V30 END ATOM
M  V30 BEGIN BOND
M  V30 1 1 1 2
M  V30 2 1 2 3
M  V30 3 1 2 4
M  V30 4 2 4 5
M  V30 5 1 5 6
M  V30 6 2 6 7
M  V30 7 1 7 8
M  V30 8 2 8 9
M  V30 9 1 9 10
M  V30 10 2 10 11
M  V30 11 1 11 12
M  V30 12 1 12 13
M  V30 13 1 13 14
M  V30 14 1 14 15
M  V30 15 1 15 16
M  V30 16 1 16 17
M  V30 17 2 17 18
M  V30 18 1 17 19
M  V30 19 1 19 20
M  V30 20 2 20 21
M  V30 21 1 21 22
M  V30 22 2 22 23
M  V30 23 1 23 24
M  V30 24 1 15 25
M  V30 25 1 25 26
M  V30 26 1 11 27
M  V30 27 1 27 28
M  V30 28 2 27 29
M  V30 29 1 29 30
M  V30 30 2 30 31
M  V30 31 1 31 32
M  V30 32 1 7 33
M  V30 33 2 33 34
M  V30 34 1 34 4
M  V30 35 1 32 8
M  V30 36 1 31 10
M  V30 37 1 26 12
M  V30 38 1 24 20
M  V30 39 1 1 35
M  V30 40 1 1 36
M  V30 41 1 1 37
M  V30 42 1 3 38
M  V30 43 1 3 39
M  V30 44 1 3 40
M  V30 45 1 5 41
M  V30 46 1 6 42
M  V30 47 1 13 43
M  V30 48 1 13 44
M  V30 49 1 14 45
M  V30 50 1 14 46
M  V30 51 1 16 47
M  V30 52 1 16 48
M  V30 53 1 19 49
M  V30 54 1 22 50
M  V30 55 1 23 51
M  V30 56 1 25 52
M  V30 57 1 25 53
M  V30 58 1 26 54
M  V30 59 1 26 55
M  V30 60 1 29 56
M  V30 61 1 32 57
M  V30 62 1 33 58
M  V30 63 1 34 59
M  V30 END BOND
M  V30 END CTAB
M  END
>  <Dataset>  (212) 
ChEMBL_Kinases

>  <Ligand_Instance>  (212) 
nan

>  <PDB_ID>  (212) 
nan

>  <Standardized_SMILES>  (212) 
CN(C)c1ccc(-c2nc3c(N4CCN(CC(=O)Nc5nccs5)CC4)c(Cl)cnc3[nH]2)cc1

>  <Name>  (212) 
nan

>  <Pocket>  (212) 
nan

>  <ATP_Site>  (212) 
nan

>  <Peripheral>  (212) 
nan

>  <Num_H_Atoms_ProtBoundConf>  (212) 
nan

>  <Num_Resolved_Atoms>  (212) 
nan

>  <Num_Not_Resolved_Atoms>  (212) 
nan

$$$$
CHEMBL3926148
     RDKit          3D

  0  0  0  0  0  0  0  0  0  0999 V3000
M  V30 BEGIN CTAB
M  V30 COUNTS 32 35 0 0 0
M  V30 BEGIN ATOM
M  V30 1 N 3.927967 -4.501922 3.175021 0
M  V30 2 C 2.622556 -4.866392 2.696476 0
M  V30 3 O 2.476074 -6.102218 2.939285 0
M  V30 4 C 1.739578 -3.893334 2.069821 0
M  V30 5 C 2.218274 -2.588290 1.932387 0
M  V30 6 C 1.366869 -1.680115 1.344670 0
M  V30 7 C 0.100168 -1.956360 0.889323 0
M  V30 8 C -0.889611 -1.210010 0.292269 0
M  V30 9 C -0.915101 0.200488 -0.064453 0
M  V30 10 N -2.020012 0.709072 -0.574596 0
M  V30 11 C -1.977737 2.010650 -0.843749 0
M  V30 12 C -2.771546 3.016662 -1.349574 0
M  V30 13 C -2.313606 4.324292 -1.470928 0
M  V30 14 C -1.009096 4.565770 -1.054016 0
M  V30 15 C -0.165368 3.606381 -0.540446 0
M  V30 16 C -0.720571 2.337801 -0.462775 0
M  V30 17 N -0.066683 1.227757 0.015495 0
M  V30 18 N -1.861237 -2.120625 0.127356 0
M  V30 19 N -1.538254 -3.310332 0.564809 0
M  V30 20 C -0.289258 -3.270342 1.066248 0
M  V30 21 C 0.482990 -4.256569 1.641496 0
M  V30 22 H 4.361885 -3.818476 3.866939 0
M  V30 23 H 3.709099 -3.736516 3.876610 0
M  V30 24 H 3.207929 -2.345019 2.280323 0
M  V30 25 H 1.764500 -0.689543 1.256047 0
M  V30 26 H -3.767204 2.708992 -1.640181 0
M  V30 27 H -2.994918 5.036148 -1.871650 0
M  V30 28 H -0.746940 5.618550 -1.191740 0
M  V30 29 H 0.836718 3.878842 -0.239193 0
M  V30 30 H 0.896137 1.171942 0.371551 0
M  V30 31 H -2.152604 -4.143968 0.525623 0
M  V30 32 H 0.186887 -5.267612 1.778928 0
M  V30 END ATOM
M  V30 BEGIN BOND
M  V30 1 1 1 2
M  V30 2 2 2 3
M  V30 3 1 2 4
M  V30 4 2 4 5
M  V30 5 1 5 6
M  V30 6 2 6 7
M  V30 7 1 7 8
M  V30 8 1 8 9
M  V30 9 2 9 10
M  V30 10 1 10 11
M  V30 11 2 11 12
M  V30 12 1 12 13
M  V30 13 2 13 14
M  V30 14 1 14 15
M  V30 15 2 15 16
M  V30 16 1 16 17
M  V30 17 2 8 18
M  V30 18 1 18 19
M  V30 19 1 19 20
M  V30 20 2 20 21
M  V30 21 1 21 4
M  V30 22 1 20 7
M  V30 23 1 17 9
M  V30 24 1 16 11
M  V30 25 1 1 22
M  V30 26 1 1 23
M  V30 27 1 5 24
M  V30 28 1 6 25
M  V30 29 1 12 26
M  V30 30 1 13 27
M  V30 31 1 14 28
M  V30 32 1 15 29
M  V30 33 1 17 30
M  V30 34 1 19 31
M  V30 35 1 21 32
M  V30 END BOND
M  V30 END CTAB
M  END
>  <Dataset>  (213) 
ChEMBL_Kinases

>  <Ligand_Instance>  (213) 
nan

>  <PDB_ID>  (213) 
nan

>  <Standardized_SMILES>  (213) 
NC(=O)c1ccc2c(-c3nc4ccccc4[nH]3)n[nH]c2c1

>  <Name>  (213) 
nan

>  <Pocket>  (213) 
nan

>  <ATP_Site>  (213) 
nan

>  <Peripheral>  (213) 
nan

>  <Num_H_Atoms_ProtBoundConf>  (213) 
nan

>  <Num_Resolved_Atoms>  (213) 
nan

>  <Num_Not_Resolved_Atoms>  (213) 
nan

$$$$
CHEMBL392597
     RDKit          3D

  0  0  0  0  0  0  0  0  0  0999 V3000
M  V30 BEGIN CTAB
M  V30 COUNTS 43 47 0 0 0
M  V30 BEGIN ATOM
M  V30 1 C 2.329054 -4.624511 0.402490 0
M  V30 2 C 3.098489 -3.455330 -0.193534 0
M  V30 3 C 4.357176 -4.031044 -0.839077 0
M  V30 4 N 3.906986 -4.862243 -1.959519 0
M  V30 5 C 3.136644 -4.208336 -2.960856 0
M  V30 6 O 3.197176 -4.591495 -4.176833 0
M  V30 7 C 2.278723 -3.087780 -2.545510 0
M  V30 8 N 1.448827 -2.282407 -3.232514 0
M  V30 9 C 0.902572 -1.414306 -2.366309 0
M  V30 10 C -0.004494 -0.400623 -2.597315 0
M  V30 11 C -0.439686 0.383256 -1.548054 0
M  V30 12 C 0.030516 0.154999 -0.269666 0
M  V30 13 C -0.317324 0.880178 0.948677 0
M  V30 14 O 0.122725 0.656515 2.106492 0
M  V30 15 N -1.238824 1.939536 0.822801 0
M  V30 16 C -1.491127 2.583515 2.163897 0
M  V30 17 N -2.334080 2.236533 2.892650 0
M  V30 18 C -2.666165 2.697077 4.076585 0
M  V30 19 C -3.638562 2.345115 4.989993 0
M  V30 20 C -3.775688 2.996261 6.171507 0
M  V30 21 C -2.972238 4.061806 6.580546 0
M  V30 22 C -1.968965 4.492910 5.740205 0
M  V30 23 C -1.876656 3.779390 4.531498 0
M  V30 24 S -0.684102 3.987883 3.076458 0
M  V30 25 C 0.949684 -0.878410 -0.059610 0
M  V30 26 C 1.394050 -1.671511 -1.102331 0
M  V30 27 C 2.275016 -2.740870 -1.209260 0
M  V30 28 H 2.242355 -5.467873 -0.327498 0
M  V30 29 H 2.898991 -5.009327 1.271269 0
M  V30 30 H 1.317978 -4.352553 0.726903 0
M  V30 31 H 3.362934 -2.790236 0.654872 0
M  V30 32 H 4.981030 -3.187964 -1.162814 0
M  V30 33 H 4.847720 -4.666592 -0.073795 0
M  V30 34 H 4.107464 -5.892474 -2.078172 0
M  V30 35 H 1.254368 -2.319796 -4.274981 0
M  V30 36 H -0.436707 -0.136666 -3.561787 0
M  V30 37 H -1.137312 1.185276 -1.637987 0
M  V30 38 H -1.708697 2.280110 -0.016454 0
M  V30 39 H -4.319431 1.549078 4.803973 0
M  V30 40 H -4.553559 2.713444 6.900298 0
M  V30 41 H -3.020330 4.624764 7.497638 0
M  V30 42 H -1.243472 5.265451 5.824746 0
M  V30 43 H 1.361910 -1.120132 0.899171 0
M  V30 END ATOM
M  V30 BEGIN BOND
M  V30 1 1 1 2
M  V30 2 1 2 3
M  V30 3 1 3 4
M  V30 4 1 4 5
M  V30 5 2 5 6
M  V30 6 1 5 7
M  V30 7 1 7 8
M  V30 8 1 8 9
M  V30 9 2 9 10
M  V30 10 1 10 11
M  V30 11 2 11 12
M  V30 12 1 12 13
M  V30 13 2 13 14
M  V30 14 1 13 15
M  V30 15 1 15 16
M  V30 16 2 16 17
M  V30 17 1 17 18
M  V30 18 2 18 19
M  V30 19 1 19 20
M  V30 20 2 20 21
M  V30 21 1 21 22
M  V30 22 2 22 23
M  V30 23 1 23 24
M  V30 24 1 12 25
M  V30 25 2 25 26
M  V30 26 1 26 27
M  V30 27 1 27 2
M  V30 28 2 27 7
M  V30 29 1 26 9
M  V30 30 1 24 16
M  V30 31 1 23 18
M  V30 32 1 1 28
M  V30 33 1 1 29
M  V30 34 1 1 30
M  V30 35 1 2 31
M  V30 36 1 3 32
M  V30 37 1 3 33
M  V30 38 1 4 34
M  V30 39 1 8 35
M  V30 40 1 10 36
M  V30 41 1 11 37
M  V30 42 1 15 38
M  V30 43 1 19 39
M  V30 44 1 20 40
M  V30 45 1 21 41
M  V30 46 1 22 42
M  V30 47 1 25 43
M  V30 END BOND
M  V30 END CTAB
M  END
>  <Dataset>  (214) 
ChEMBL_Kinases

>  <Ligand_Instance>  (214) 
nan

>  <PDB_ID>  (214) 
nan

>  <Standardized_SMILES>  (214) 
CC1CNC(=O)c2[nH]c3ccc(C(=O)Nc4nc5ccccc5s4)cc3c21

>  <Name>  (214) 
nan

>  <Pocket>  (214) 
nan

>  <ATP_Site>  (214) 
nan

>  <Peripheral>  (214) 
nan

>  <Num_H_Atoms_ProtBoundConf>  (214) 
nan

>  <Num_Resolved_Atoms>  (214) 
nan

>  <Num_Not_Resolved_Atoms>  (214) 
nan

$$$$
CHEMBL3702180
     RDKit          3D

  0  0  0  0  0  0  0  0  0  0999 V3000
M  V30 BEGIN CTAB
M  V30 COUNTS 68 73 0 0 0
M  V30 BEGIN ATOM
M  V30 1 C 3.864762 -2.367969 6.310907 0
M  V30 2 N 4.548869 -1.802425 5.198415 0
M  V30 3 C 5.850846 -1.336660 5.629795 0
M  V30 4 C 4.677789 -2.691536 4.071646 0
M  V30 5 C 3.381724 -3.154335 3.511930 0
M  V30 6 C 3.318526 -2.788033 2.047545 0
M  V30 7 N 3.582773 -1.388401 1.803544 0
M  V30 8 C 2.722733 -0.466108 1.152048 0
M  V30 9 C 1.486892 -0.770786 0.631541 0
M  V30 10 C 0.740473 0.213817 0.020413 0
M  V30 11 C 1.162307 1.517823 -0.106687 0
M  V30 12 N 0.452763 2.580346 -0.719051 0
M  V30 13 C -0.827469 2.536508 -1.325520 0
M  V30 14 N -1.329691 3.664785 -1.854066 0
M  V30 15 C -2.524282 3.749272 -2.451848 0
M  V30 16 C -3.318521 2.629225 -2.550806 0
M  V30 17 C -4.557390 2.455852 -3.104692 0
M  V30 18 C -5.445244 3.295406 -3.746266 0
M  V30 19 C -6.643480 2.722200 -4.179196 0
M  V30 20 N -6.896991 1.402382 -3.966781 0
M  V30 21 C -6.025510 0.586468 -3.339080 0
M  V30 22 C -4.828650 1.116642 -2.895850 0
M  V30 23 N -3.774548 0.545129 -2.242278 0
M  V30 24 C -3.689079 -0.844285 -1.849330 0
M  V30 25 C -2.634471 -1.618026 -2.605310 0
M  V30 26 C -3.026058 -3.088445 -2.610666 0
M  V30 27 S -3.532358 -3.642031 -1.011654 0
M  V30 28 O -2.442880 -4.439264 -0.314388 0
M  V30 29 O -4.686208 -4.622547 -1.169583 0
M  V30 30 C -4.074162 -2.340884 0.042951 0
M  V30 31 C -3.413262 -1.032660 -0.375767 0
M  V30 32 C -2.801603 1.474139 -2.008368 0
M  V30 33 N -1.600532 1.451132 -1.423137 0
M  V30 34 N 2.376229 1.737369 0.424771 0
M  V30 35 N 3.105649 0.811929 1.012698 0
M  V30 36 C 4.867994 -0.936140 2.293218 0
M  V30 37 C 5.538497 -2.068480 2.994455 0
M  V30 38 H 4.293955 -1.947293 7.243586 0
M  V30 39 H 3.971617 -3.485055 6.408560 0
M  V30 40 H 2.781988 -2.078596 6.357280 0
M  V30 41 H 6.107379 -0.433444 5.039331 0
M  V30 42 H 5.807025 -1.126616 6.727036 0
M  V30 43 H 6.608305 -2.141113 5.515727 0
M  V30 44 H 5.236255 -3.589984 4.442101 0
M  V30 45 H 2.476785 -2.741268 3.999052 0
M  V30 46 H 3.248771 -4.263071 3.547706 0
M  V30 47 H 3.995728 -3.399774 1.414189 0
M  V30 48 H 2.297011 -3.051785 1.710535 0
M  V30 49 H 1.112381 -1.767431 0.703517 0
M  V30 50 H -0.203292 -0.069331 -0.364587 0
M  V30 51 H 0.949848 3.515072 -0.716700 0
M  V30 52 H -2.804818 4.729302 -2.835831 0
M  V30 53 H -5.218193 4.353618 -3.905405 0
M  V30 54 H -7.372880 3.362617 -4.693773 0
M  V30 55 H -6.272945 -0.472577 -3.189900 0
M  V30 56 H -4.655445 -1.346630 -2.080271 0
M  V30 57 H -1.626492 -1.528729 -2.172011 0
M  V30 58 H -2.586263 -1.284035 -3.666658 0
M  V30 59 H -3.899722 -3.222497 -3.311429 0
M  V30 60 H -2.215114 -3.724778 -3.012277 0
M  V30 61 H -5.179269 -2.238708 -0.050767 0
M  V30 62 H -3.826870 -2.592504 1.100648 0
M  V30 63 H -3.733399 -0.188803 0.240426 0
M  V30 64 H -2.310190 -1.204275 -0.229025 0
M  V30 65 H 5.507963 -0.678278 1.412267 0
M  V30 66 H 4.786684 -0.030525 2.929941 0
M  V30 67 H 5.778986 -2.853475 2.234396 0
M  V30 68 H 6.520548 -1.772308 3.441548 0
M  V30 END ATOM
M  V30 BEGIN BOND
M  V30 1 1 1 2
M  V30 2 1 2 3
M  V30 3 1 2 4
M  V30 4 1 4 5
M  V30 5 1 5 6
M  V30 6 1 6 7
M  V30 7 1 7 8
M  V30 8 2 8 9
M  V30 9 1 9 10
M  V30 10 2 10 11
M  V30 11 1 11 12
M  V30 12 1 12 13
M  V30 13 2 13 14
M  V30 14 1 14 15
M  V30 15 2 15 16
M  V30 16 1 16 17
M  V30 17 2 17 18
M  V30 18 1 18 19
M  V30 19 2 19 20
M  V30 20 1 20 21
M  V30 21 2 21 22
M  V30 22 1 22 23
M  V30 23 1 23 24
M  V30 24 1 24 25
M  V30 25 1 25 26
M  V30 26 1 26 27
M  V30 27 2 27 28
M  V30 28 2 27 29
M  V30 29 1 27 30
M  V30 30 1 30 31
M  V30 31 1 23 32
M  V30 32 2 32 33
M  V30 33 1 11 34
M  V30 34 2 34 35
M  V30 35 1 7 36
M  V30 36 1 36 37
M  V30 37 1 37 4
M  V30 38 1 35 8
M  V30 39 1 33 13
M  V30 40 1 32 16
M  V30 41 1 22 17
M  V30 42 1 31 24
M  V30 43 1 1 38
M  V30 44 1 1 39
M  V30 45 1 1 40
M  V30 46 1 3 41
M  V30 47 1 3 42
M  V30 48 1 3 43
M  V30 49 1 4 44
M  V30 50 1 5 45
M  V30 51 1 5 46
M  V30 52 1 6 47
M  V30 53 1 6 48
M  V30 54 1 9 49
M  V30 55 1 10 50
M  V30 56 1 12 51
M  V30 57 1 15 52
M  V30 58 1 18 53
M  V30 59 1 19 54
M  V30 60 1 21 55
M  V30 61 1 24 56
M  V30 62 1 25 57
M  V30 63 1 25 58
M  V30 64 1 26 59
M  V30 65 1 26 60
M  V30 66 1 30 61
M  V30 67 1 30 62
M  V30 68 1 31 63
M  V30 69 1 31 64
M  V30 70 1 36 65
M  V30 71 1 36 66
M  V30 72 1 37 67
M  V30 73 1 37 68
M  V30 END BOND
M  V30 END CTAB
M  END
>  <Dataset>  (215) 
ChEMBL_Kinases

>  <Ligand_Instance>  (215) 
nan

>  <PDB_ID>  (215) 
nan

>  <Standardized_SMILES>  (215) 
CN(C)C1CCN(c2ccc(Nc3ncc4c5ccncc5n(C5CCS(=O)(=O)CC5)c4n3)nn2)CC1

>  <Name>  (215) 
nan

>  <Pocket>  (215) 
nan

>  <ATP_Site>  (215) 
nan

>  <Peripheral>  (215) 
nan

>  <Num_H_Atoms_ProtBoundConf>  (215) 
nan

>  <Num_Resolved_Atoms>  (215) 
nan

>  <Num_Not_Resolved_Atoms>  (215) 
nan

$$$$
CHEMBL392596
     RDKit          3D

  0  0  0  0  0  0  0  0  0  0999 V3000
M  V30 BEGIN CTAB
M  V30 COUNTS 39 42 0 0 0
M  V30 BEGIN ATOM
M  V30 1 C 0.093156 -3.898556 -0.097347 0
M  V30 2 C 1.416575 -3.733178 0.645721 0
M  V30 3 C 2.244435 -4.950718 0.455111 0
M  V30 4 N 3.526802 -4.762038 -0.138609 0
M  V30 5 C 4.176839 -3.553192 -0.529397 0
M  V30 6 O 5.319751 -3.526324 -1.011319 0
M  V30 7 C 3.369987 -2.357125 -0.307973 0
M  V30 8 N 3.616019 -1.046689 -0.539242 0
M  V30 9 C 2.531958 -0.336641 -0.154036 0
M  V30 10 C 2.332955 1.033989 -0.204557 0
M  V30 11 C 1.127053 1.524330 0.253224 0
M  V30 12 C 0.137670 0.699225 0.748785 0
M  V30 13 C -1.158747 1.149447 1.248445 0
M  V30 14 O -2.040842 0.344866 1.697023 0
M  V30 15 N -1.519165 2.518186 1.265780 0
M  V30 16 C -2.750702 3.059259 1.729345 0
M  V30 17 C -2.687452 3.366254 3.079898 0
M  V30 18 N -3.764835 3.898204 3.726033 0
M  V30 19 C -4.891257 4.110604 2.990347 0
M  V30 20 C -4.957689 3.806391 1.646674 0
M  V30 21 N -3.871422 3.276345 1.021044 0
M  V30 22 C 0.379864 -0.665470 0.780612 0
M  V30 23 C 1.572746 -1.212526 0.333837 0
M  V30 24 C 2.107009 -2.481357 0.233815 0
M  V30 25 H -0.776437 -3.619173 0.529417 0
M  V30 26 H 0.057388 -3.223483 -0.991692 0
M  V30 27 H -0.030872 -4.949185 -0.456711 0
M  V30 28 H 1.132617 -3.578005 1.728133 0
M  V30 29 H 1.684883 -5.726535 -0.145028 0
M  V30 30 H 2.378091 -5.438413 1.461441 0
M  V30 31 H 4.042136 -5.670186 -0.297812 0
M  V30 32 H 4.479968 -0.652450 -0.940086 0
M  V30 33 H 3.076049 1.714254 -0.582678 0
M  V30 34 H 0.926639 2.587123 0.233386 0
M  V30 35 H -0.872308 3.258647 0.922133 0
M  V30 36 H -1.847131 3.235936 3.744188 0
M  V30 37 H -5.758588 4.527868 3.465449 0
M  V30 38 H -5.845510 3.967667 1.041642 0
M  V30 39 H -0.370669 -1.338156 1.161117 0
M  V30 END ATOM
M  V30 BEGIN BOND
M  V30 1 1 1 2
M  V30 2 1 2 3
M  V30 3 1 3 4
M  V30 4 1 4 5
M  V30 5 2 5 6
M  V30 6 1 5 7
M  V30 7 1 7 8
M  V30 8 1 8 9
M  V30 9 2 9 10
M  V30 10 1 10 11
M  V30 11 2 11 12
M  V30 12 1 12 13
M  V30 13 2 13 14
M  V30 14 1 13 15
M  V30 15 1 15 16
M  V30 16 2 16 17
M  V30 17 1 17 18
M  V30 18 2 18 19
M  V30 19 1 19 20
M  V30 20 2 20 21
M  V30 21 1 12 22
M  V30 22 2 22 23
M  V30 23 1 23 24
M  V30 24 1 24 2
M  V30 25 2 24 7
M  V30 26 1 23 9
M  V30 27 1 21 16
M  V30 28 1 1 25
M  V30 29 1 1 26
M  V30 30 1 1 27
M  V30 31 1 2 28
M  V30 32 1 3 29
M  V30 33 1 3 30
M  V30 34 1 4 31
M  V30 35 1 8 32
M  V30 36 1 10 33
M  V30 37 1 11 34
M  V30 38 1 15 35
M  V30 39 1 17 36
M  V30 40 1 19 37
M  V30 41 1 20 38
M  V30 42 1 22 39
M  V30 END BOND
M  V30 END CTAB
M  END
>  <Dataset>  (216) 
ChEMBL_Kinases

>  <Ligand_Instance>  (216) 
nan

>  <PDB_ID>  (216) 
nan

>  <Standardized_SMILES>  (216) 
CC1CNC(=O)c2[nH]c3ccc(C(=O)Nc4cnccn4)cc3c21

>  <Name>  (216) 
nan

>  <Pocket>  (216) 
nan

>  <ATP_Site>  (216) 
nan

>  <Peripheral>  (216) 
nan

>  <Num_H_Atoms_ProtBoundConf>  (216) 
nan

>  <Num_Resolved_Atoms>  (216) 
nan

>  <Num_Not_Resolved_Atoms>  (216) 
nan

$$$$
CHEMBL3702181
     RDKit          3D

  0  0  0  0  0  0  0  0  0  0999 V3000
M  V30 BEGIN CTAB
M  V30 COUNTS 69 74 0 0 0
M  V30 BEGIN ATOM
M  V30 1 C 4.486947 -2.585224 6.110979 0
M  V30 2 N 5.356376 -2.182258 5.039621 0
M  V30 3 C 6.306772 -3.204659 4.672959 0
M  V30 4 C 4.635295 -1.653660 3.910627 0
M  V30 5 C 3.667293 -2.595515 3.278305 0
M  V30 6 C 2.769258 -1.813373 2.352834 0
M  V30 7 N 3.411019 -0.643312 1.783201 0
M  V30 8 C 2.594385 0.107109 0.891437 0
M  V30 9 C 1.300052 -0.273104 0.602941 0
M  V30 10 C 0.574209 0.506331 -0.270214 0
M  V30 11 C 1.024235 1.647444 -0.892853 0
M  V30 12 N 0.294380 2.461545 -1.794316 0
M  V30 13 C -1.037754 2.284679 -2.251340 0
M  V30 14 N -1.547537 3.182273 -3.110300 0
M  V30 15 C -2.788198 3.108452 -3.601832 0
M  V30 16 C -3.625804 2.083440 -3.243157 0
M  V30 17 C -4.925081 1.765277 -3.587642 0
M  V30 18 C -5.848879 2.366561 -4.418625 0
M  V30 19 C -7.089233 1.744232 -4.522156 0
M  V30 20 N -7.337522 0.606121 -3.825297 0
M  V30 21 C -6.432315 0.043563 -3.029898 0
M  V30 22 C -5.178495 0.612223 -2.882482 0
M  V30 23 N -4.080175 0.259458 -2.151174 0
M  V30 24 C -3.943561 -0.887092 -1.280494 0
M  V30 25 C -2.879020 -1.824980 -1.759802 0
M  V30 26 C -3.049631 -3.228162 -1.234952 0
M  V30 27 S -3.629358 -3.266537 0.429540 0
M  V30 28 O -2.469927 -3.679782 1.312892 0
M  V30 29 O -4.697732 -4.312733 0.612420 0
M  V30 30 C -4.229970 -1.720357 0.991386 0
M  V30 31 C -3.700737 -0.548268 0.154695 0
M  V30 32 C -3.088714 1.173515 -2.363454 0
M  V30 33 N -1.842043 1.276990 -1.890314 0
M  V30 34 N 2.288788 1.968972 -0.575160 0
M  V30 35 C 3.046661 1.250334 0.268280 0
M  V30 36 C 4.772135 -0.155413 2.013748 0
M  V30 37 C 5.557955 -1.126446 2.866175 0
M  V30 38 H 5.134072 -2.943507 6.948590 0
M  V30 39 H 3.802057 -3.408577 5.872311 0
M  V30 40 H 3.989326 -1.665035 6.491477 0
M  V30 41 H 6.795721 -3.531804 5.615132 0
M  V30 42 H 5.811772 -4.052873 4.156196 0
M  V30 43 H 7.074017 -2.764386 4.035528 0
M  V30 44 H 4.050871 -0.779332 4.300833 0
M  V30 45 H 3.008824 -3.107891 4.017138 0
M  V30 46 H 4.145984 -3.384756 2.667819 0
M  V30 47 H 1.842138 -1.452003 2.881818 0
M  V30 48 H 2.435207 -2.426637 1.490722 0
M  V30 49 H 0.894733 -1.152224 1.057140 0
M  V30 50 H -0.417771 0.162821 -0.453632 0
M  V30 51 H 0.813971 3.296974 -2.163779 0
M  V30 52 H -3.121594 3.873678 -4.289755 0
M  V30 53 H -5.554234 3.276767 -4.933716 0
M  V30 54 H -7.817924 2.224660 -5.182040 0
M  V30 55 H -6.666938 -0.865680 -2.488956 0
M  V30 56 H -4.911195 -1.467118 -1.335446 0
M  V30 57 H -1.888422 -1.457476 -1.434776 0
M  V30 58 H -2.838545 -1.862221 -2.872621 0
M  V30 59 H -3.786762 -3.762299 -1.876980 0
M  V30 60 H -2.078576 -3.752925 -1.356467 0
M  V30 61 H -5.345940 -1.709429 1.051331 0
M  V30 62 H -3.877779 -1.517970 2.038614 0
M  V30 63 H -4.223774 0.364265 0.499817 0
M  V30 64 H -2.602184 -0.533622 0.331177 0
M  V30 65 H 4.050773 1.598891 0.453680 0
M  V30 66 H 5.271540 0.077444 1.051302 0
M  V30 67 H 4.715837 0.809587 2.576705 0
M  V30 68 H 6.412809 -0.657435 3.356353 0
M  V30 69 H 5.826753 -1.983305 2.192233 0
M  V30 END ATOM
M  V30 BEGIN BOND
M  V30 1 1 1 2
M  V30 2 1 2 3
M  V30 3 1 2 4
M  V30 4 1 4 5
M  V30 5 1 5 6
M  V30 6 1 6 7
M  V30 7 1 7 8
M  V30 8 2 8 9
M  V30 9 1 9 10
M  V30 10 2 10 11
M  V30 11 1 11 12
M  V30 12 1 12 13
M  V30 13 2 13 14
M  V30 14 1 14 15
M  V30 15 2 15 16
M  V30 16 1 16 17
M  V30 17 2 17 18
M  V30 18 1 18 19
M  V30 19 2 19 20
M  V30 20 1 20 21
M  V30 21 2 21 22
M  V30 22 1 22 23
M  V30 23 1 23 24
M  V30 24 1 24 25
M  V30 25 1 25 26
M  V30 26 1 26 27
M  V30 27 2 27 28
M  V30 28 2 27 29
M  V30 29 1 27 30
M  V30 30 1 30 31
M  V30 31 1 23 32
M  V30 32 2 32 33
M  V30 33 1 11 34
M  V30 34 2 34 35
M  V30 35 1 7 36
M  V30 36 1 36 37
M  V30 37 1 37 4
M  V30 38 1 35 8
M  V30 39 1 33 13
M  V30 40 1 32 16
M  V30 41 1 22 17
M  V30 42 1 31 24
M  V30 43 1 1 38
M  V30 44 1 1 39
M  V30 45 1 1 40
M  V30 46 1 3 41
M  V30 47 1 3 42
M  V30 48 1 3 43
M  V30 49 1 4 44
M  V30 50 1 5 45
M  V30 51 1 5 46
M  V30 52 1 6 47
M  V30 53 1 6 48
M  V30 54 1 9 49
M  V30 55 1 10 50
M  V30 56 1 12 51
M  V30 57 1 15 52
M  V30 58 1 18 53
M  V30 59 1 19 54
M  V30 60 1 21 55
M  V30 61 1 24 56
M  V30 62 1 25 57
M  V30 63 1 25 58
M  V30 64 1 26 59
M  V30 65 1 26 60
M  V30 66 1 30 61
M  V30 67 1 30 62
M  V30 68 1 31 63
M  V30 69 1 31 64
M  V30 70 1 35 65
M  V30 71 1 36 66
M  V30 72 1 36 67
M  V30 73 1 37 68
M  V30 74 1 37 69
M  V30 END BOND
M  V30 END CTAB
M  END
>  <Dataset>  (217) 
ChEMBL_Kinases

>  <Ligand_Instance>  (217) 
nan

>  <PDB_ID>  (217) 
nan

>  <Standardized_SMILES>  (217) 
CN(C)C1CCN(c2ccc(Nc3ncc4c5ccncc5n(C5CCS(=O)(=O)CC5)c4n3)nc2)CC1

>  <Name>  (217) 
nan

>  <Pocket>  (217) 
nan

>  <ATP_Site>  (217) 
nan

>  <Peripheral>  (217) 
nan

>  <Num_H_Atoms_ProtBoundConf>  (217) 
nan

>  <Num_Resolved_Atoms>  (217) 
nan

>  <Num_Not_Resolved_Atoms>  (217) 
nan

$$$$
CHEMBL3925782
     RDKit          3D

  0  0  0  0  0  0  0  0  0  0999 V3000
M  V30 BEGIN CTAB
M  V30 COUNTS 51 54 0 0 0
M  V30 BEGIN ATOM
M  V30 1 C -1.200888 0.364921 4.758172 0
M  V30 2 C 0.259666 -0.073491 4.916261 0
M  V30 3 N 0.527382 -1.258660 4.155394 0
M  V30 4 N 0.336186 -2.499364 4.656250 0
M  V30 5 C 0.632626 -3.418583 3.738910 0
M  V30 6 C 1.024404 -2.701777 2.628733 0
M  V30 7 C 1.415804 -3.226302 1.411980 0
M  V30 8 C 1.719849 -2.231887 0.534177 0
M  V30 9 N 1.678287 -0.918806 0.735151 0
M  V30 10 C 1.309189 -0.391167 1.886304 0
M  V30 11 C 0.968341 -1.340071 2.862640 0
M  V30 12 C 1.259391 1.038921 2.206083 0
M  V30 13 C 1.676424 1.883750 1.055394 0 CFG=2
M  V30 14 O 1.746648 3.239357 1.510241 0
M  V30 15 C 0.881107 1.939110 -0.186502 0
M  V30 16 O 0.599336 0.821580 -0.858356 0
M  V30 17 C 0.001306 1.037463 -2.082117 0
M  V30 18 C -0.375555 -0.207566 -2.837070 0 CFG=2
M  V30 19 C -1.420963 -0.926189 -2.054443 0
M  V30 20 C -2.149781 -0.501467 -0.940857 0
M  V30 21 C -3.075666 -1.357013 -0.386256 0
M  V30 22 C -3.334521 -2.630248 -0.868189 0
M  V30 23 Cl -4.546596 -3.604782 -0.052147 0
M  V30 24 C -2.616628 -3.027644 -1.951405 0
M  V30 25 F -2.882316 -4.280623 -2.410396 0
M  V30 26 C -1.681760 -2.195673 -2.531730 0
M  V30 27 N 0.801265 -1.090684 -3.080178 0
M  V30 28 C 1.652822 -1.875111 -2.179492 0
M  V30 29 O 0.731833 -1.225355 -1.672317 0
M  V30 30 N 2.064359 -2.364677 -0.876181 0
M  V30 31 H -1.526428 0.235071 3.717418 0
M  V30 32 H -1.168850 1.475160 4.954975 0
M  V30 33 H -1.872601 -0.085161 5.490327 0
M  V30 34 H 0.294323 -0.379828 6.017692 0
M  V30 35 H 0.971549 0.735994 4.876235 0
M  V30 36 H 0.583006 -4.509965 3.832944 0
M  V30 37 H 1.532544 -4.216543 1.026637 0
M  V30 38 H 0.263201 1.399213 2.523011 0
M  V30 39 H 2.067502 1.290750 2.986903 0
M  V30 40 H 2.755421 1.616526 0.849107 0
M  V30 41 H 2.496345 3.239050 2.155120 0
M  V30 42 H 1.474943 2.609317 -0.890187 0
M  V30 43 H -0.057905 2.558353 0.022323 0
M  V30 44 H 0.695172 1.624276 -2.741980 0
M  V30 45 H -0.888402 1.693038 -1.902414 0
M  V30 46 H -0.817951 -0.021352 -3.815653 0
M  V30 47 H -1.890445 0.495139 -0.627043 0
M  V30 48 H -3.584691 -0.923709 0.475655 0
M  V30 49 H -1.181383 -2.643826 -3.389777 0
M  V30 50 H 1.230127 -1.295890 -4.039835 0
M  V30 51 H 2.870674 -3.000281 -0.884853 0
M  V30 END ATOM
M  V30 BEGIN BOND
M  V30 1 1 1 2
M  V30 2 1 2 3
M  V30 3 1 3 4
M  V30 4 2 4 5
M  V30 5 1 5 6
M  V30 6 2 6 7
M  V30 7 1 7 8
M  V30 8 2 8 9
M  V30 9 1 9 10
M  V30 10 2 10 11
M  V30 11 1 10 12
M  V30 12 1 12 13
M  V30 13 1 13 14
M  V30 14 1 13 15
M  V30 15 1 15 16
M  V30 16 1 16 17
M  V30 17 1 17 18
M  V30 18 1 18 19
M  V30 19 2 19 20
M  V30 20 1 20 21
M  V30 21 2 21 22
M  V30 22 1 22 23
M  V30 23 1 22 24
M  V30 24 1 24 25
M  V30 25 2 24 26
M  V30 26 1 18 27
M  V30 27 1 27 28
M  V30 28 2 28 29
M  V30 29 1 28 30
M  V30 30 1 11 3
M  V30 31 1 26 19
M  V30 32 1 11 6
M  V30 33 1 30 8
M  V30 34 1 1 31
M  V30 35 1 1 32
M  V30 36 1 1 33
M  V30 37 1 2 34
M  V30 38 1 2 35
M  V30 39 1 5 36
M  V30 40 1 7 37
M  V30 41 1 12 38
M  V30 42 1 12 39
M  V30 43 1 13 40 CFG=3
M  V30 44 1 14 41
M  V30 45 1 15 42
M  V30 46 1 15 43
M  V30 47 1 17 44
M  V30 48 1 17 45
M  V30 49 1 18 46 CFG=3
M  V30 50 1 20 47
M  V30 51 1 21 48
M  V30 52 1 26 49
M  V30 53 1 27 50
M  V30 54 1 30 51
M  V30 END BOND
M  V30 END CTAB
M  END
>  <Dataset>  (218) 
ChEMBL_Kinases

>  <Ligand_Instance>  (218) 
nan

>  <PDB_ID>  (218) 
nan

>  <Standardized_SMILES>  (218) 
CCn1ncc2cc3nc(c21)C[C@H](O)COC[C@H](c1ccc(Cl)c(F)c1)NC(=O)N3

>  <Name>  (218) 
nan

>  <Pocket>  (218) 
nan

>  <ATP_Site>  (218) 
nan

>  <Peripheral>  (218) 
nan

>  <Num_H_Atoms_ProtBoundConf>  (218) 
nan

>  <Num_Resolved_Atoms>  (218) 
nan

>  <Num_Not_Resolved_Atoms>  (218) 
nan

$$$$
CHEMBL3925728
     RDKit          3D

  0  0  0  0  0  0  0  0  0  0999 V3000
M  V30 BEGIN CTAB
M  V30 COUNTS 41 43 0 0 0
M  V30 BEGIN ATOM
M  V30 1 C -0.392792 -4.914334 2.914710 0
M  V30 2 O -0.212887 -4.664366 1.532829 0
M  V30 3 C 0.092956 -3.374322 1.059593 0
M  V30 4 C 0.208774 -2.373734 1.998075 0
M  V30 5 C 0.508712 -1.117025 1.516023 0
M  V30 6 N 0.648172 -0.052563 2.448707 0
M  V30 7 C 0.849715 1.350297 2.336548 0
M  V30 8 C 2.007257 1.923386 2.876468 0
M  V30 9 C 2.347750 3.258897 2.852992 0
M  V30 10 N 1.444167 4.041879 2.239501 0
M  V30 11 C 0.306715 3.593972 1.691403 0
M  V30 12 C -0.578401 4.457711 1.079970 0
M  V30 13 C -1.741266 3.959205 0.530745 0
M  V30 14 Cl -2.771062 5.164547 -0.211772 0
M  V30 15 C -2.047504 2.614562 0.574966 0
M  V30 16 C -1.154227 1.762704 1.188781 0
M  V30 17 C -0.000565 2.252076 1.734030 0
M  V30 18 C 0.670090 -0.944753 0.156837 0
M  V30 19 C 0.548390 -1.965613 -0.763049 0
M  V30 20 O 0.712719 -1.781748 -2.128989 0
M  V30 21 C 1.019669 -0.472518 -2.573002 0
M  V30 22 C 0.249885 -3.225038 -0.302159 0
M  V30 23 O 0.104447 -4.326660 -1.142399 0
M  V30 24 C 1.193004 -5.162050 -1.490185 0
M  V30 25 H -1.050537 -4.200279 3.418160 0
M  V30 26 H -0.851376 -5.943998 2.978223 0
M  V30 27 H 0.621633 -4.995248 3.365899 0
M  V30 28 H 0.076882 -2.539276 3.053820 0
M  V30 29 H 0.608296 -0.231339 3.465766 0
M  V30 30 H 2.703212 1.225380 3.363805 0
M  V30 31 H 3.274706 3.580404 3.306492 0
M  V30 32 H -0.304336 5.513387 1.063434 0
M  V30 33 H -2.958332 2.287669 0.135190 0
M  V30 34 H -1.400249 0.727656 1.222735 0
M  V30 35 H 0.908706 0.062511 -0.209780 0
M  V30 36 H 1.906348 -0.099431 -1.991409 0
M  V30 37 H 0.173744 0.190305 -2.311204 0
M  V30 38 H 1.279348 -0.453548 -3.650813 0
M  V30 39 H 1.106432 -5.554529 -2.520295 0
M  V30 40 H 2.162374 -4.624671 -1.430296 0
M  V30 41 H 1.282267 -6.045555 -0.825268 0
M  V30 END ATOM
M  V30 BEGIN BOND
M  V30 1 1 1 2
M  V30 2 1 2 3
M  V30 3 2 3 4
M  V30 4 1 4 5
M  V30 5 1 5 6
M  V30 6 1 6 7
M  V30 7 2 7 8
M  V30 8 1 8 9
M  V30 9 2 9 10
M  V30 10 1 10 11
M  V30 11 2 11 12
M  V30 12 1 12 13
M  V30 13 1 13 14
M  V30 14 2 13 15
M  V30 15 1 15 16
M  V30 16 2 16 17
M  V30 17 2 5 18
M  V30 18 1 18 19
M  V30 19 1 19 20
M  V30 20 1 20 21
M  V30 21 2 19 22
M  V30 22 1 22 23
M  V30 23 1 23 24
M  V30 24 1 22 3
M  V30 25 1 17 7
M  V30 26 1 17 11
M  V30 27 1 1 25
M  V30 28 1 1 26
M  V30 29 1 1 27
M  V30 30 1 4 28
M  V30 31 1 6 29
M  V30 32 1 8 30
M  V30 33 1 9 31
M  V30 34 1 12 32
M  V30 35 1 15 33
M  V30 36 1 16 34
M  V30 37 1 18 35
M  V30 38 1 21 36
M  V30 39 1 21 37
M  V30 40 1 21 38
M  V30 41 1 24 39
M  V30 42 1 24 40
M  V30 43 1 24 41
M  V30 END BOND
M  V30 END CTAB
M  END
>  <Dataset>  (219) 
ChEMBL_Kinases

>  <Ligand_Instance>  (219) 
nan

>  <PDB_ID>  (219) 
nan

>  <Standardized_SMILES>  (219) 
COc1cc(Nc2ccnc3cc(Cl)ccc23)cc(OC)c1OC

>  <Name>  (219) 
nan

>  <Pocket>  (219) 
nan

>  <ATP_Site>  (219) 
nan

>  <Peripheral>  (219) 
nan

>  <Num_H_Atoms_ProtBoundConf>  (219) 
nan

>  <Num_Resolved_Atoms>  (219) 
nan

>  <Num_Not_Resolved_Atoms>  (219) 
nan

$$$$
CHEMBL3925645
     RDKit          3D

  0  0  0  0  0  0  0  0  0  0999 V3000
M  V30 BEGIN CTAB
M  V30 COUNTS 41 44 0 0 0
M  V30 BEGIN ATOM
M  V30 1 C 0.733754 -3.667992 0.338524 0
M  V30 2 C 0.857811 -2.660401 -0.766037 0
M  V30 3 C 0.206973 -3.266376 -2.009552 0
M  V30 4 F 0.885332 -4.430488 -2.310840 0
M  V30 5 N 2.251603 -2.370648 -1.012824 0
M  V30 6 C 3.064423 -3.437684 -1.182300 0
M  V30 7 N 4.316919 -2.956425 -1.399499 0
M  V30 8 N 4.289838 -1.622069 -1.366999 0
M  V30 9 C 3.019303 -1.248035 -1.128843 0
M  V30 10 C 2.238702 -0.010544 -0.961686 0
M  V30 11 C 2.221079 0.984050 -1.916307 0
M  V30 12 C 1.481535 2.129058 -1.730783 0
M  V30 13 C 0.738297 2.309657 -0.582497 0
M  V30 14 C 0.764440 1.308214 0.363694 0
M  V30 15 N 0.083641 1.251830 1.635447 0
M  V30 16 C -1.236312 0.652609 1.582662 0
M  V30 17 C -1.734578 0.702920 2.984099 0
M  V30 18 C -2.914331 0.282012 3.526301 0
M  V30 19 C -3.107078 0.459485 4.880757 0
M  V30 20 C -2.127894 1.052128 5.681456 0
M  V30 21 C -0.927676 1.482263 5.139753 0
M  V30 22 C -0.768486 1.287889 3.775378 0
M  V30 23 C 0.387996 1.646614 2.966844 0
M  V30 24 O 1.494639 2.186333 3.203072 0
M  V30 25 N 1.495305 0.196572 0.160588 0
M  V30 26 H -0.344760 -3.941178 0.393318 0
M  V30 27 H 1.283265 -4.573276 0.032147 0
M  V30 28 H 1.115685 -3.273559 1.297975 0
M  V30 29 H 0.281656 -1.725993 -0.549086 0
M  V30 30 H 0.158663 -2.553447 -2.839366 0
M  V30 31 H -0.841337 -3.534358 -1.726969 0
M  V30 32 H 2.959314 -4.514644 -1.185513 0
M  V30 33 H 2.803448 0.864558 -2.837885 0
M  V30 34 H 1.434521 2.936740 -2.447593 0
M  V30 35 H 0.122635 3.138919 -0.305176 0
M  V30 36 H -1.083296 -0.418665 1.268952 0
M  V30 37 H -1.928449 1.144713 0.894042 0
M  V30 38 H -3.663059 -0.175532 2.891441 0
M  V30 39 H -4.046113 0.125841 5.319416 0
M  V30 40 H -2.262259 1.198168 6.740385 0
M  V30 41 H -0.152314 1.944691 5.738583 0
M  V30 END ATOM
M  V30 BEGIN BOND
M  V30 1 1 1 2
M  V30 2 1 2 3
M  V30 3 1 3 4
M  V30 4 1 2 5
M  V30 5 1 5 6
M  V30 6 2 6 7
M  V30 7 1 7 8
M  V30 8 2 8 9
M  V30 9 1 9 10
M  V30 10 2 10 11
M  V30 11 1 11 12
M  V30 12 2 12 13
M  V30 13 1 13 14
M  V30 14 1 14 15
M  V30 15 1 15 16
M  V30 16 1 16 17
M  V30 17 2 17 18
M  V30 18 1 18 19
M  V30 19 2 19 20
M  V30 20 1 20 21
M  V30 21 2 21 22
M  V30 22 1 22 23
M  V30 23 2 23 24
M  V30 24 2 14 25
M  V30 25 1 9 5
M  V30 26 1 25 10
M  V30 27 1 23 15
M  V30 28 1 22 17
M  V30 29 1 1 26
M  V30 30 1 1 27
M  V30 31 1 1 28
M  V30 32 1 2 29
M  V30 33 1 3 30
M  V30 34 1 3 31
M  V30 35 1 6 32
M  V30 36 1 11 33
M  V30 37 1 12 34
M  V30 38 1 13 35
M  V30 39 1 16 36
M  V30 40 1 16 37
M  V30 41 1 18 38
M  V30 42 1 19 39
M  V30 43 1 20 40
M  V30 44 1 21 41
M  V30 END BOND
M  V30 END CTAB
M  END
>  <Dataset>  (220) 
ChEMBL_Kinases

>  <Ligand_Instance>  (220) 
nan

>  <PDB_ID>  (220) 
nan

>  <Standardized_SMILES>  (220) 
CC(CF)n1cnnc1-c1cccc(N2Cc3ccccc3C2=O)n1

>  <Name>  (220) 
nan

>  <Pocket>  (220) 
nan

>  <ATP_Site>  (220) 
nan

>  <Peripheral>  (220) 
nan

>  <Num_H_Atoms_ProtBoundConf>  (220) 
nan

>  <Num_Resolved_Atoms>  (220) 
nan

>  <Num_Not_Resolved_Atoms>  (220) 
nan

$$$$
CHEMBL392555
     RDKit          3D

  0  0  0  0  0  0  0  0  0  0999 V3000
M  V30 BEGIN CTAB
M  V30 COUNTS 42 46 0 0 0
M  V30 BEGIN ATOM
M  V30 1 O 5.797194 -6.906816 0.142706 0
M  V30 2 C 4.886019 -5.881510 -0.010415 0
M  V30 3 C 4.557373 -5.189049 1.134258 0
M  V30 4 C 3.655092 -4.150961 1.067811 0
M  V30 5 C 3.050953 -3.767327 -0.134957 0
M  V30 6 C 2.094419 -2.682512 -0.270753 0
M  V30 7 C 1.092478 -2.715881 -1.220031 0
M  V30 8 C 0.210350 -1.657347 -1.306268 0
M  V30 9 C 0.334455 -0.571596 -0.443343 0
M  V30 10 C -0.525839 0.610608 -0.423489 0
M  V30 11 N -0.943642 1.314593 -1.481842 0
M  V30 12 N -1.713520 2.329786 -1.118474 0
M  V30 13 C -1.800473 2.285700 0.225928 0
M  V30 14 C -1.062469 1.209098 0.725901 0
M  V30 15 C -1.132178 1.125922 2.190579 0
M  V30 16 C -2.004433 2.284049 2.552021 0
M  V30 17 C -2.379078 2.645419 3.828767 0
M  V30 18 C -3.193059 3.748116 3.981854 0
M  V30 19 C -3.579481 4.418530 2.841910 0
M  V30 20 C -3.209730 4.063732 1.567160 0
M  V30 21 O -3.568414 4.699058 0.400290 0
M  V30 22 C -2.384268 2.947850 1.391836 0
M  V30 23 C 1.345987 -0.529045 0.521196 0
M  V30 24 C 2.227525 -1.611698 0.590124 0
M  V30 25 C 3.380064 -4.463018 -1.289790 0
M  V30 26 C 4.285437 -5.495940 -1.190231 0
M  V30 27 H 5.788586 -7.544082 0.936170 0
M  V30 28 H 4.920307 -5.342116 2.145360 0
M  V30 29 H 3.311886 -3.525420 1.900500 0
M  V30 30 H 0.979464 -3.544113 -1.895067 0
M  V30 31 H -0.609879 -1.594845 -2.021519 0
M  V30 32 H -2.162648 3.025768 -1.756589 0
M  V30 33 H -1.602947 0.179817 2.546789 0
M  V30 34 H -0.163411 1.182789 2.703959 0
M  V30 35 H -2.065623 2.107276 4.707198 0
M  V30 36 H -3.518978 4.078806 4.958702 0
M  V30 37 H -4.228003 5.300714 2.932881 0
M  V30 38 H -4.278378 5.443664 0.367199 0
M  V30 39 H 1.488129 0.286229 1.214139 0
M  V30 40 H 3.018118 -1.564252 1.353173 0
M  V30 41 H 2.987298 -4.267823 -2.273144 0
M  V30 42 H 4.580208 -6.074719 -2.060786 0
M  V30 END ATOM
M  V30 BEGIN BOND
M  V30 1 1 1 2
M  V30 2 2 2 3
M  V30 3 1 3 4
M  V30 4 2 4 5
M  V30 5 1 5 6
M  V30 6 2 6 7
M  V30 7 1 7 8
M  V30 8 2 8 9
M  V30 9 1 9 10
M  V30 10 2 10 11
M  V30 11 1 11 12
M  V30 12 1 12 13
M  V30 13 2 13 14
M  V30 14 1 14 15
M  V30 15 1 15 16
M  V30 16 2 16 17
M  V30 17 1 17 18
M  V30 18 2 18 19
M  V30 19 1 19 20
M  V30 20 1 20 21
M  V30 21 2 20 22
M  V30 22 1 9 23
M  V30 23 2 23 24
M  V30 24 1 5 25
M  V30 25 2 25 26
M  V30 26 1 26 2
M  V30 27 1 24 6
M  V30 28 1 14 10
M  V30 29 1 22 16
M  V30 30 1 22 13
M  V30 31 1 1 27
M  V30 32 1 3 28
M  V30 33 1 4 29
M  V30 34 1 7 30
M  V30 35 1 8 31
M  V30 36 1 12 32
M  V30 37 1 15 33
M  V30 38 1 15 34
M  V30 39 1 17 35
M  V30 40 1 18 36
M  V30 41 1 19 37
M  V30 42 1 21 38
M  V30 43 1 23 39
M  V30 44 1 24 40
M  V30 45 1 25 41
M  V30 46 1 26 42
M  V30 END BOND
M  V30 END CTAB
M  END
>  <Dataset>  (221) 
ChEMBL_Kinases

>  <Ligand_Instance>  (221) 
nan

>  <PDB_ID>  (221) 
nan

>  <Standardized_SMILES>  (221) 
Oc1ccc(-c2ccc(-c3n[nH]c4c3Cc3cccc(O)c3-4)cc2)cc1

>  <Name>  (221) 
nan

>  <Pocket>  (221) 
nan

>  <ATP_Site>  (221) 
nan

>  <Peripheral>  (221) 
nan

>  <Num_H_Atoms_ProtBoundConf>  (221) 
nan

>  <Num_Resolved_Atoms>  (221) 
nan

>  <Num_Not_Resolved_Atoms>  (221) 
nan

$$$$
CHEMBL3925420
     RDKit          3D

  0  0  0  0  0  0  0  0  0  0999 V3000
M  V30 BEGIN CTAB
M  V30 COUNTS 132 135 0 0 0
M  V30 BEGIN ATOM
M  V30 1 C -1.626608 2.011089 -0.401840 0
M  V30 2 C -0.974808 1.646366 -1.676679 0
M  V30 3 O -1.001290 0.402683 -1.977641 0
M  V30 4 N -0.337109 2.553735 -2.573357 0
M  V30 5 C -0.252109 3.995822 -2.340818 0
M  V30 6 C -0.035452 4.538884 -3.752699 0
M  V30 7 C 0.903952 3.490474 -4.305945 0
M  V30 8 C 0.300996 2.191536 -3.819267 0 CFG=1
M  V30 9 C 1.401115 1.213753 -3.545429 0
M  V30 10 O 1.864683 0.623606 -4.550507 0
M  V30 11 N 1.975383 0.889366 -2.256764 0
M  V30 12 C 3.028687 -0.075786 -2.164682 0 CFG=1
M  V30 13 C 4.402290 0.578140 -2.168119 0
M  V30 14 C 4.663686 1.530357 -1.068029 0
M  V30 15 C 4.589192 0.954675 0.324123 0
M  V30 16 C 6.113348 2.012329 -1.231567 0
M  V30 17 C 2.909482 -1.057167 -1.080673 0
M  V30 18 O 3.847609 -1.886824 -1.059292 0
M  V30 19 N 1.795112 -0.981886 -0.192529 0
M  V30 20 C 1.523803 -1.886567 0.960579 0 CFG=1
M  V30 21 C 1.627552 -1.159215 2.233537 0
M  V30 22 C 1.310480 -1.902553 3.456955 0
M  V30 23 C 2.196949 -2.758793 4.057410 0
M  V30 24 N 1.576040 -3.300006 5.119689 0
M  V30 25 C 0.338149 -2.791354 5.173621 0
M  V30 26 N 0.127606 -1.908200 4.150508 0
M  V30 27 C -1.129177 -1.152609 3.953583 0
M  V30 28 C -2.229789 -1.842073 3.281288 0
M  V30 29 C -3.465203 -1.133339 2.907555 0
M  V30 30 C -4.286763 -0.364970 3.849160 0
M  V30 31 C -3.672857 0.863980 4.394262 0
M  V30 32 O -4.518801 1.619568 5.290982 0
M  V30 33 N -4.148617 2.773934 5.721195 0
M  V30 34 C -3.867802 3.840468 6.138508 0
M  V30 35 C -2.544278 4.370714 5.965267 0
M  V30 36 C -1.601855 4.685529 6.911438 0
M  V30 37 N -0.426287 5.147972 6.502729 0
M  V30 38 C -0.110815 5.316013 5.373850 0
M  V30 39 N 0.968303 5.735762 4.509132 0
M  V30 40 C 1.262582 7.113574 4.108568 0
M  V30 41 C 1.695485 4.543437 4.112835 0
M  V30 42 C 2.817721 4.866444 3.211664 0
M  V30 43 C 2.609865 4.901417 1.841290 0
M  V30 44 C 3.641944 5.195848 0.959694 0
M  V30 45 C 4.875902 5.447067 1.525115 0
M  V30 46 C 5.117640 5.419245 2.895607 0
M  V30 47 C 4.068876 5.124512 3.741099 0
M  V30 48 S -1.670620 4.769711 4.432835 0
M  V30 49 C 0.410402 -2.741327 0.661075 0
M  V30 50 O 0.358768 -3.584637 1.631272 0
M  V30 51 N -0.558515 -2.865437 -0.363285 0
M  V30 52 C -1.544152 -3.938346 -0.273274 0 CFG=1
M  V30 53 C -2.938008 -3.441227 -0.554375 0
M  V30 54 O -2.931315 -2.926711 -1.863056 0
M  V30 55 C -1.179483 -4.919352 -1.375962 0
M  V30 56 O -0.301124 -3.998658 -1.537782 0
M  V30 57 N -1.451960 -6.130140 -2.027227 0
M  V30 58 C -0.591845 -6.462926 -3.121284 0 CFG=2
M  V30 59 C -1.311223 -6.839429 -4.345354 0
M  V30 60 N -2.678094 -6.968784 -4.776780 0
M  V30 61 O -0.488060 -7.131299 -5.277616 0
M  V30 62 C 0.332355 -7.599233 -2.675688 0 CFG=1
M  V30 63 C 1.336840 -7.950553 -3.755509 0
M  V30 64 O 1.093796 -7.198151 -1.569663 0
M  V30 65 P 0.849976 -8.257080 -0.265648 0
M  V30 66 O -0.594405 -8.398014 0.092537 0
M  V30 67 O 1.696803 -7.706302 1.088751 0
M  V30 68 O 1.424388 -9.783350 -0.776436 0
M  V30 69 H -2.540718 1.380282 -0.286165 0
M  V30 70 H -1.982480 3.071816 -0.425028 0
M  V30 71 H -0.943577 1.910024 0.455013 0
M  V30 72 H -1.226602 4.316611 -1.937644 0
M  V30 73 H 0.620768 4.238862 -1.728278 0
M  V30 74 H -0.993939 4.464935 -4.287804 0
M  V30 75 H 0.401081 5.549930 -3.756556 0
M  V30 76 H 1.019680 3.539148 -5.409415 0
M  V30 77 H 1.900643 3.551158 -3.787213 0
M  V30 78 H -0.409103 1.735938 -4.523369 0
M  V30 79 H 1.540502 1.422689 -1.470693 0
M  V30 80 H 3.016212 -0.627786 -3.154834 0
M  V30 81 H 4.546203 1.139542 -3.132907 0
M  V30 82 H 5.164312 -0.221971 -2.185138 0
M  V30 83 H 4.066671 2.464173 -1.153123 0
M  V30 84 H 3.588943 0.928009 0.749978 0
M  V30 85 H 5.179393 1.646268 1.002897 0
M  V30 86 H 5.164752 0.005756 0.372902 0
M  V30 87 H 6.445392 1.962976 -2.282513 0
M  V30 88 H 6.761778 1.300800 -0.681814 0
M  V30 89 H 6.222588 3.070234 -0.885404 0
M  V30 90 H 1.077153 -0.230779 -0.331795 0
M  V30 91 H 2.441051 -2.619175 0.961302 0
M  V30 92 H 0.926689 -0.256911 2.137447 0
M  V30 93 H 2.627382 -0.638624 2.356030 0
M  V30 94 H 3.210490 -2.980235 3.758404 0
M  V30 95 H -0.419540 -3.022609 5.911145 0
M  V30 96 H -1.507334 -0.982989 5.043187 0
M  V30 97 H -0.909351 -0.138801 3.592168 0
M  V30 98 H -2.574883 -2.751360 3.890839 0
M  V30 99 H -1.812903 -2.352795 2.356530 0
M  V30 100 H -4.108975 -1.867213 2.300439 0
M  V30 101 H -3.166721 -0.408168 2.069564 0
M  V30 102 H -4.766674 -0.998178 4.646487 0
M  V30 103 H -5.199909 -0.016233 3.259290 0
M  V30 104 H -2.721997 0.713929 4.886767 0
M  V30 105 H -3.450132 1.623977 3.570765 0
M  V30 106 H -4.857836 3.916347 6.488152 0
M  V30 107 H -1.833497 4.554107 7.964070 0
M  V30 108 H 0.637064 7.337259 3.222570 0
M  V30 109 H 1.062120 7.822059 4.911159 0
M  V30 110 H 2.316854 7.140872 3.785009 0
M  V30 111 H 2.020249 3.988173 5.025157 0
M  V30 112 H 0.951314 3.881815 3.579194 0
M  V30 113 H 1.626419 4.696319 1.457752 0
M  V30 114 H 3.470602 5.221325 -0.092591 0
M  V30 115 H 5.671709 5.678450 0.799348 0
M  V30 116 H 6.133818 5.632094 3.272590 0
M  V30 117 H 4.217398 5.094710 4.815921 0
M  V30 118 H -0.402859 -2.119047 -1.065305 0
M  V30 119 H -1.453167 -4.470969 0.686297 0
M  V30 120 H -3.691145 -4.252091 -0.473899 0
M  V30 121 H -3.217551 -2.599554 0.135956 0
M  V30 122 H -3.775083 -3.137826 -2.329467 0
M  V30 123 H -2.262256 -6.416648 -1.451685 0
M  V30 124 H 0.109529 -5.621488 -3.331255 0
M  V30 125 H -2.802564 -7.953513 -4.505239 0
M  V30 126 H -3.120693 -7.900038 -4.631112 0
M  V30 127 H -0.281200 -8.492303 -2.494516 0
M  V30 128 H 2.273871 -8.294011 -3.275982 0
M  V30 129 H 1.002523 -8.759096 -4.428452 0
M  V30 130 H 1.619204 -7.008247 -4.314904 0
M  V30 131 H 2.376426 -7.023779 0.837014 0
M  V30 132 H 1.968190 -10.172889 -0.065891 0
M  V30 END ATOM
M  V30 BEGIN BOND
M  V30 1 1 1 2
M  V30 2 2 2 3
M  V30 3 1 2 4
M  V30 4 1 4 5
M  V30 5 1 5 6
M  V30 6 1 6 7
M  V30 7 1 7 8
M  V30 8 1 8 9
M  V30 9 2 9 10
M  V30 10 1 9 11
M  V30 11 1 11 12
M  V30 12 1 12 13
M  V30 13 1 13 14
M  V30 14 1 14 15
M  V30 15 1 14 16
M  V30 16 1 12 17
M  V30 17 2 17 18
M  V30 18 1 17 19
M  V30 19 1 19 20
M  V30 20 1 20 21
M  V30 21 1 21 22
M  V30 22 2 22 23
M  V30 23 1 23 24
M  V30 24 2 24 25
M  V30 25 1 25 26
M  V30 26 1 26 27
M  V30 27 1 27 28
M  V30 28 1 28 29
M  V30 29 1 29 30
M  V30 30 1 30 31
M  V30 31 1 31 32
M  V30 32 1 32 33
M  V30 33 2 33 34
M  V30 34 1 34 35
M  V30 35 2 35 36
M  V30 36 1 36 37
M  V30 37 2 37 38
M  V30 38 1 38 39
M  V30 39 1 39 40
M  V30 40 1 39 41
M  V30 41 1 41 42
M  V30 42 2 42 43
M  V30 43 1 43 44
M  V30 44 2 44 45
M  V30 45 1 45 46
M  V30 46 2 46 47
M  V30 47 1 38 48
M  V30 48 1 20 49
M  V30 49 2 49 50
M  V30 50 1 49 51
M  V30 51 1 51 52
M  V30 52 1 52 53
M  V30 53 1 53 54
M  V30 54 1 52 55
M  V30 55 2 55 56
M  V30 56 1 55 57
M  V30 57 1 57 58
M  V30 58 1 58 59
M  V30 59 1 59 60
M  V30 60 2 59 61
M  V30 61 1 58 62
M  V30 62 1 62 63
M  V30 63 1 62 64
M  V30 64 1 64 65
M  V30 65 2 65 66
M  V30 66 1 65 67
M  V30 67 1 65 68
M  V30 68 1 8 4
M  V30 69 1 26 22
M  V30 70 1 48 35
M  V30 71 1 47 42
M  V30 72 1 1 69
M  V30 73 1 1 70
M  V30 74 1 1 71
M  V30 75 1 5 72
M  V30 76 1 5 73
M  V30 77 1 6 74
M  V30 78 1 6 75
M  V30 79 1 7 76
M  V30 80 1 7 77
M  V30 81 1 8 78 CFG=3
M  V30 82 1 11 79
M  V30 83 1 12 80 CFG=3
M  V30 84 1 13 81
M  V30 85 1 13 82
M  V30 86 1 14 83
M  V30 87 1 15 84
M  V30 88 1 15 85
M  V30 89 1 15 86
M  V30 90 1 16 87
M  V30 91 1 16 88
M  V30 92 1 16 89
M  V30 93 1 19 90
M  V30 94 1 20 91 CFG=1
M  V30 95 1 21 92
M  V30 96 1 21 93
M  V30 97 1 23 94
M  V30 98 1 25 95
M  V30 99 1 27 96
M  V30 100 1 27 97
M  V30 101 1 28 98
M  V30 102 1 28 99
M  V30 103 1 29 100
M  V30 104 1 29 101
M  V30 105 1 30 102
M  V30 106 1 30 103
M  V30 107 1 31 104
M  V30 108 1 31 105
M  V30 109 1 34 106
M  V30 110 1 36 107
M  V30 111 1 40 108
M  V30 112 1 40 109
M  V30 113 1 40 110
M  V30 114 1 41 111
M  V30 115 1 41 112
M  V30 116 1 43 113
M  V30 117 1 44 114
M  V30 118 1 45 115
M  V30 119 1 46 116
M  V30 120 1 47 117
M  V30 121 1 51 118
M  V30 122 1 52 119 CFG=1
M  V30 123 1 53 120
M  V30 124 1 53 121
M  V30 125 1 54 122
M  V30 126 1 57 123
M  V30 127 1 58 124 CFG=3
M  V30 128 1 60 125
M  V30 129 1 60 126
M  V30 130 1 62 127 CFG=1
M  V30 131 1 63 128
M  V30 132 1 63 129
M  V30 133 1 63 130
M  V30 134 1 67 131
M  V30 135 1 68 132
M  V30 END BOND
M  V30 END CTAB
M  END
>  <Dataset>  (222) 
ChEMBL_Kinases

>  <Ligand_Instance>  (222) 
nan

>  <PDB_ID>  (222) 
nan

>  <Standardized_SMILES>  (222) 
CC(=O)N1CCC[C@H]1C(=O)N[C@@H](CC(C)C)C(=O)N[C@@H](Cc1cncn1CCCCCO/N=C/c1cnc(N(C)Cc2ccccc2)s1)C(=O)N[C@@H](CO)C(=O)N[C@H](C(N)=O)[C@@H](C)OP(=O)(O)O

>  <Name>  (222) 
nan

>  <Pocket>  (222) 
nan

>  <ATP_Site>  (222) 
nan

>  <Peripheral>  (222) 
nan

>  <Num_H_Atoms_ProtBoundConf>  (222) 
nan

>  <Num_Resolved_Atoms>  (222) 
nan

>  <Num_Not_Resolved_Atoms>  (222) 
nan

$$$$
CHEMBL3925253
     RDKit          3D

  0  0  0  0  0  0  0  0  0  0999 V3000
M  V30 BEGIN CTAB
M  V30 COUNTS 63 67 0 0 0
M  V30 BEGIN ATOM
M  V30 1 C 4.016254 -1.739248 1.934408 0
M  V30 2 O 3.799310 -0.592339 1.159004 0
M  V30 3 C 3.538033 0.638537 1.734162 0
M  V30 4 C 3.493276 0.722665 3.126663 0
M  V30 5 C 3.239726 1.904778 3.805439 0
M  V30 6 C 3.026322 3.030860 3.040047 0
M  V30 7 F 2.770769 4.235137 3.639051 0
M  V30 8 C 3.056704 3.016543 1.662574 0
M  V30 9 C 3.313538 1.814504 1.017012 0
M  V30 10 C 3.387990 1.593570 -0.436274 0
M  V30 11 C 4.491919 1.699914 -1.255818 0
M  V30 12 C 4.350127 1.449186 -2.605549 0
M  V30 13 N 3.149598 1.100012 -3.147767 0
M  V30 14 C 2.058030 0.994833 -2.337183 0
M  V30 15 N 0.776582 0.659413 -2.669271 0
M  V30 16 C 0.031734 0.679109 -1.543009 0
M  V30 17 C -1.409732 0.380238 -1.384407 0
M  V30 18 C -2.042862 0.441964 -0.217364 0
M  V30 19 C -3.100291 -0.585674 -0.034003 0
M  V30 20 C -4.465221 -0.059009 -0.414659 0
M  V30 21 C -4.502196 -0.176029 -1.912877 0
M  V30 22 C -3.267864 -0.958705 -2.230932 0
M  V30 23 C -2.173973 -0.015521 -2.618482 0
M  V30 24 N -2.839385 -1.631746 -1.009079 0
M  V30 25 C -3.647089 -2.807555 -0.751809 0
M  V30 26 C -3.069469 -3.552177 0.383414 0
M  V30 27 O -3.900600 -4.525981 0.510933 0
M  V30 28 N -1.938554 -3.462025 1.270686 0
M  V30 29 C -0.821928 -2.536800 1.396888 0
M  V30 30 C -1.858847 -4.506401 2.275161 0
M  V30 31 C -2.577989 -4.116277 3.542757 0
M  V30 32 O -2.494708 -5.123269 4.497882 0
M  V30 33 C 0.890542 1.033876 -0.523054 0
M  V30 34 C 2.163372 1.239644 -0.975496 0
M  V30 35 H 3.173900 -1.941882 2.626852 0
M  V30 36 H 4.113570 -2.613283 1.256433 0
M  V30 37 H 4.932845 -1.657299 2.557051 0
M  V30 38 H 3.664394 -0.179509 3.706758 0
M  V30 39 H 3.209365 1.948341 4.884141 0
M  V30 40 H 2.898829 3.859583 1.004959 0
M  V30 41 H 5.387075 1.977636 -0.745051 0
M  V30 42 H 5.269636 1.558772 -3.159508 0
M  V30 43 H 0.392459 0.421967 -3.608569 0
M  V30 44 H -1.693324 1.238909 0.441125 0
M  V30 45 H -3.137057 -0.955118 1.014925 0
M  V30 46 H -4.614285 0.997373 -0.098033 0
M  V30 47 H -5.245437 -0.697309 0.044194 0
M  V30 48 H -5.435280 -0.662985 -2.283969 0
M  V30 49 H -4.505952 0.828991 -2.409216 0
M  V30 50 H -3.430056 -1.769434 -2.970654 0
M  V30 51 H -1.444490 -0.485010 -3.330980 0
M  V30 52 H -2.573298 0.927213 -3.044913 0
M  V30 53 H -4.719097 -2.551094 -0.629906 0
M  V30 54 H -3.556987 -3.433868 -1.662485 0
M  V30 55 H -1.024614 -1.775441 2.158277 0
M  V30 56 H -0.636927 -2.011325 0.424488 0
M  V30 57 H 0.118001 -3.092173 1.597557 0
M  V30 58 H -2.376739 -5.433926 1.909047 0
M  V30 59 H -0.820063 -4.818898 2.462193 0
M  V30 60 H -3.643706 -3.911583 3.296834 0
M  V30 61 H -2.168894 -3.187308 3.994058 0
M  V30 62 H -1.802838 -4.891045 5.149529 0
M  V30 63 H 0.570390 1.131112 0.506106 0
M  V30 END ATOM
M  V30 BEGIN BOND
M  V30 1 1 1 2
M  V30 2 1 2 3
M  V30 3 2 3 4
M  V30 4 1 4 5
M  V30 5 2 5 6
M  V30 6 1 6 7
M  V30 7 1 6 8
M  V30 8 2 8 9
M  V30 9 1 9 10
M  V30 10 2 10 11
M  V30 11 1 11 12
M  V30 12 2 12 13
M  V30 13 1 13 14
M  V30 14 1 14 15
M  V30 15 1 15 16
M  V30 16 1 16 17
M  V30 17 2 17 18
M  V30 18 1 18 19
M  V30 19 1 19 20
M  V30 20 1 20 21
M  V30 21 1 21 22
M  V30 22 1 22 23
M  V30 23 1 22 24
M  V30 24 1 24 25
M  V30 25 1 25 26
M  V30 26 2 26 27
M  V30 27 1 26 28
M  V30 28 1 28 29
M  V30 29 1 28 30
M  V30 30 1 30 31
M  V30 31 1 31 32
M  V30 32 2 16 33
M  V30 33 1 33 34
M  V30 34 1 9 3
M  V30 35 1 34 10
M  V30 36 2 34 14
M  V30 37 1 23 17
M  V30 38 1 24 19
M  V30 39 1 1 35
M  V30 40 1 1 36
M  V30 41 1 1 37
M  V30 42 1 4 38
M  V30 43 1 5 39
M  V30 44 1 8 40
M  V30 45 1 11 41
M  V30 46 1 12 42
M  V30 47 1 15 43
M  V30 48 1 18 44
M  V30 49 1 19 45
M  V30 50 1 20 46
M  V30 51 1 20 47
M  V30 52 1 21 48
M  V30 53 1 21 49
M  V30 54 1 22 50
M  V30 55 1 23 51
M  V30 56 1 23 52
M  V30 57 1 25 53
M  V30 58 1 25 54
M  V30 59 1 29 55
M  V30 60 1 29 56
M  V30 61 1 29 57
M  V30 62 1 30 58
M  V30 63 1 30 59
M  V30 64 1 31 60
M  V30 65 1 31 61
M  V30 66 1 32 62
M  V30 67 1 33 63
M  V30 END BOND
M  V30 END CTAB
M  END
>  <Dataset>  (223) 
ChEMBL_Kinases

>  <Ligand_Instance>  (223) 
nan

>  <PDB_ID>  (223) 
nan

>  <Standardized_SMILES>  (223) 
COc1ccc(F)cc1-c1ccnc2[nH]c(C3=CC4CCC(C3)N4CC(=O)N(C)CCO)cc12

>  <Name>  (223) 
nan

>  <Pocket>  (223) 
nan

>  <ATP_Site>  (223) 
nan

>  <Peripheral>  (223) 
nan

>  <Num_H_Atoms_ProtBoundConf>  (223) 
nan

>  <Num_Resolved_Atoms>  (223) 
nan

>  <Num_Not_Resolved_Atoms>  (223) 
nan

$$$$
CHEMBL3926152
     RDKit          3D

  0  0  0  0  0  0  0  0  0  0999 V3000
M  V30 BEGIN CTAB
M  V30 COUNTS 58 62 0 0 0
M  V30 BEGIN ATOM
M  V30 1 C 5.429911 -4.648596 5.111746 0
M  V30 2 O 5.566104 -3.288821 4.734959 0
M  V30 3 C 4.591352 -2.605136 4.027481 0
M  V30 4 O 3.674356 -3.440816 3.845237 0
M  V30 5 N 4.704860 -1.240373 3.637771 0
M  V30 6 C 3.564962 -0.778173 2.920224 0
M  V30 7 N 2.375016 -0.195966 3.220070 0
M  V30 8 C 1.681384 0.019211 2.088230 0
M  V30 9 C 0.432912 0.583150 1.910985 0
M  V30 10 C -0.071675 0.695544 0.624797 0
M  V30 11 C -1.376866 1.278390 0.315371 0
M  V30 12 O -1.954664 1.786568 1.480875 0
M  V30 13 C -1.154553 2.414469 -0.594298 0
M  V30 14 C -0.324746 3.486524 -0.299535 0
M  V30 15 C -0.204166 4.504752 -1.248803 0
M  V30 16 C -0.926794 4.371910 -2.426598 0
M  V30 17 C -1.743651 3.292670 -2.689461 0
M  V30 18 C -1.869061 2.285931 -1.762543 0
M  V30 19 C -2.567078 1.020157 -1.600024 0
M  V30 20 O -3.294038 0.668485 -2.529341 0
M  V30 21 N -2.298044 0.371783 -0.367213 0
M  V30 22 C -2.749838 -0.872237 0.187825 0
M  V30 23 C -4.167510 -0.986800 0.578113 0
M  V30 24 C -2.108178 -2.066996 -0.398027 0
M  V30 25 C -0.954341 -2.656112 0.165757 0
M  V30 26 C -0.254564 -3.736676 -0.286659 0
M  V30 27 C -0.684765 -4.352530 -1.414429 0
M  V30 28 C -1.800483 -3.853145 -2.035824 0
M  V30 29 Cl -2.311240 -4.695237 -3.497391 0
M  V30 30 C -2.466249 -2.757924 -1.530757 0
M  V30 31 C -3.641309 -2.398088 -2.309038 0
M  V30 32 C 0.704282 0.235004 -0.422362 0
M  V30 33 C 1.949284 -0.324833 -0.218981 0
M  V30 34 C 2.476808 -0.448406 1.062333 0
M  V30 35 N 3.626986 -0.935633 1.567118 0
M  V30 36 H 5.587150 -5.340998 4.259998 0
M  V30 37 H 6.010953 -4.895413 6.014402 0
M  V30 38 H 4.353400 -4.779626 5.409789 0
M  V30 39 H 5.593466 -0.763669 3.923342 0
M  V30 40 H -0.143693 0.930683 2.744610 0
M  V30 41 H -2.291579 1.038363 2.064842 0
M  V30 42 H 0.244771 3.609313 0.608117 0
M  V30 43 H 0.420791 5.367027 -1.089835 0
M  V30 44 H -0.831143 5.160171 -3.156909 0
M  V30 45 H -2.313831 3.171717 -3.600223 0
M  V30 46 H -2.239272 -0.872223 1.247384 0
M  V30 47 H -4.466256 -2.043963 0.591123 0
M  V30 48 H -4.901168 -0.363946 0.036831 0
M  V30 49 H -4.299264 -0.655619 1.653673 0
M  V30 50 H -0.537230 -2.211638 1.090110 0
M  V30 51 H 0.619803 -4.108442 0.222491 0
M  V30 52 H -0.143490 -5.199658 -1.777573 0
M  V30 53 H -4.335302 -1.747113 -1.759062 0
M  V30 54 H -4.259494 -3.325738 -2.515376 0
M  V30 55 H -3.415590 -2.028709 -3.330903 0
M  V30 56 H 0.362385 0.297177 -1.441139 0
M  V30 57 H 2.534387 -0.677190 -1.062200 0
M  V30 58 H 4.340409 -1.330408 0.906159 0
M  V30 END ATOM
M  V30 BEGIN BOND
M  V30 1 1 1 2
M  V30 2 1 2 3
M  V30 3 2 3 4
M  V30 4 1 3 5
M  V30 5 1 5 6
M  V30 6 2 6 7
M  V30 7 1 7 8
M  V30 8 2 8 9
M  V30 9 1 9 10
M  V30 10 1 10 11
M  V30 11 1 11 12
M  V30 12 1 11 13
M  V30 13 2 13 14
M  V30 14 1 14 15
M  V30 15 2 15 16
M  V30 16 1 16 17
M  V30 17 2 17 18
M  V30 18 1 18 19
M  V30 19 2 19 20
M  V30 20 1 19 21
M  V30 21 1 21 22
M  V30 22 1 22 23
M  V30 23 1 22 24
M  V30 24 2 24 25
M  V30 25 1 25 26
M  V30 26 2 26 27
M  V30 27 1 27 28
M  V30 28 1 28 29
M  V30 29 2 28 30
M  V30 30 1 30 31
M  V30 31 2 10 32
M  V30 32 1 32 33
M  V30 33 2 33 34
M  V30 34 1 34 35
M  V30 35 1 35 6
M  V30 36 1 34 8
M  V30 37 1 21 11
M  V30 38 1 30 24
M  V30 39 1 18 13
M  V30 40 1 1 36
M  V30 41 1 1 37
M  V30 42 1 1 38
M  V30 43 1 5 39
M  V30 44 1 9 40
M  V30 45 1 12 41
M  V30 46 1 14 42
M  V30 47 1 15 43
M  V30 48 1 16 44
M  V30 49 1 17 45
M  V30 50 1 22 46
M  V30 51 1 23 47
M  V30 52 1 23 48
M  V30 53 1 23 49
M  V30 54 1 25 50
M  V30 55 1 26 51
M  V30 56 1 27 52
M  V30 57 1 31 53
M  V30 58 1 31 54
M  V30 59 1 31 55
M  V30 60 1 32 56
M  V30 61 1 33 57
M  V30 62 1 35 58
M  V30 END BOND
M  V30 END CTAB
M  END
>  <Dataset>  (224) 
ChEMBL_Kinases

>  <Ligand_Instance>  (224) 
nan

>  <PDB_ID>  (224) 
nan

>  <Standardized_SMILES>  (224) 
COC(=O)Nc1nc2cc(C3(O)c4ccccc4C(=O)N3C(C)c3cccc(Cl)c3C)ccc2[nH]1

>  <Name>  (224) 
nan

>  <Pocket>  (224) 
nan

>  <ATP_Site>  (224) 
nan

>  <Peripheral>  (224) 
nan

>  <Num_H_Atoms_ProtBoundConf>  (224) 
nan

>  <Num_Resolved_Atoms>  (224) 
nan

>  <Num_Not_Resolved_Atoms>  (224) 
nan

$$$$
CHEMBL3702084
     RDKit          3D

  0  0  0  0  0  0  0  0  0  0999 V3000
M  V30 BEGIN CTAB
M  V30 COUNTS 60 65 0 0 0
M  V30 BEGIN ATOM
M  V30 1 C 5.223674 -4.458812 4.888840 0
M  V30 2 C 4.876109 -2.996181 5.088497 0 CFG=1
M  V30 3 C 4.748502 -2.329989 3.741468 0
M  V30 4 N 3.379251 -2.449730 3.301086 0
M  V30 5 C 2.901612 -1.457110 2.411113 0
M  V30 6 C 3.791433 -0.570239 1.845145 0
M  V30 7 C 3.449843 0.443183 0.974170 0
M  V30 8 C 2.095433 0.582282 0.637937 0
M  V30 9 N 1.568131 1.556386 -0.252192 0
M  V30 10 C 0.220637 1.790895 -0.630369 0
M  V30 11 N -0.196095 3.031934 -0.243898 0
M  V30 12 C -1.463675 3.432240 -0.514769 0
M  V30 13 C -2.280932 2.546229 -1.179358 0
M  V30 14 C -3.591083 2.677781 -1.579649 0
M  V30 15 C -4.521992 3.691288 -1.472831 0
M  V30 16 C -5.799698 3.567731 -1.973229 0
M  V30 17 N -6.106155 2.398086 -2.580741 0
M  V30 18 C -5.198320 1.405084 -2.687358 0
M  V30 19 F -5.617629 0.308620 -3.307565 0
M  V30 20 C -3.891728 1.484812 -2.195063 0
M  V30 21 N -2.873305 0.606936 -2.215544 0
M  V30 22 C -2.829668 -0.723915 -2.760805 0
M  V30 23 C -3.649853 -1.743599 -2.041092 0
M  V30 24 C -3.872461 -2.795271 -3.086114 0
M  V30 25 C -3.855158 -2.109465 -4.431365 0
M  V30 26 C -3.000480 -0.862609 -4.225584 0
M  V30 27 C -1.880083 1.289616 -1.577751 0
M  V30 28 N -0.610071 0.937883 -1.285670 0
M  V30 29 N 1.191518 -0.285121 1.185956 0
M  V30 30 C 1.598042 -1.250936 2.029866 0
M  V30 31 C 2.612037 -3.572939 3.796671 0
M  V30 32 C 2.534311 -3.551006 5.311832 0
M  V30 33 N 3.697340 -2.903247 5.881864 0
M  V30 34 H 6.196989 -4.661894 5.380987 0
M  V30 35 H 5.349042 -4.672614 3.800620 0
M  V30 36 H 4.447993 -5.153999 5.251170 0
M  V30 37 H 5.695706 -2.501765 5.696084 0
M  V30 38 H 4.968648 -1.241202 3.903611 0
M  V30 39 H 5.453660 -2.778927 3.011984 0
M  V30 40 H 4.864844 -0.560820 2.011481 0
M  V30 41 H 4.092423 1.147691 0.514210 0
M  V30 42 H 2.278077 2.181413 -0.677391 0
M  V30 43 H -1.864823 4.401983 -0.239446 0
M  V30 44 H -4.178007 4.592700 -0.967251 0
M  V30 45 H -6.436633 4.427832 -1.828701 0
M  V30 46 H -1.773988 -1.097452 -2.579401 0
M  V30 47 H -3.082804 -2.261521 -1.206401 0
M  V30 48 H -4.552891 -1.385771 -1.537606 0
M  V30 49 H -4.802602 -3.377145 -2.917908 0
M  V30 50 H -2.995010 -3.500733 -3.071036 0
M  V30 51 H -4.878023 -1.857703 -4.783248 0
M  V30 52 H -3.449818 -2.809719 -5.168853 0
M  V30 53 H -3.381837 0.023736 -4.766757 0
M  V30 54 H -2.049887 -1.087389 -4.797015 0
M  V30 55 H 0.833675 -1.894625 2.420769 0
M  V30 56 H 2.981642 -4.551009 3.421080 0
M  V30 57 H 1.589362 -3.471414 3.394564 0
M  V30 58 H 1.576047 -3.109367 5.636976 0
M  V30 59 H 2.541650 -4.603967 5.651044 0
M  V30 60 H 3.883751 -3.232101 6.857807 0
M  V30 END ATOM
M  V30 BEGIN BOND
M  V30 1 1 1 2
M  V30 2 1 2 3
M  V30 3 1 3 4
M  V30 4 1 4 5
M  V30 5 2 5 6
M  V30 6 1 6 7
M  V30 7 2 7 8
M  V30 8 1 8 9
M  V30 9 1 9 10
M  V30 10 2 10 11
M  V30 11 1 11 12
M  V30 12 2 12 13
M  V30 13 1 13 14
M  V30 14 2 14 15
M  V30 15 1 15 16
M  V30 16 2 16 17
M  V30 17 1 17 18
M  V30 18 1 18 19
M  V30 19 2 18 20
M  V30 20 1 20 21
M  V30 21 1 21 22
M  V30 22 1 22 23
M  V30 23 1 23 24
M  V30 24 1 24 25
M  V30 25 1 25 26
M  V30 26 1 21 27
M  V30 27 2 27 28
M  V30 28 1 8 29
M  V30 29 2 29 30
M  V30 30 1 4 31
M  V30 31 1 31 32
M  V30 32 1 32 33
M  V30 33 1 33 2
M  V30 34 1 30 5
M  V30 35 1 28 10
M  V30 36 1 27 13
M  V30 37 1 20 14
M  V30 38 1 26 22
M  V30 39 1 1 34
M  V30 40 1 1 35
M  V30 41 1 1 36
M  V30 42 1 2 37 CFG=1
M  V30 43 1 3 38
M  V30 44 1 3 39
M  V30 45 1 6 40
M  V30 46 1 7 41
M  V30 47 1 9 42
M  V30 48 1 12 43
M  V30 49 1 15 44
M  V30 50 1 16 45
M  V30 51 1 22 46
M  V30 52 1 23 47
M  V30 53 1 23 48
M  V30 54 1 24 49
M  V30 55 1 24 50
M  V30 56 1 25 51
M  V30 57 1 25 52
M  V30 58 1 26 53
M  V30 59 1 26 54
M  V30 60 1 30 55
M  V30 61 1 31 56
M  V30 62 1 31 57
M  V30 63 1 32 58
M  V30 64 1 32 59
M  V30 65 1 33 60
M  V30 END BOND
M  V30 END CTAB
M  END
>  <Dataset>  (225) 
ChEMBL_Kinases

>  <Ligand_Instance>  (225) 
nan

>  <PDB_ID>  (225) 
nan

>  <Standardized_SMILES>  (225) 
C[C@H]1CN(c2ccc(Nc3ncc4c5ccnc(F)c5n(C5CCCC5)c4n3)nc2)CCN1

>  <Name>  (225) 
nan

>  <Pocket>  (225) 
nan

>  <ATP_Site>  (225) 
nan

>  <Peripheral>  (225) 
nan

>  <Num_H_Atoms_ProtBoundConf>  (225) 
nan

>  <Num_Resolved_Atoms>  (225) 
nan

>  <Num_Not_Resolved_Atoms>  (225) 
nan

$$$$
CHEMBL487273
     RDKit          3D

  0  0  0  0  0  0  0  0  0  0999 V3000
M  V30 BEGIN CTAB
M  V30 COUNTS 44 46 0 0 0
M  V30 BEGIN ATOM
M  V30 1 N 3.053778 2.975681 4.218309 0
M  V30 2 C 2.563381 2.620902 2.953173 0
M  V30 3 O 1.814589 3.423768 2.341358 0
M  V30 4 N 2.977722 1.347132 2.477565 0
M  V30 5 C 2.561258 0.863732 1.224747 0
M  V30 6 S 3.497927 1.153502 -0.401454 0
M  V30 7 C 2.392917 0.297612 -1.350758 0
M  V30 8 C 2.451360 0.061316 -2.872220 0
M  V30 9 C 1.491977 -0.653013 -3.535165 0
M  V30 10 C 1.654555 -0.796640 -4.898847 0
M  V30 11 C 2.737848 -0.246406 -5.580012 0
M  V30 12 C 3.683110 0.468511 -4.865067 0
M  V30 13 C 3.542277 0.625821 -3.500332 0
M  V30 14 C 1.430705 -0.160067 -0.572918 0
M  V30 15 C 1.495750 0.120520 0.767271 0
M  V30 16 C 0.523836 -0.298635 1.794803 0
M  V30 17 O 0.671030 0.005565 2.983774 0
M  V30 18 N -0.620584 -1.070022 1.452667 0
M  V30 19 C -1.582264 -1.490108 2.439523 0 CFG=1
M  V30 20 C -2.951449 -0.888659 2.199697 0
M  V30 21 C -3.780904 -1.189288 3.433254 0
M  V30 22 C -3.737467 -2.621717 3.851145 0
M  V30 23 N -2.421004 -3.189939 3.849307 0
M  V30 24 C -1.754008 -2.964819 2.557200 0
M  V30 25 H 3.854343 2.526456 4.712539 0
M  V30 26 H 3.440741 3.211444 5.149118 0
M  V30 27 H 3.601079 0.715511 3.022817 0
M  V30 28 H 0.666749 -1.064012 -2.970733 0
M  V30 29 H 0.907941 -1.357051 -5.440156 0
M  V30 30 H 2.819866 -0.387006 -6.647804 0
M  V30 31 H 4.516557 0.888791 -5.406631 0
M  V30 32 H 4.304817 1.191711 -2.984153 0
M  V30 33 H 0.584459 -0.754328 -0.958007 0
M  V30 34 H -0.791912 -1.354893 0.455234 0
M  V30 35 H -1.253710 -1.110576 3.433356 0
M  V30 36 H -2.871133 0.210872 2.110903 0
M  V30 37 H -3.387219 -1.370052 1.323151 0
M  V30 38 H -3.500598 -0.521147 4.274037 0
M  V30 39 H -4.824857 -0.933557 3.158283 0
M  V30 40 H -4.474094 -3.260257 3.292426 0
M  V30 41 H -4.101848 -2.657249 4.909843 0
M  V30 42 H -2.475300 -4.191405 4.077424 0
M  V30 43 H -2.481562 -3.301139 1.792719 0
M  V30 44 H -0.832773 -3.547679 2.606200 0
M  V30 END ATOM
M  V30 BEGIN BOND
M  V30 1 1 1 2
M  V30 2 2 2 3
M  V30 3 1 2 4
M  V30 4 1 4 5
M  V30 5 1 5 6
M  V30 6 1 6 7
M  V30 7 1 7 8
M  V30 8 2 8 9
M  V30 9 1 9 10
M  V30 10 2 10 11
M  V30 11 1 11 12
M  V30 12 2 12 13
M  V30 13 2 7 14
M  V30 14 1 14 15
M  V30 15 1 15 16
M  V30 16 2 16 17
M  V30 17 1 16 18
M  V30 18 1 18 19
M  V30 19 1 19 20
M  V30 20 1 20 21
M  V30 21 1 21 22
M  V30 22 1 22 23
M  V30 23 1 23 24
M  V30 24 2 15 5
M  V30 25 1 24 19
M  V30 26 1 13 8
M  V30 27 1 1 25
M  V30 28 1 1 26
M  V30 29 1 4 27
M  V30 30 1 9 28
M  V30 31 1 10 29
M  V30 32 1 11 30
M  V30 33 1 12 31
M  V30 34 1 13 32
M  V30 35 1 14 33
M  V30 36 1 18 34
M  V30 37 1 19 35 CFG=1
M  V30 38 1 20 36
M  V30 39 1 20 37
M  V30 40 1 21 38
M  V30 41 1 21 39
M  V30 42 1 22 40
M  V30 43 1 22 41
M  V30 44 1 23 42
M  V30 45 1 24 43
M  V30 46 1 24 44
M  V30 END BOND
M  V30 END CTAB
M  END
>  <Dataset>  (226) 
ChEMBL_Kinases

>  <Ligand_Instance>  (226) 
nan

>  <PDB_ID>  (226) 
nan

>  <Standardized_SMILES>  (226) 
NC(=O)Nc1sc(-c2ccccc2)cc1C(=O)N[C@H]1CCCNC1

>  <Name>  (226) 
nan

>  <Pocket>  (226) 
nan

>  <ATP_Site>  (226) 
nan

>  <Peripheral>  (226) 
nan

>  <Num_H_Atoms_ProtBoundConf>  (226) 
nan

>  <Num_Resolved_Atoms>  (226) 
nan

>  <Num_Not_Resolved_Atoms>  (226) 
nan

$$$$
CHEMBL4872743
     RDKit          3D

  0  0  0  0  0  0  0  0  0  0999 V3000
M  V30 BEGIN CTAB
M  V30 COUNTS 57 60 0 0 0
M  V30 BEGIN ATOM
M  V30 1 C 5.757982 -2.831301 0.228323 0
M  V30 2 O 4.665048 -1.997741 0.552061 0
M  V30 3 C 3.448552 -2.183242 -0.089450 0
M  V30 4 C 3.316513 -3.171805 -1.031860 0
M  V30 5 C 2.133813 -3.387134 -1.687212 0
M  V30 6 C 1.020787 -2.605145 -1.415979 0
M  V30 7 C 1.215565 -1.627327 -0.459214 0
M  V30 8 C 2.375723 -1.346803 0.246018 0
M  V30 9 N 2.514019 -0.322276 1.212246 0
M  V30 10 C 1.552901 0.583648 1.720763 0
M  V30 11 N 1.959500 1.516300 2.592397 0
M  V30 12 C 1.166943 2.425140 3.155146 0
M  V30 13 C -0.153939 2.370121 2.791190 0
M  V30 14 C -1.035554 3.349895 3.396767 0
M  V30 15 N -0.583187 4.338527 4.309753 0
M  V30 16 O -2.211484 3.720622 3.436338 0
M  V30 17 C -0.656459 1.449294 1.906658 0
M  V30 18 N -1.993570 1.350733 1.492179 0
M  V30 19 C -3.299344 0.897005 1.749613 0
M  V30 20 C -4.281507 1.894482 1.782467 0
M  V30 21 C -5.594612 1.590543 2.033699 0
M  V30 22 C -5.869894 0.268930 2.245214 0
M  V30 23 C -4.966141 -0.761892 2.229157 0
M  V30 24 C -3.654577 -0.413893 1.972656 0
M  V30 25 C -2.618085 -1.462583 1.937280 0
M  V30 26 F -3.216830 -2.706679 2.190904 0
M  V30 27 F -1.664351 -1.309607 2.898018 0
M  V30 28 F -2.086101 -1.607182 0.654183 0
M  V30 29 N 0.254449 0.598531 1.420283 0
M  V30 30 C -0.295095 -2.755536 -2.059992 0
M  V30 31 N -0.201034 -3.323449 -3.379958 0
M  V30 32 C -0.744609 -2.357507 -4.316528 0
M  V30 33 C 1.107575 -3.681331 -3.812733 0
M  V30 34 C 1.895197 -4.444640 -2.737719 0
M  V30 35 H 6.696756 -2.501421 0.689022 0
M  V30 36 H 5.966528 -2.881969 -0.865951 0
M  V30 37 H 5.540345 -3.899777 0.526360 0
M  V30 38 H 4.146649 -3.808440 -1.281026 0
M  V30 39 H 0.354222 -1.010536 -0.246011 0
M  V30 40 H 3.501964 -0.242827 1.599516 0
M  V30 41 H 1.546167 3.151900 3.849343 0
M  V30 42 H -0.376524 5.361248 4.142363 0
M  V30 43 H -0.367715 4.257358 5.308181 0
M  V30 44 H -1.930457 1.867316 0.564815 0
M  V30 45 H -4.086249 2.957927 1.611569 0
M  V30 46 H -6.402215 2.310106 2.075697 0
M  V30 47 H -6.893199 -0.018397 2.446717 0
M  V30 48 H -5.217405 -1.791300 2.399321 0
M  V30 49 H -0.991200 -3.355616 -1.401793 0
M  V30 50 H -0.798472 -1.743295 -2.074304 0
M  V30 51 H -1.494177 -1.723258 -3.766065 0
M  V30 52 H -1.274308 -2.819433 -5.170941 0
M  V30 53 H 0.076596 -1.684692 -4.627588 0
M  V30 54 H 1.683606 -2.723115 -3.969228 0
M  V30 55 H 1.039590 -4.247500 -4.738371 0
M  V30 56 H 1.250221 -5.257406 -2.350419 0
M  V30 57 H 2.833098 -4.767324 -3.192785 0
M  V30 END ATOM
M  V30 BEGIN BOND
M  V30 1 1 1 2
M  V30 2 1 2 3
M  V30 3 2 3 4
M  V30 4 1 4 5
M  V30 5 2 5 6
M  V30 6 1 6 7
M  V30 7 2 7 8
M  V30 8 1 8 9
M  V30 9 1 9 10
M  V30 10 2 10 11
M  V30 11 1 11 12
M  V30 12 2 12 13
M  V30 13 1 13 14
M  V30 14 1 14 15
M  V30 15 2 14 16
M  V30 16 1 13 17
M  V30 17 1 17 18
M  V30 18 1 18 19
M  V30 19 2 19 20
M  V30 20 1 20 21
M  V30 21 2 21 22
M  V30 22 1 22 23
M  V30 23 2 23 24
M  V30 24 1 24 25
M  V30 25 1 25 26
M  V30 26 1 25 27
M  V30 27 1 25 28
M  V30 28 2 17 29
M  V30 29 1 6 30
M  V30 30 1 30 31
M  V30 31 1 31 32
M  V30 32 1 31 33
M  V30 33 1 33 34
M  V30 34 1 8 3
M  V30 35 1 29 10
M  V30 36 1 34 5
M  V30 37 1 24 19
M  V30 38 1 1 35
M  V30 39 1 1 36
M  V30 40 1 1 37
M  V30 41 1 4 38
M  V30 42 1 7 39
M  V30 43 1 9 40
M  V30 44 1 12 41
M  V30 45 1 15 42
M  V30 46 1 15 43
M  V30 47 1 18 44
M  V30 48 1 20 45
M  V30 49 1 21 46
M  V30 50 1 22 47
M  V30 51 1 23 48
M  V30 52 1 30 49
M  V30 53 1 30 50
M  V30 54 1 32 51
M  V30 55 1 32 52
M  V30 56 1 32 53
M  V30 57 1 33 54
M  V30 58 1 33 55
M  V30 59 1 34 56
M  V30 60 1 34 57
M  V30 END BOND
M  V30 END CTAB
M  END
>  <Dataset>  (227) 
ChEMBL_Kinases

>  <Ligand_Instance>  (227) 
nan

>  <PDB_ID>  (227) 
nan

>  <Standardized_SMILES>  (227) 
COc1cc2c(cc1Nc1ncc(C(N)=O)c(Nc3ccccc3C(F)(F)F)n1)CN(C)CC2

>  <Name>  (227) 
nan

>  <Pocket>  (227) 
nan

>  <ATP_Site>  (227) 
nan

>  <Peripheral>  (227) 
nan

>  <Num_H_Atoms_ProtBoundConf>  (227) 
nan

>  <Num_Resolved_Atoms>  (227) 
nan

>  <Num_Not_Resolved_Atoms>  (227) 
nan

$$$$
CHEMBL4872846
     RDKit          3D

  0  0  0  0  0  0  0  0  0  0999 V3000
M  V30 BEGIN CTAB
M  V30 COUNTS 49 51 0 0 0
M  V30 BEGIN ATOM
M  V30 1 N 4.307824 2.417297 -2.508154 0
M  V30 2 C 3.778507 1.512922 -2.007469 0
M  V30 3 C 3.115796 0.389690 -1.409271 0
M  V30 4 C 3.627653 -0.883305 -1.527531 0
M  V30 5 N 3.020043 -1.944901 -0.973369 0
M  V30 6 C 1.879128 -1.828919 -0.272336 0
M  V30 7 N 1.223863 -2.963450 0.323250 0
M  V30 8 C -0.020603 -2.809538 1.071723 0
M  V30 9 C -0.522256 -4.049709 1.654228 0
M  V30 10 C -1.560098 -4.746118 1.026202 0
M  V30 11 C -2.071940 -5.945106 1.531238 0
M  V30 12 C -1.538206 -6.468266 2.693540 0
M  V30 13 C -0.519231 -5.745259 3.273250 0
M  V30 14 C 0.009865 -4.561790 2.804790 0
M  V30 15 C 1.098935 -3.923704 3.576474 0
M  V30 16 F 2.205180 -3.822102 2.776235 0
M  V30 17 F 1.375550 -4.637458 4.732973 0
M  V30 18 F 0.663631 -2.660576 4.003268 0
M  V30 19 C 1.339623 -0.553482 -0.136926 0
M  V30 20 C 1.938698 0.579391 -0.696988 0
M  V30 21 N 1.344815 1.870013 -0.531208 0
M  V30 22 C 0.131594 2.221953 0.179430 0 CFG=1
M  V30 23 C -0.118916 3.730732 0.087903 0
M  V30 24 C -1.306828 4.059223 0.932922 0
M  V30 25 C -2.526313 3.252635 0.561492 0 CFG=2
M  V30 26 O -2.823863 2.285458 1.517710 0
M  V30 27 C -2.177217 2.508826 -0.718374 0
M  V30 28 C -1.092472 1.510784 -0.361058 0
M  V30 29 H 4.549786 -0.984545 -2.093749 0
M  V30 30 H 1.709993 -3.891965 0.165695 0
M  V30 31 H 0.198189 -2.039529 1.845746 0
M  V30 32 H -0.811923 -2.348754 0.431477 0
M  V30 33 H -2.022529 -4.384698 0.108419 0
M  V30 34 H -2.876902 -6.440098 1.000519 0
M  V30 35 H -1.907223 -7.391899 3.115161 0
M  V30 36 H -0.111950 -6.175412 4.189499 0
M  V30 37 H 0.438552 -0.499375 0.423402 0
M  V30 38 H 1.876703 2.664894 -0.997191 0
M  V30 39 H 0.288734 2.010174 1.263895 0
M  V30 40 H 0.767506 4.192030 0.573120 0
M  V30 41 H -0.148471 4.096366 -0.938954 0
M  V30 42 H -1.562799 5.121848 0.951492 0
M  V30 43 H -1.051646 3.786242 1.987259 0
M  V30 44 H -3.406162 3.908643 0.402067 0
M  V30 45 H -2.831361 2.659726 2.452571 0
M  V30 46 H -3.074458 1.948773 -1.000062 0
M  V30 47 H -1.862293 3.161665 -1.535562 0
M  V30 48 H -1.516425 0.875274 0.472413 0
M  V30 49 H -0.835185 0.827944 -1.175569 0
M  V30 END ATOM
M  V30 BEGIN BOND
M  V30 1 3 1 2
M  V30 2 1 2 3
M  V30 3 2 3 4
M  V30 4 1 4 5
M  V30 5 2 5 6
M  V30 6 1 6 7
M  V30 7 1 7 8
M  V30 8 1 8 9
M  V30 9 2 9 10
M  V30 10 1 10 11
M  V30 11 2 11 12
M  V30 12 1 12 13
M  V30 13 2 13 14
M  V30 14 1 14 15
M  V30 15 1 15 16
M  V30 16 1 15 17
M  V30 17 1 15 18
M  V30 18 1 6 19
M  V30 19 2 19 20
M  V30 20 1 20 21
M  V30 21 1 21 22
M  V30 22 1 22 23
M  V30 23 1 23 24
M  V30 24 1 24 25
M  V30 25 1 25 26
M  V30 26 1 25 27
M  V30 27 1 27 28
M  V30 28 1 20 3
M  V30 29 1 28 22
M  V30 30 1 14 9
M  V30 31 1 4 29
M  V30 32 1 7 30
M  V30 33 1 8 31
M  V30 34 1 8 32
M  V30 35 1 10 33
M  V30 36 1 11 34
M  V30 37 1 12 35
M  V30 38 1 13 36
M  V30 39 1 19 37
M  V30 40 1 21 38
M  V30 41 1 22 39 CFG=1
M  V30 42 1 23 40
M  V30 43 1 23 41
M  V30 44 1 24 42
M  V30 45 1 24 43
M  V30 46 1 25 44 CFG=3
M  V30 47 1 26 45
M  V30 48 1 27 46
M  V30 49 1 27 47
M  V30 50 1 28 48
M  V30 51 1 28 49
M  V30 END BOND
M  V30 END CTAB
M  END
>  <Dataset>  (228) 
ChEMBL_Kinases

>  <Ligand_Instance>  (228) 
nan

>  <PDB_ID>  (228) 
nan

>  <Standardized_SMILES>  (228) 
N#Cc1cnc(NCc2ccccc2C(F)(F)F)cc1N[C@H]1CC[C@H](O)CC1

>  <Name>  (228) 
nan

>  <Pocket>  (228) 
nan

>  <ATP_Site>  (228) 
nan

>  <Peripheral>  (228) 
nan

>  <Num_H_Atoms_ProtBoundConf>  (228) 
nan

>  <Num_Resolved_Atoms>  (228) 
nan

>  <Num_Not_Resolved_Atoms>  (228) 
nan

$$$$
CHEMBL3702085
     RDKit          3D

  0  0  0  0  0  0  0  0  0  0999 V3000
M  V30 BEGIN CTAB
M  V30 COUNTS 60 65 0 0 0
M  V30 BEGIN ATOM
M  V30 1 C 1.158587 -0.550773 5.043258 0
M  V30 2 C 2.429245 0.227120 4.955351 0 CFG=2
M  V30 3 C 2.468358 1.236819 6.072494 0
M  V30 4 N 2.967305 2.526207 5.705710 0
M  V30 5 C 4.122287 2.469716 4.851258 0
M  V30 6 C 3.931119 1.621061 3.643213 0
M  V30 7 N 2.631312 0.932023 3.710774 0
M  V30 8 C 1.821620 1.099365 2.553692 0
M  V30 9 C 0.968540 0.141798 2.057953 0
M  V30 10 C 0.231127 0.462146 0.938595 0
M  V30 11 C 0.263526 1.657932 0.258872 0
M  V30 12 N -0.510010 1.882151 -0.911750 0
M  V30 13 C -1.334322 1.009710 -1.662821 0
M  V30 14 N -2.131750 1.580260 -2.574026 0
M  V30 15 C -2.934961 0.876152 -3.369630 0
M  V30 16 C -2.940681 -0.489400 -3.246377 0
M  V30 17 C -3.627734 -1.493521 -3.889444 0
M  V30 18 C -4.562220 -1.360828 -4.898116 0
M  V30 19 C -5.149530 -2.503470 -5.413370 0
M  V30 20 N -4.770406 -3.684809 -4.895510 0
M  V30 21 C -3.850883 -3.768040 -3.907937 0
M  V30 22 F -3.577925 -5.018411 -3.479910 0
M  V30 23 C -3.217574 -2.685186 -3.337523 0
M  V30 24 N -2.299933 -2.487449 -2.374575 0
M  V30 25 C -1.671777 -3.531306 -1.635221 0
M  V30 26 C -0.701017 -4.378177 -2.384999 0
M  V30 27 C 0.539998 -4.618344 -1.579397 0
M  V30 28 C 0.120120 -4.182668 -0.185367 0
M  V30 29 C -0.854433 -3.037674 -0.468040 0
M  V30 30 C -2.136265 -1.133284 -2.322612 0
M  V30 31 N -1.367731 -0.329189 -1.572287 0
M  V30 32 N 1.107635 2.557554 0.779947 0
M  V30 33 C 1.844278 2.290398 1.866883 0
M  V30 34 H 0.281423 -0.012483 4.639219 0
M  V30 35 H 0.937928 -0.626688 6.153289 0
M  V30 36 H 1.298697 -1.577213 4.719742 0
M  V30 37 H 3.259881 -0.528767 5.059212 0
M  V30 38 H 1.398695 1.402124 6.398374 0
M  V30 39 H 2.992179 0.794806 6.946491 0
M  V30 40 H 3.319304 2.964489 6.611016 0
M  V30 41 H 5.047035 2.196454 5.439790 0
M  V30 42 H 4.327671 3.507304 4.500098 0
M  V30 43 H 4.104077 2.131618 2.693794 0
M  V30 44 H 4.698240 0.796110 3.707384 0
M  V30 45 H 0.884677 -0.828710 2.518441 0
M  V30 46 H -0.435881 -0.303832 0.592936 0
M  V30 47 H -0.412656 2.872155 -1.231270 0
M  V30 48 H -3.577768 1.377515 -4.107759 0
M  V30 49 H -4.863314 -0.410733 -5.309039 0
M  V30 50 H -5.877249 -2.450448 -6.193354 0
M  V30 51 H -2.502169 -4.175779 -1.221346 0
M  V30 52 H -1.162904 -5.387723 -2.534682 0
M  V30 53 H -0.388205 -3.933937 -3.357033 0
M  V30 54 H 0.859455 -5.671093 -1.603017 0
M  V30 55 H 1.361493 -3.992462 -1.968882 0
M  V30 56 H -0.365123 -5.047502 0.290187 0
M  V30 57 H 1.027139 -3.861306 0.347806 0
M  V30 58 H -0.235031 -2.177808 -0.703975 0
M  V30 59 H -1.448449 -2.872951 0.418588 0
M  V30 60 H 2.461624 3.154014 2.129772 0
M  V30 END ATOM
M  V30 BEGIN BOND
M  V30 1 1 1 2
M  V30 2 1 2 3
M  V30 3 1 3 4
M  V30 4 1 4 5
M  V30 5 1 5 6
M  V30 6 1 6 7
M  V30 7 1 7 8
M  V30 8 2 8 9
M  V30 9 1 9 10
M  V30 10 2 10 11
M  V30 11 1 11 12
M  V30 12 1 12 13
M  V30 13 2 13 14
M  V30 14 1 14 15
M  V30 15 2 15 16
M  V30 16 1 16 17
M  V30 17 2 17 18
M  V30 18 1 18 19
M  V30 19 2 19 20
M  V30 20 1 20 21
M  V30 21 1 21 22
M  V30 22 2 21 23
M  V30 23 1 23 24
M  V30 24 1 24 25
M  V30 25 1 25 26
M  V30 26 1 26 27
M  V30 27 1 27 28
M  V30 28 1 28 29
M  V30 29 1 24 30
M  V30 30 2 30 31
M  V30 31 1 11 32
M  V30 32 2 32 33
M  V30 33 1 7 2
M  V30 34 1 33 8
M  V30 35 1 31 13
M  V30 36 1 30 16
M  V30 37 1 23 17
M  V30 38 1 29 25
M  V30 39 1 1 34
M  V30 40 1 1 35
M  V30 41 1 1 36
M  V30 42 1 2 37 CFG=1
M  V30 43 1 3 38
M  V30 44 1 3 39
M  V30 45 1 4 40
M  V30 46 1 5 41
M  V30 47 1 5 42
M  V30 48 1 6 43
M  V30 49 1 6 44
M  V30 50 1 9 45
M  V30 51 1 10 46
M  V30 52 1 12 47
M  V30 53 1 15 48
M  V30 54 1 18 49
M  V30 55 1 19 50
M  V30 56 1 25 51
M  V30 57 1 26 52
M  V30 58 1 26 53
M  V30 59 1 27 54
M  V30 60 1 27 55
M  V30 61 1 28 56
M  V30 62 1 28 57
M  V30 63 1 29 58
M  V30 64 1 29 59
M  V30 65 1 33 60
M  V30 END BOND
M  V30 END CTAB
M  END
>  <Dataset>  (229) 
ChEMBL_Kinases

>  <Ligand_Instance>  (229) 
nan

>  <PDB_ID>  (229) 
nan

>  <Standardized_SMILES>  (229) 
C[C@@H]1CNCCN1c1ccc(Nc2ncc3c4ccnc(F)c4n(C4CCCC4)c3n2)nc1

>  <Name>  (229) 
nan

>  <Pocket>  (229) 
nan

>  <ATP_Site>  (229) 
nan

>  <Peripheral>  (229) 
nan

>  <Num_H_Atoms_ProtBoundConf>  (229) 
nan

>  <Num_Resolved_Atoms>  (229) 
nan

>  <Num_Not_Resolved_Atoms>  (229) 
nan

$$$$
CHEMBL4872945
     RDKit          3D

  0  0  0  0  0  0  0  0  0  0999 V3000
M  V30 BEGIN CTAB
M  V30 COUNTS 36 39 0 0 0
M  V30 BEGIN ATOM
M  V30 1 N 1.701097 -6.059147 3.232571 0
M  V30 2 C 1.296759 -4.694167 3.354598 0
M  V30 3 O 0.912685 -4.594807 4.549037 0
M  V30 4 C 1.382113 -3.764982 2.232200 0
M  V30 5 C 1.868421 -4.236042 1.031128 0
M  V30 6 C 1.921450 -3.306863 0.016664 0
M  V30 7 C 1.518639 -1.997247 0.183092 0
M  V30 8 C 1.029750 -1.553906 1.417764 0
M  V30 9 C 0.967299 -2.467436 2.449625 0
M  V30 10 N 0.705802 -0.250181 1.325863 0
M  V30 11 C 0.985824 0.126515 0.050446 0
M  V30 12 C 0.855351 1.335556 -0.602897 0
M  V30 13 N 0.339213 2.506885 0.066879 0
M  V30 14 C -1.072699 2.516353 -0.110043 0
M  V30 15 O -1.547466 1.539471 -0.785872 0
M  V30 16 C -2.027929 3.534066 0.406247 0
M  V30 17 C -3.433273 2.988718 0.702664 0
M  V30 18 C -3.239000 3.849124 -0.480150 0
M  V30 19 N 1.197677 1.515933 -1.909725 0
M  V30 20 C 1.695733 0.489592 -2.649721 0
M  V30 21 C 1.833815 -0.730660 -2.011711 0
M  V30 22 C 1.490909 -0.927495 -0.688124 0
M  V30 23 H 1.819049 -6.727853 2.422872 0
M  V30 24 H 1.866753 -6.837434 2.555656 0
M  V30 25 H 2.165753 -5.260900 0.960700 0
M  V30 26 H 2.301580 -3.633849 -0.959303 0
M  V30 27 H 0.595716 -2.179879 3.432552 0
M  V30 28 H 0.317862 0.349580 2.082156 0
M  V30 29 H 0.726774 3.317776 0.627008 0
M  V30 30 H -1.687767 4.394119 0.991166 0
M  V30 31 H -3.585110 1.886826 0.553568 0
M  V30 32 H -3.987453 3.382943 1.568550 0
M  V30 33 H -3.706592 4.843191 -0.424470 0
M  V30 34 H -3.193125 3.442078 -1.514210 0
M  V30 35 H 1.965858 0.644807 -3.692529 0
M  V30 36 H 2.232198 -1.567558 -2.589267 0
M  V30 END ATOM
M  V30 BEGIN BOND
M  V30 1 1 1 2
M  V30 2 2 2 3
M  V30 3 1 2 4
M  V30 4 2 4 5
M  V30 5 1 5 6
M  V30 6 2 6 7
M  V30 7 1 7 8
M  V30 8 2 8 9
M  V30 9 1 8 10
M  V30 10 1 10 11
M  V30 11 2 11 12
M  V30 12 1 12 13
M  V30 13 1 13 14
M  V30 14 2 14 15
M  V30 15 1 14 16
M  V30 16 1 16 17
M  V30 17 1 17 18
M  V30 18 1 12 19
M  V30 19 2 19 20
M  V30 20 1 20 21
M  V30 21 2 21 22
M  V30 22 1 9 4
M  V30 23 1 22 11
M  V30 24 1 22 7
M  V30 25 1 18 16
M  V30 26 1 1 23
M  V30 27 1 1 24
M  V30 28 1 5 25
M  V30 29 1 6 26
M  V30 30 1 9 27
M  V30 31 1 10 28
M  V30 32 1 13 29
M  V30 33 1 16 30
M  V30 34 1 17 31
M  V30 35 1 17 32
M  V30 36 1 18 33
M  V30 37 1 18 34
M  V30 38 1 20 35
M  V30 39 1 21 36
M  V30 END BOND
M  V30 END CTAB
M  END
>  <Dataset>  (230) 
ChEMBL_Kinases

>  <Ligand_Instance>  (230) 
nan

>  <PDB_ID>  (230) 
nan

>  <Standardized_SMILES>  (230) 
NC(=O)c1ccc2c(c1)[nH]c1c(NC(=O)C3CC3)nccc12

>  <Name>  (230) 
nan

>  <Pocket>  (230) 
nan

>  <ATP_Site>  (230) 
nan

>  <Peripheral>  (230) 
nan

>  <Num_H_Atoms_ProtBoundConf>  (230) 
nan

>  <Num_Resolved_Atoms>  (230) 
nan

>  <Num_Not_Resolved_Atoms>  (230) 
nan

$$$$
CHEMBL4872950
     RDKit          3D

  0  0  0  0  0  0  0  0  0  0999 V3000
M  V30 BEGIN CTAB
M  V30 COUNTS 41 44 0 0 0
M  V30 BEGIN ATOM
M  V30 1 N 0.483166 -7.308151 2.052643 0
M  V30 2 C 0.480777 -6.099630 1.270575 0
M  V30 3 O -0.108289 -5.286571 2.055557 0
M  V30 4 N 0.971389 -5.777807 -0.033880 0
M  V30 5 C 0.650604 -4.391310 -0.222533 0
M  V30 6 C 1.503562 -3.367049 0.135194 0
M  V30 7 C 1.075846 -2.068261 -0.098864 0
M  V30 8 C -0.156553 -1.883996 -0.666062 0
M  V30 9 C -0.617971 -0.508060 -0.917097 0
M  V30 10 C -1.451367 -0.177494 -1.965514 0
M  V30 11 N -1.839712 1.104447 -2.141858 0
M  V30 12 C -1.423707 2.076643 -1.303629 0
M  V30 13 N -1.637214 3.415186 -1.225598 0
M  V30 14 N -0.974877 3.906665 -0.183615 0
M  V30 15 C -0.301427 2.946138 0.471916 0
M  V30 16 C 0.535035 3.114753 1.660570 0
M  V30 17 C 1.460728 4.145572 1.781560 0
M  V30 18 C 2.228049 4.261710 2.926857 0
M  V30 19 C 2.105493 3.364328 3.988081 0
M  V30 20 O 2.876045 3.475074 5.146431 0
M  V30 21 C 1.170635 2.350027 3.828084 0
M  V30 22 C 0.396950 2.212562 2.701969 0
M  V30 23 C -0.587305 1.794299 -0.237717 0
M  V30 24 C -0.193425 0.489669 -0.060153 0
M  V30 25 C -1.026703 -2.890413 -1.032283 0
M  V30 26 C -0.589794 -4.199664 -0.793634 0
M  V30 27 H -0.379249 -7.906602 1.933061 0
M  V30 28 H 1.299776 -7.534713 2.678004 0
M  V30 29 H 1.400883 -6.632489 -0.434679 0
M  V30 30 H 2.460566 -3.609835 0.578462 0
M  V30 31 H 1.745001 -1.278398 0.182419 0
M  V30 32 H -1.774152 -0.991575 -2.632842 0
M  V30 33 H -2.239393 3.937815 -1.904739 0
M  V30 34 H 1.538316 4.824643 0.952574 0
M  V30 35 H 2.950598 5.084356 2.995458 0
M  V30 36 H 3.476277 2.715299 5.462409 0
M  V30 37 H 1.107541 1.667879 4.685749 0
M  V30 38 H -0.283030 1.386056 2.712800 0
M  V30 39 H 0.461328 0.214231 0.758622 0
M  V30 40 H -1.978819 -2.674295 -1.473078 0
M  V30 41 H -1.262741 -4.997088 -1.076138 0
M  V30 END ATOM
M  V30 BEGIN BOND
M  V30 1 1 1 2
M  V30 2 2 2 3
M  V30 3 1 2 4
M  V30 4 1 4 5
M  V30 5 2 5 6
M  V30 6 1 6 7
M  V30 7 2 7 8
M  V30 8 1 8 9
M  V30 9 2 9 10
M  V30 10 1 10 11
M  V30 11 2 11 12
M  V30 12 1 12 13
M  V30 13 1 13 14
M  V30 14 2 14 15
M  V30 15 1 15 16
M  V30 16 2 16 17
M  V30 17 1 17 18
M  V30 18 2 18 19
M  V30 19 1 19 20
M  V30 20 1 19 21
M  V30 21 2 21 22
M  V30 22 1 15 23
M  V30 23 2 23 24
M  V30 24 1 8 25
M  V30 25 2 25 26
M  V30 26 1 26 5
M  V30 27 1 24 9
M  V30 28 1 23 12
M  V30 29 1 22 16
M  V30 30 1 1 27
M  V30 31 1 1 28
M  V30 32 1 4 29
M  V30 33 1 6 30
M  V30 34 1 7 31
M  V30 35 1 10 32
M  V30 36 1 13 33
M  V30 37 1 17 34
M  V30 38 1 18 35
M  V30 39 1 20 36
M  V30 40 1 21 37
M  V30 41 1 22 38
M  V30 42 1 24 39
M  V30 43 1 25 40
M  V30 44 1 26 41
M  V30 END BOND
M  V30 END CTAB
M  END
>  <Dataset>  (231) 
ChEMBL_Kinases

>  <Ligand_Instance>  (231) 
nan

>  <PDB_ID>  (231) 
nan

>  <Standardized_SMILES>  (231) 
NC(=O)Nc1ccc(-c2cnc3[nH]nc(-c4ccc(O)cc4)c3c2)cc1

>  <Name>  (231) 
nan

>  <Pocket>  (231) 
nan

>  <ATP_Site>  (231) 
nan

>  <Peripheral>  (231) 
nan

>  <Num_H_Atoms_ProtBoundConf>  (231) 
nan

>  <Num_Resolved_Atoms>  (231) 
nan

>  <Num_Not_Resolved_Atoms>  (231) 
nan

$$$$
CHEMBL78799
     RDKit          3D

  0  0  0  0  0  0  0  0  0  0999 V3000
M  V30 BEGIN CTAB
M  V30 COUNTS 65 65 0 0 0
M  V30 BEGIN ATOM
M  V30 1 C 0.675705 -4.540413 0.039993 0
M  V30 2 C 2.028238 -5.169188 -0.096095 0
M  V30 3 C 3.038581 -4.818555 0.918135 0
M  V30 4 C 3.515372 -3.439940 1.066360 0
M  V30 5 C 2.532224 -2.400767 1.429549 0
M  V30 6 C 3.102705 -1.042322 1.586521 0
M  V30 7 C 3.836196 -0.378539 0.514360 0
M  V30 8 C 3.210350 -0.085465 -0.799255 0
M  V30 9 C 2.788787 -1.225739 -1.628624 0
M  V30 10 C 2.183052 -0.805312 -2.960090 0
M  V30 11 C 0.959210 0.059726 -2.810160 0
M  V30 12 C -0.134756 -0.622617 -2.064547 0
M  V30 13 C -1.374932 0.213910 -1.897328 0
M  V30 14 C -1.179941 1.470587 -1.171207 0
M  V30 15 C -1.802928 1.801971 -0.026977 0
M  V30 16 C -2.752349 0.869192 0.570814 0
M  V30 17 C -3.613257 1.589423 1.594707 0 CFG=1
M  V30 18 O -4.287419 0.571081 2.309917 0
M  V30 19 C -5.690141 0.562745 2.196183 0
M  V30 20 C -6.563230 -0.432223 2.876650 0
M  V30 21 O -6.307836 1.423689 1.489854 0
M  V30 22 C -2.812412 2.452756 2.536336 0 CFG=2
M  V30 23 C -3.794242 3.309638 3.305707 0
M  V30 24 O -3.142377 4.090921 4.272406 0
M  V30 25 O -1.875383 3.252224 1.884002 0
M  V30 26 C -1.483763 3.101061 0.557784 0
M  V30 27 O -0.903189 4.033493 -0.053976 0
M  V30 28 H 0.429062 -4.317501 1.092582 0
M  V30 29 H -0.126500 -5.280629 -0.334468 0
M  V30 30 H 0.501869 -3.669330 -0.606155 0
M  V30 31 H 2.463408 -4.993049 -1.121314 0
M  V30 32 H 1.867274 -6.296502 -0.107310 0
M  V30 33 H 3.965257 -5.439996 0.651210 0
M  V30 34 H 2.757746 -5.293367 1.913559 0
M  V30 35 H 4.041141 -3.171283 0.104136 0
M  V30 36 H 4.309800 -3.441580 1.864067 0
M  V30 37 H 2.191627 -2.678687 2.512815 0
M  V30 38 H 1.589900 -2.336430 0.919368 0
M  V30 39 H 3.707449 -1.062017 2.552416 0
M  V30 40 H 2.225888 -0.367211 1.861896 0
M  V30 41 H 4.885894 -0.795520 0.372453 0
M  V30 42 H 4.101198 0.662747 0.932983 0
M  V30 43 H 2.320375 0.587337 -0.549384 0
M  V30 44 H 3.891395 0.571093 -1.413987 0
M  V30 45 H 2.083400 -1.893945 -1.159245 0
M  V30 46 H 3.715776 -1.796341 -1.915135 0
M  V30 47 H 1.851070 -1.740512 -3.472671 0
M  V30 48 H 2.951963 -0.359246 -3.610721 0
M  V30 49 H 0.611598 0.259705 -3.861722 0
M  V30 50 H 1.207260 1.060739 -2.417882 0
M  V30 51 H 0.275088 -0.967563 -1.082453 0
M  V30 52 H -0.451333 -1.541170 -2.600404 0
M  V30 53 H -2.138285 -0.447141 -1.419084 0
M  V30 54 H -1.773319 0.380409 -2.920610 0
M  V30 55 H -0.467161 2.167288 -1.622814 0
M  V30 56 H -2.187350 0.100057 1.140478 0
M  V30 57 H -3.470457 0.408926 -0.133171 0
M  V30 58 H -4.349027 2.208288 1.062065 0
M  V30 59 H -5.935973 -1.280226 3.271207 0
M  V30 60 H -7.282527 -0.807425 2.106699 0
M  V30 61 H -7.088973 0.061221 3.696029 0
M  V30 62 H -2.314886 1.756037 3.247933 0
M  V30 63 H -4.298126 4.016530 2.606082 0
M  V30 64 H -4.546352 2.719026 3.836598 0
M  V30 65 H -2.348501 3.568122 4.567724 0
M  V30 END ATOM
M  V30 BEGIN BOND
M  V30 1 1 1 2
M  V30 2 1 2 3
M  V30 3 1 3 4
M  V30 4 1 4 5
M  V30 5 1 5 6
M  V30 6 1 6 7
M  V30 7 1 7 8
M  V30 8 1 8 9
M  V30 9 1 9 10
M  V30 10 1 10 11
M  V30 11 1 11 12
M  V30 12 1 12 13
M  V30 13 1 13 14
M  V30 14 2 14 15
M  V30 15 1 15 16
M  V30 16 1 16 17
M  V30 17 1 17 18
M  V30 18 1 18 19
M  V30 19 1 19 20
M  V30 20 2 19 21
M  V30 21 1 17 22
M  V30 22 1 22 23
M  V30 23 1 23 24
M  V30 24 1 22 25
M  V30 25 1 25 26
M  V30 26 2 26 27
M  V30 27 1 26 15
M  V30 28 1 1 28
M  V30 29 1 1 29
M  V30 30 1 1 30
M  V30 31 1 2 31
M  V30 32 1 2 32
M  V30 33 1 3 33
M  V30 34 1 3 34
M  V30 35 1 4 35
M  V30 36 1 4 36
M  V30 37 1 5 37
M  V30 38 1 5 38
M  V30 39 1 6 39
M  V30 40 1 6 40
M  V30 41 1 7 41
M  V30 42 1 7 42
M  V30 43 1 8 43
M  V30 44 1 8 44
M  V30 45 1 9 45
M  V30 46 1 9 46
M  V30 47 1 10 47
M  V30 48 1 10 48
M  V30 49 1 11 49
M  V30 50 1 11 50
M  V30 51 1 12 51
M  V30 52 1 12 52
M  V30 53 1 13 53
M  V30 54 1 13 54
M  V30 55 1 14 55
M  V30 56 1 16 56
M  V30 57 1 16 57
M  V30 58 1 17 58 CFG=3
M  V30 59 1 20 59
M  V30 60 1 20 60
M  V30 61 1 20 61
M  V30 62 1 22 62 CFG=1
M  V30 63 1 23 63
M  V30 64 1 23 64
M  V30 65 1 24 65
M  V30 END BOND
M  V30 END CTAB
M  END
>  <Dataset>  (232) 
ChEMBL_Kinases

>  <Ligand_Instance>  (232) 
nan

>  <PDB_ID>  (232) 
nan

>  <Standardized_SMILES>  (232) 
CCCCCCCCCCCCC/C=C1\C[C@@H](OC(C)=O)[C@H](CO)OC1=O

>  <Name>  (232) 
nan

>  <Pocket>  (232) 
nan

>  <ATP_Site>  (232) 
nan

>  <Peripheral>  (232) 
nan

>  <Num_H_Atoms_ProtBoundConf>  (232) 
nan

>  <Num_Resolved_Atoms>  (232) 
nan

>  <Num_Not_Resolved_Atoms>  (232) 
nan

$$$$
CHEMBL78779
     RDKit          3D

  0  0  0  0  0  0  0  0  0  0999 V3000
M  V30 BEGIN CTAB
M  V30 COUNTS 44 46 0 0 0
M  V30 BEGIN ATOM
M  V30 1 C 1.028354 1.385597 3.227294 0
M  V30 2 C 0.303880 1.104905 1.975537 0
M  V30 3 C 0.175483 2.142846 1.081792 0
M  V30 4 C 0.673745 3.515415 1.180007 0
M  V30 5 C 2.122198 3.664762 0.913565 0
M  V30 6 C 2.445922 3.830024 -0.439628 0
M  V30 7 C 3.758772 3.987180 -0.879667 0
M  V30 8 C 4.792901 3.984693 0.016778 0
M  V30 9 F 6.079894 4.133131 -0.360621 0
M  V30 10 C 4.473747 3.822574 1.344494 0
M  V30 11 C 3.171810 3.667499 1.773188 0
M  V30 12 C -0.525785 1.821264 -0.084507 0
M  V30 13 O -0.761716 2.630467 -1.044803 0
M  V30 14 O -1.047040 0.653425 -0.376340 0
M  V30 15 C -0.940343 -0.367493 0.463441 0
M  V30 16 C -1.476618 -1.617976 0.192384 0
M  V30 17 C -1.330400 -2.639828 1.108284 0
M  V30 18 O -1.933896 -3.836135 0.672672 0
M  V30 19 C -1.166778 -4.747089 -0.075241 0
M  V30 20 O 0.054281 -4.570776 -0.394730 0
M  V30 21 N -1.803542 -5.943520 -0.500263 0
M  V30 22 C -3.207178 -6.228082 -0.177425 0
M  V30 23 C -1.101637 -6.947019 -1.275439 0
M  V30 24 C -0.651924 -2.410802 2.287390 0
M  V30 25 C -0.131883 -1.155031 2.523983 0
M  V30 26 C -0.256742 -0.108906 1.634918 0
M  V30 27 H 2.107322 1.235820 3.016177 0
M  V30 28 H 0.896129 2.453311 3.501546 0
M  V30 29 H 0.667193 0.817516 4.109644 0
M  V30 30 H 0.120326 4.206001 0.502263 0
M  V30 31 H 0.523541 3.956040 2.209856 0
M  V30 32 H 1.697647 3.845709 -1.222864 0
M  V30 33 H 3.970745 4.113106 -1.942862 0
M  V30 34 H 5.234753 3.809005 2.121159 0
M  V30 35 H 2.908156 3.541671 2.813933 0
M  V30 36 H -1.982755 -1.653701 -0.769068 0
M  V30 37 H -3.625953 -6.959761 -0.862099 0
M  V30 38 H -3.795362 -5.266867 -0.181403 0
M  V30 39 H -3.183021 -6.672217 0.842841 0
M  V30 40 H -0.124537 -6.508277 -1.568709 0
M  V30 41 H -1.702475 -7.180033 -2.184711 0
M  V30 42 H -0.850501 -7.851697 -0.691328 0
M  V30 43 H -0.592604 -3.272223 2.934968 0
M  V30 44 H 0.383781 -1.055345 3.461180 0
M  V30 END ATOM
M  V30 BEGIN BOND
M  V30 1 1 1 2
M  V30 2 2 2 3
M  V30 3 1 3 4
M  V30 4 1 4 5
M  V30 5 2 5 6
M  V30 6 1 6 7
M  V30 7 2 7 8
M  V30 8 1 8 9
M  V30 9 1 8 10
M  V30 10 2 10 11
M  V30 11 1 3 12
M  V30 12 2 12 13
M  V30 13 1 12 14
M  V30 14 1 14 15
M  V30 15 2 15 16
M  V30 16 1 16 17
M  V30 17 1 17 18
M  V30 18 1 18 19
M  V30 19 2 19 20
M  V30 20 1 19 21
M  V30 21 1 21 22
M  V30 22 1 21 23
M  V30 23 2 17 24
M  V30 24 1 24 25
M  V30 25 2 25 26
M  V30 26 1 26 2
M  V30 27 1 11 5
M  V30 28 1 26 15
M  V30 29 1 1 27
M  V30 30 1 1 28
M  V30 31 1 1 29
M  V30 32 1 4 30
M  V30 33 1 4 31
M  V30 34 1 6 32
M  V30 35 1 7 33
M  V30 36 1 10 34
M  V30 37 1 11 35
M  V30 38 1 16 36
M  V30 39 1 22 37
M  V30 40 1 22 38
M  V30 41 1 22 39
M  V30 42 1 23 40
M  V30 43 1 23 41
M  V30 44 1 23 42
M  V30 45 1 24 43
M  V30 46 1 25 44
M  V30 END BOND
M  V30 END CTAB
M  END
>  <Dataset>  (233) 
ChEMBL_Kinases

>  <Ligand_Instance>  (233) 
nan

>  <PDB_ID>  (233) 
nan

>  <Standardized_SMILES>  (233) 
Cc1c(Cc2ccc(F)cc2)c(=O)oc2cc(OC(=O)N(C)C)ccc12

>  <Name>  (233) 
nan

>  <Pocket>  (233) 
nan

>  <ATP_Site>  (233) 
nan

>  <Peripheral>  (233) 
nan

>  <Num_H_Atoms_ProtBoundConf>  (233) 
nan

>  <Num_Resolved_Atoms>  (233) 
nan

>  <Num_Not_Resolved_Atoms>  (233) 
nan

$$$$
CHEMBL4873035
     RDKit          3D

  0  0  0  0  0  0  0  0  0  0999 V3000
M  V30 BEGIN CTAB
M  V30 COUNTS 57 60 0 0 0
M  V30 BEGIN ATOM
M  V30 1 C 0.552358 -4.467218 4.073932 0
M  V30 2 O 0.658496 -3.302815 3.283709 0
M  V30 3 C 0.812769 -3.295115 1.917353 0
M  V30 4 C 0.880743 -4.451643 1.166845 0
M  V30 5 C 1.035806 -4.414251 -0.202455 0
M  V30 6 C 1.123012 -3.163358 -0.814334 0
M  V30 7 C 1.055714 -2.002073 -0.069575 0
M  V30 8 C 0.900111 -2.048387 1.303348 0
M  V30 9 N 0.829480 -0.852366 2.080316 0
M  V30 10 C 0.907721 0.465372 1.548905 0
M  V30 11 N 2.072456 1.131082 1.401851 0
M  V30 12 C 2.183209 2.371289 0.906113 0
M  V30 13 C 0.994624 2.953904 0.539628 0
M  V30 14 C 0.986298 4.298546 -0.012335 0
M  V30 15 N 2.109370 5.141470 -0.232249 0
M  V30 16 O 0.070228 5.019635 -0.410278 0
M  V30 17 C -0.227095 2.333378 0.661991 0
M  V30 18 N -1.501297 2.843901 0.316044 0
M  V30 19 C -2.727596 2.164034 0.464246 0
M  V30 20 C -3.430116 2.297045 1.644225 0
M  V30 21 C -2.863691 3.163200 2.733506 0
M  V30 22 C -4.638519 1.674769 1.889956 0
M  V30 23 C -5.184472 0.868457 0.900270 0
M  V30 24 C -4.470042 0.747461 -0.269823 0
M  V30 25 C -3.262901 1.357802 -0.539068 0
M  V30 26 F -2.602991 1.203158 -1.710229 0
M  V30 27 N -0.235160 1.089268 1.170339 0
M  V30 28 C 1.293049 -2.909975 -2.289460 0
M  V30 29 N 1.446808 -4.129754 -3.017831 0
M  V30 30 C 2.796491 -4.572254 -3.205695 0
M  V30 31 C 0.603456 -5.158540 -2.441313 0
M  V30 32 C 1.117031 -5.619284 -1.076244 0
M  V30 33 H 0.031255 -5.287110 3.539053 0
M  V30 34 H 0.062044 -4.230641 5.042266 0
M  V30 35 H 1.571053 -4.824583 4.316586 0
M  V30 36 H 0.813388 -5.421630 1.640910 0
M  V30 37 H 1.118288 -0.997562 -0.494393 0
M  V30 38 H 0.712964 -0.930766 3.106106 0
M  V30 39 H 3.116764 2.902010 0.789158 0
M  V30 40 H 2.803455 5.160978 -1.010807 0
M  V30 41 H 2.317784 5.894134 0.490057 0
M  V30 42 H -1.844172 3.738230 -0.087890 0
M  V30 43 H -2.023970 2.690353 3.245207 0
M  V30 44 H -2.499162 4.138727 2.308278 0
M  V30 45 H -3.632744 3.441382 3.472691 0
M  V30 46 H -5.198232 1.771347 2.809996 0
M  V30 47 H -6.136459 0.334329 1.001582 0
M  V30 48 H -4.891840 0.117449 -1.048847 0
M  V30 49 H 2.030668 -2.136440 -2.494468 0
M  V30 50 H 0.292127 -2.486392 -2.597680 0
M  V30 51 H 3.462065 -4.013497 -2.519888 0
M  V30 52 H 3.174525 -4.333505 -4.234216 0
M  V30 53 H 2.911309 -5.670324 -3.077676 0
M  V30 54 H 0.394675 -5.992944 -3.107611 0
M  V30 55 H -0.380197 -4.655151 -2.232718 0
M  V30 56 H 0.439046 -6.424462 -0.756346 0
M  V30 57 H 2.132030 -6.034423 -1.119944 0
M  V30 END ATOM
M  V30 BEGIN BOND
M  V30 1 1 1 2
M  V30 2 1 2 3
M  V30 3 2 3 4
M  V30 4 1 4 5
M  V30 5 2 5 6
M  V30 6 1 6 7
M  V30 7 2 7 8
M  V30 8 1 8 9
M  V30 9 1 9 10
M  V30 10 2 10 11
M  V30 11 1 11 12
M  V30 12 2 12 13
M  V30 13 1 13 14
M  V30 14 1 14 15
M  V30 15 2 14 16
M  V30 16 1 13 17
M  V30 17 1 17 18
M  V30 18 1 18 19
M  V30 19 2 19 20
M  V30 20 1 20 21
M  V30 21 1 20 22
M  V30 22 2 22 23
M  V30 23 1 23 24
M  V30 24 2 24 25
M  V30 25 1 25 26
M  V30 26 2 17 27
M  V30 27 1 6 28
M  V30 28 1 28 29
M  V30 29 1 29 30
M  V30 30 1 29 31
M  V30 31 1 31 32
M  V30 32 1 8 3
M  V30 33 1 27 10
M  V30 34 1 32 5
M  V30 35 1 25 19
M  V30 36 1 1 33
M  V30 37 1 1 34
M  V30 38 1 1 35
M  V30 39 1 4 36
M  V30 40 1 7 37
M  V30 41 1 9 38
M  V30 42 1 12 39
M  V30 43 1 15 40
M  V30 44 1 15 41
M  V30 45 1 18 42
M  V30 46 1 21 43
M  V30 47 1 21 44
M  V30 48 1 21 45
M  V30 49 1 22 46
M  V30 50 1 23 47
M  V30 51 1 24 48
M  V30 52 1 28 49
M  V30 53 1 28 50
M  V30 54 1 30 51
M  V30 55 1 30 52
M  V30 56 1 30 53
M  V30 57 1 31 54
M  V30 58 1 31 55
M  V30 59 1 32 56
M  V30 60 1 32 57
M  V30 END BOND
M  V30 END CTAB
M  END
>  <Dataset>  (234) 
ChEMBL_Kinases

>  <Ligand_Instance>  (234) 
nan

>  <PDB_ID>  (234) 
nan

>  <Standardized_SMILES>  (234) 
COc1cc2c(cc1Nc1ncc(C(N)=O)c(Nc3c(C)cccc3F)n1)CN(C)CC2

>  <Name>  (234) 
nan

>  <Pocket>  (234) 
nan

>  <ATP_Site>  (234) 
nan

>  <Peripheral>  (234) 
nan

>  <Num_H_Atoms_ProtBoundConf>  (234) 
nan

>  <Num_Resolved_Atoms>  (234) 
nan

>  <Num_Not_Resolved_Atoms>  (234) 
nan

$$$$
CHEMBL67352
     RDKit          3D

  0  0  0  0  0  0  0  0  0  0999 V3000
M  V30 BEGIN CTAB
M  V30 COUNTS 24 25 0 0 0
M  V30 BEGIN ATOM
M  V30 1 O -0.540635 -0.141999 2.143181 0
M  V30 2 C 0.261315 0.207093 1.247002 0
M  V30 3 N 0.873617 -0.723653 0.396557 0
M  V30 4 C 0.713528 -2.137080 0.388927 0
M  V30 5 C 1.491235 -3.037921 1.121690 0
M  V30 6 C 1.222382 -4.401076 1.018348 0
M  V30 7 N 0.245494 -4.895059 0.243493 0
M  V30 8 C -0.530065 -4.046610 -0.482779 0
M  V30 9 C -0.290542 -2.675573 -0.404733 0
M  V30 10 C 0.520295 1.640686 1.140946 0
M  V30 11 C -0.114643 2.508744 2.009275 0
M  V30 12 C 0.050295 3.898353 2.007860 0
M  V30 13 C 0.927143 4.393604 1.043803 0
M  V30 14 N 1.547798 3.552350 0.196017 0
M  V30 15 C 1.371694 2.216800 0.218086 0
M  V30 16 H 1.542765 -0.439474 -0.352207 0
M  V30 17 H 2.262908 -2.604793 1.729933 0
M  V30 18 H 1.848503 -5.074960 1.603691 0
M  V30 19 H -1.345028 -4.359812 -1.138061 0
M  V30 20 H -0.906628 -2.002805 -0.981560 0
M  V30 21 H -0.798353 2.147751 2.764484 0
M  V30 22 H -0.470571 4.525247 2.708366 0
M  V30 23 H 1.086032 5.474050 1.006617 0
M  V30 24 H 1.883600 1.567881 -0.474924 0
M  V30 END ATOM
M  V30 BEGIN BOND
M  V30 1 2 1 2
M  V30 2 1 2 3
M  V30 3 1 3 4
M  V30 4 2 4 5
M  V30 5 1 5 6
M  V30 6 2 6 7
M  V30 7 1 7 8
M  V30 8 2 8 9
M  V30 9 1 2 10
M  V30 10 2 10 11
M  V30 11 1 11 12
M  V30 12 2 12 13
M  V30 13 1 13 14
M  V30 14 2 14 15
M  V30 15 1 9 4
M  V30 16 1 15 10
M  V30 17 1 3 16
M  V30 18 1 5 17
M  V30 19 1 6 18
M  V30 20 1 8 19
M  V30 21 1 9 20
M  V30 22 1 11 21
M  V30 23 1 12 22
M  V30 24 1 13 23
M  V30 25 1 15 24
M  V30 END BOND
M  V30 END CTAB
M  END
>  <Dataset>  (235) 
ChEMBL_Kinases

>  <Ligand_Instance>  (235) 
nan

>  <PDB_ID>  (235) 
nan

>  <Standardized_SMILES>  (235) 
O=C(Nc1ccncc1)c1cccnc1

>  <Name>  (235) 
nan

>  <Pocket>  (235) 
nan

>  <ATP_Site>  (235) 
nan

>  <Peripheral>  (235) 
nan

>  <Num_H_Atoms_ProtBoundConf>  (235) 
nan

>  <Num_Resolved_Atoms>  (235) 
nan

>  <Num_Not_Resolved_Atoms>  (235) 
nan

$$$$
CHEMBL4873036
     RDKit          3D

  0  0  0  0  0  0  0  0  0  0999 V3000
M  V30 BEGIN CTAB
M  V30 COUNTS 61 65 0 0 0
M  V30 BEGIN ATOM
M  V30 1 C 3.946528 -2.406693 1.889625 0
M  V30 2 O 2.737834 -2.959108 2.357966 0
M  V30 3 C 1.492616 -2.460869 1.992138 0
M  V30 4 C 1.350343 -1.372407 1.131804 0
M  V30 5 C 0.062492 -0.933602 0.813261 0
M  V30 6 C -0.138469 0.198288 -0.084675 0
M  V30 7 C 0.810278 1.166314 -0.061179 0
M  V30 8 C 0.649486 2.241447 -0.898369 0
M  V30 9 C -0.382710 2.451094 -1.772920 0
M  V30 10 O -0.832977 3.330371 -2.687851 0
M  V30 11 C -0.259277 4.527133 -3.063645 0
M  V30 12 C -0.207586 5.471090 -1.922596 0
M  V30 13 C 0.733267 5.852863 -1.005225 0
M  V30 14 C 0.439822 6.766714 -0.021229 0
M  V30 15 C -0.774612 7.356729 0.125385 0
M  V30 16 C -1.754058 7.004977 -0.774905 0
M  V30 17 C -1.466978 6.081788 -1.773229 0
M  V30 18 C -1.348649 1.425319 -1.769772 0
M  V30 19 F -2.506027 1.279644 -2.492634 0
M  V30 20 C -1.242360 0.302677 -0.939176 0
M  V30 21 C -1.067327 -1.544134 1.323882 0
M  V30 22 C -0.861720 -2.617922 2.171197 0
M  V30 23 C 0.377631 -3.106669 2.530346 0
M  V30 24 C 0.547029 -4.237239 3.428285 0
M  V30 25 C -0.264500 -5.305014 3.333883 0
M  V30 26 N -1.307163 -5.383924 2.372273 0
M  V30 27 C -1.190509 -5.443005 0.957482 0
M  V30 28 C 0.051225 -5.446581 0.359684 0
M  V30 29 C 0.074564 -5.503088 -1.037001 0
M  V30 30 C -1.069481 -5.554129 -1.816903 0
M  V30 31 C -2.289466 -5.547584 -1.153193 0
M  V30 32 C -3.500872 -5.600823 -1.953458 0
M  V30 33 N -4.461952 -5.660508 -2.594477 0
M  V30 34 C -2.346702 -5.491949 0.231449 0
M  V30 35 C 0.076793 -6.336078 4.337891 0
M  V30 36 O -0.534658 -7.428733 4.454259 0
M  V30 37 N 1.180226 -5.799204 5.062243 0
M  V30 38 C 1.471429 -4.520551 4.512664 0
M  V30 39 O 2.368023 -3.708653 4.856117 0
M  V30 40 H 3.908134 -1.306952 1.787070 0
M  V30 41 H 4.171517 -2.776131 0.846627 0
M  V30 42 H 4.785266 -2.755560 2.513662 0
M  V30 43 H 2.210007 -0.896115 0.733698 0
M  V30 44 H 1.708585 1.226412 0.536477 0
M  V30 45 H 1.338437 3.060774 -0.975061 0
M  V30 46 H -0.814203 4.995078 -3.928152 0
M  V30 47 H 0.796050 4.382492 -3.465847 0
M  V30 48 H 1.663625 5.351019 -1.199093 0
M  V30 49 H 1.259142 6.990384 0.645764 0
M  V30 50 H -0.970762 8.068241 0.907369 0
M  V30 51 H -2.712874 7.484597 -0.642466 0
M  V30 52 H -2.358901 5.918694 -2.400110 0
M  V30 53 H -1.905534 -0.542841 -0.841674 0
M  V30 54 H -2.069375 -1.202894 1.077219 0
M  V30 55 H -1.766211 -3.068189 2.552983 0
M  V30 56 H -2.225518 -5.394044 2.866232 0
M  V30 57 H 0.971288 -5.411146 0.891874 0
M  V30 58 H 1.038148 -5.507778 -1.570823 0
M  V30 59 H -0.974567 -5.596878 -2.901913 0
M  V30 60 H -3.305193 -5.487099 0.735589 0
M  V30 61 H 1.663586 -6.280656 5.846609 0
M  V30 END ATOM
M  V30 BEGIN BOND
M  V30 1 1 1 2
M  V30 2 1 2 3
M  V30 3 2 3 4
M  V30 4 1 4 5
M  V30 5 1 5 6
M  V30 6 2 6 7
M  V30 7 1 7 8
M  V30 8 2 8 9
M  V30 9 1 9 10
M  V30 10 1 10 11
M  V30 11 1 11 12
M  V30 12 2 12 13
M  V30 13 1 13 14
M  V30 14 2 14 15
M  V30 15 1 15 16
M  V30 16 2 16 17
M  V30 17 1 9 18
M  V30 18 1 18 19
M  V30 19 2 18 20
M  V30 20 2 5 21
M  V30 21 1 21 22
M  V30 22 2 22 23
M  V30 23 1 23 24
M  V30 24 2 24 25
M  V30 25 1 25 26
M  V30 26 1 26 27
M  V30 27 2 27 28
M  V30 28 1 28 29
M  V30 29 2 29 30
M  V30 30 1 30 31
M  V30 31 1 31 32
M  V30 32 3 32 33
M  V30 33 2 31 34
M  V30 34 1 25 35
M  V30 35 2 35 36
M  V30 36 1 35 37
M  V30 37 1 37 38
M  V30 38 2 38 39
M  V30 39 1 23 3
M  V30 40 1 38 24
M  V30 41 1 20 6
M  V30 42 1 34 27
M  V30 43 1 17 12
M  V30 44 1 1 40
M  V30 45 1 1 41
M  V30 46 1 1 42
M  V30 47 1 4 43
M  V30 48 1 7 44
M  V30 49 1 8 45
M  V30 50 1 11 46
M  V30 51 1 11 47
M  V30 52 1 13 48
M  V30 53 1 14 49
M  V30 54 1 15 50
M  V30 55 1 16 51
M  V30 56 1 17 52
M  V30 57 1 20 53
M  V30 58 1 21 54
M  V30 59 1 22 55
M  V30 60 1 26 56
M  V30 61 1 28 57
M  V30 62 1 29 58
M  V30 63 1 30 59
M  V30 64 1 34 60
M  V30 65 1 37 61
M  V30 END BOND
M  V30 END CTAB
M  END
>  <Dataset>  (236) 
ChEMBL_Kinases

>  <Ligand_Instance>  (236) 
nan

>  <PDB_ID>  (236) 
nan

>  <Standardized_SMILES>  (236) 
COc1cc(-c2ccc(OCc3ccccc3)c(F)c2)ccc1C1=C(Nc2cccc(C#N)c2)C(=O)NC1=O

>  <Name>  (236) 
nan

>  <Pocket>  (236) 
nan

>  <ATP_Site>  (236) 
nan

>  <Peripheral>  (236) 
nan

>  <Num_H_Atoms_ProtBoundConf>  (236) 
nan

>  <Num_Resolved_Atoms>  (236) 
nan

>  <Num_Not_Resolved_Atoms>  (236) 
nan

$$$$
CHEMBL4873038
     RDKit          3D

  0  0  0  0  0  0  0  0  0  0999 V3000
M  V30 BEGIN CTAB
M  V30 COUNTS 53 57 0 0 0
M  V30 BEGIN ATOM
M  V30 1 C 2.839415 0.437508 3.069263 0
M  V30 2 C 4.243008 0.534973 2.576042 0
M  V30 3 C 5.095708 -0.435579 3.366195 0
M  V30 4 N 4.799687 1.868908 2.621496 0
M  V30 5 C 5.628637 2.494259 3.479215 0
M  V30 6 N 5.836004 3.748515 3.057028 0
M  V30 7 N 5.143770 3.905492 1.946774 0
M  V30 8 C 4.493117 2.741119 1.664207 0
M  V30 9 C 3.648413 2.640152 0.478819 0
M  V30 10 C 3.917071 3.338124 -0.681530 0
M  V30 11 C 3.114099 3.248072 -1.822358 0
M  V30 12 C 2.003784 2.428030 -1.793809 0
M  V30 13 C 1.742007 1.729717 -0.621193 0
M  V30 14 N 0.611756 0.864592 -0.521198 0
M  V30 15 C -0.680938 1.243775 -0.081740 0
M  V30 16 O -1.021915 2.414977 0.288533 0
M  V30 17 C -1.745326 0.228087 -0.035236 0
M  V30 18 C -3.048547 0.491934 0.378965 0
M  V30 19 C -3.772457 -0.692519 0.293861 0
M  V30 20 C -5.063942 -1.113527 0.542641 0
M  V30 21 C -5.468100 -2.418511 0.342615 0
M  V30 22 C -4.571092 -3.371159 -0.125052 0
M  V30 23 C -4.963219 -4.758388 -0.347656 0
M  V30 24 C -4.297203 -5.430844 -1.374024 0
M  V30 25 C -4.656814 -6.743591 -1.596670 0
M  V30 26 C -5.625490 -7.417160 -0.869487 0
M  V30 27 N -6.238149 -6.708442 0.116446 0
M  V30 28 C -5.929285 -5.423701 0.380581 0
M  V30 29 C -3.255820 -2.974055 -0.385918 0
M  V30 30 C -2.881242 -1.645786 -0.172405 0
M  V30 31 N -1.658587 -1.073681 -0.366921 0
M  V30 32 N 2.548297 1.865173 0.420339 0
M  V30 33 H 2.185245 -0.154091 2.407632 0
M  V30 34 H 2.841092 0.028684 4.100256 0
M  V30 35 H 2.471265 1.491157 3.193052 0
M  V30 36 H 4.268110 0.135601 1.519771 0
M  V30 37 H 4.513317 -1.371517 3.524783 0
M  V30 38 H 5.315942 -0.022003 4.376489 0
M  V30 39 H 6.006597 -0.764250 2.822752 0
M  V30 40 H 6.024352 2.002008 4.347376 0
M  V30 41 H 4.796179 4.000028 -0.733031 0
M  V30 42 H 3.314711 3.788970 -2.733983 0
M  V30 43 H 1.310613 2.285861 -2.630031 0
M  V30 44 H 0.749159 -0.150453 -0.799415 0
M  V30 45 H -3.513730 1.398811 0.719293 0
M  V30 46 H -5.763531 -0.348946 0.912431 0
M  V30 47 H -6.495587 -2.688742 0.555734 0
M  V30 48 H -3.534967 -4.954056 -1.970886 0
M  V30 49 H -4.129592 -7.244991 -2.394888 0
M  V30 50 H -5.885085 -8.444632 -1.067146 0
M  V30 51 H -6.393358 -4.832298 1.152530 0
M  V30 52 H -2.507662 -3.673968 -0.753551 0
M  V30 53 H -0.773650 -1.511618 -0.709392 0
M  V30 END ATOM
M  V30 BEGIN BOND
M  V30 1 1 1 2
M  V30 2 1 2 3
M  V30 3 1 2 4
M  V30 4 1 4 5
M  V30 5 2 5 6
M  V30 6 1 6 7
M  V30 7 2 7 8
M  V30 8 1 8 9
M  V30 9 2 9 10
M  V30 10 1 10 11
M  V30 11 2 11 12
M  V30 12 1 12 13
M  V30 13 1 13 14
M  V30 14 1 14 15
M  V30 15 2 15 16
M  V30 16 1 15 17
M  V30 17 2 17 18
M  V30 18 1 18 19
M  V30 19 2 19 20
M  V30 20 1 20 21
M  V30 21 2 21 22
M  V30 22 1 22 23
M  V30 23 2 23 24
M  V30 24 1 24 25
M  V30 25 2 25 26
M  V30 26 1 26 27
M  V30 27 2 27 28
M  V30 28 1 22 29
M  V30 29 2 29 30
M  V30 30 1 30 31
M  V30 31 2 13 32
M  V30 32 1 8 4
M  V30 33 1 32 9
M  V30 34 1 31 17
M  V30 35 1 30 19
M  V30 36 1 28 23
M  V30 37 1 1 33
M  V30 38 1 1 34
M  V30 39 1 1 35
M  V30 40 1 2 36
M  V30 41 1 3 37
M  V30 42 1 3 38
M  V30 43 1 3 39
M  V30 44 1 5 40
M  V30 45 1 10 41
M  V30 46 1 11 42
M  V30 47 1 12 43
M  V30 48 1 14 44
M  V30 49 1 18 45
M  V30 50 1 20 46
M  V30 51 1 21 47
M  V30 52 1 24 48
M  V30 53 1 25 49
M  V30 54 1 26 50
M  V30 55 1 28 51
M  V30 56 1 29 52
M  V30 57 1 31 53
M  V30 END BOND
M  V30 END CTAB
M  END
>  <Dataset>  (237) 
ChEMBL_Kinases

>  <Ligand_Instance>  (237) 
nan

>  <PDB_ID>  (237) 
nan

>  <Standardized_SMILES>  (237) 
CC(C)n1cnnc1-c1cccc(NC(=O)c2cc3ccc(-c4cccnc4)cc3[nH]2)n1

>  <Name>  (237) 
nan

>  <Pocket>  (237) 
nan

>  <ATP_Site>  (237) 
nan

>  <Peripheral>  (237) 
nan

>  <Num_H_Atoms_ProtBoundConf>  (237) 
nan

>  <Num_Resolved_Atoms>  (237) 
nan

>  <Num_Not_Resolved_Atoms>  (237) 
nan

$$$$
CHEMBL77588
     RDKit          3D

  0  0  0  0  0  0  0  0  0  0999 V3000
M  V30 BEGIN CTAB
M  V30 COUNTS 42 44 0 0 0
M  V30 BEGIN ATOM
M  V30 1 C -4.250182 -6.098754 1.110493 0
M  V30 2 O -3.275603 -5.415604 1.920672 0
M  V30 3 C -2.555561 -4.359479 1.372890 0
M  V30 4 C -2.696965 -3.909300 0.083804 0
M  V30 5 C -1.990316 -2.862915 -0.461457 0
M  V30 6 C -1.065354 -2.177828 0.273840 0
M  V30 7 C -0.273454 -1.019036 -0.152112 0
M  V30 8 O 0.639836 -0.631104 0.666343 0
M  V30 9 C 1.477187 0.341618 0.576516 0
M  V30 10 C 2.413159 0.675267 1.496433 0
M  V30 11 C 3.276245 1.735051 1.315704 0
M  V30 12 O 4.195197 1.981398 2.338137 0
M  V30 13 C 4.167388 1.140788 3.486259 0
M  V30 14 C 3.152276 2.454031 0.147623 0
M  V30 15 O 4.092177 3.463520 0.129957 0
M  V30 16 C 3.811653 4.682511 0.837857 0
M  V30 17 C 2.192046 2.128577 -0.811757 0
M  V30 18 O 2.172979 2.934132 -1.940380 0
M  V30 19 C 1.303522 1.058266 -0.650842 0
M  V30 20 C 0.374758 0.756430 -1.607577 0
M  V30 21 O 0.355697 1.474067 -2.604500 0
M  V30 22 C -0.431872 -0.327974 -1.321665 0
M  V30 23 O -1.387526 -0.690502 -2.238380 0
M  V30 24 C -0.927043 -2.636773 1.570145 0
M  V30 25 C -1.608205 -3.674015 2.157152 0
M  V30 26 O -1.419233 -4.076059 3.460729 0
M  V30 27 H -5.098845 -5.399419 0.861307 0
M  V30 28 H -4.681755 -6.941439 1.645373 0
M  V30 29 H -3.792565 -6.378510 0.134032 0
M  V30 30 H -3.425435 -4.444198 -0.538063 0
M  V30 31 H -2.150464 -2.587301 -1.473114 0
M  V30 32 H 2.372419 0.017829 2.352160 0
M  V30 33 H 3.131689 1.088578 3.892831 0
M  V30 34 H 4.474638 0.104381 3.242233 0
M  V30 35 H 4.835933 1.511967 4.269300 0
M  V30 36 H 3.203026 5.365874 0.265641 0
M  V30 37 H 3.406539 4.408493 1.857694 0
M  V30 38 H 4.849745 5.085749 1.061306 0
M  V30 39 H 1.487280 3.703444 -1.895346 0
M  V30 40 H -1.778032 -0.150341 -2.969944 0
M  V30 41 H -0.218376 -2.167101 2.268308 0
M  V30 42 H -0.493710 -3.956866 3.902114 0
M  V30 END ATOM
M  V30 BEGIN BOND
M  V30 1 1 1 2
M  V30 2 1 2 3
M  V30 3 2 3 4
M  V30 4 1 4 5
M  V30 5 2 5 6
M  V30 6 1 6 7
M  V30 7 1 7 8
M  V30 8 1 8 9
M  V30 9 2 9 10
M  V30 10 1 10 11
M  V30 11 1 11 12
M  V30 12 1 12 13
M  V30 13 2 11 14
M  V30 14 1 14 15
M  V30 15 1 15 16
M  V30 16 1 14 17
M  V30 17 1 17 18
M  V30 18 2 17 19
M  V30 19 1 19 20
M  V30 20 2 20 21
M  V30 21 1 20 22
M  V30 22 1 22 23
M  V30 23 1 6 24
M  V30 24 2 24 25
M  V30 25 1 25 26
M  V30 26 1 25 3
M  V30 27 2 22 7
M  V30 28 1 19 9
M  V30 29 1 1 27
M  V30 30 1 1 28
M  V30 31 1 1 29
M  V30 32 1 4 30
M  V30 33 1 5 31
M  V30 34 1 10 32
M  V30 35 1 13 33
M  V30 36 1 13 34
M  V30 37 1 13 35
M  V30 38 1 16 36
M  V30 39 1 16 37
M  V30 40 1 16 38
M  V30 41 1 18 39
M  V30 42 1 23 40
M  V30 43 1 24 41
M  V30 44 1 26 42
M  V30 END BOND
M  V30 END CTAB
M  END
>  <Dataset>  (238) 
ChEMBL_Kinases

>  <Ligand_Instance>  (238) 
nan

>  <PDB_ID>  (238) 
nan

>  <Standardized_SMILES>  (238) 
COc1ccc(-c2oc3cc(OC)c(OC)c(O)c3c(=O)c2O)cc1O

>  <Name>  (238) 
nan

>  <Pocket>  (238) 
nan

>  <ATP_Site>  (238) 
nan

>  <Peripheral>  (238) 
nan

>  <Num_H_Atoms_ProtBoundConf>  (238) 
nan

>  <Num_Resolved_Atoms>  (238) 
nan

>  <Num_Not_Resolved_Atoms>  (238) 
nan

$$$$
CHEMBL4873095
     RDKit          3D

  0  0  0  0  0  0  0  0  0  0999 V3000
M  V30 BEGIN CTAB
M  V30 COUNTS 34 36 0 0 0
M  V30 BEGIN ATOM
M  V30 1 C -1.540170 -0.849170 4.781837 0
M  V30 2 O -0.895740 -0.219787 3.691609 0
M  V30 3 C -0.801922 -0.875143 2.474249 0
M  V30 4 C -1.338236 -2.138656 2.333192 0
M  V30 5 N -1.255595 -2.787353 1.159676 0
M  V30 6 C -0.640964 -2.196719 0.106230 0
M  V30 7 N -0.576433 -2.918519 -1.115500 0
M  V30 8 C -0.003224 -2.572564 -2.386858 0
M  V30 9 C -1.151281 -4.243769 -1.228242 0
M  V30 10 N -0.120392 -0.965898 0.249368 0
M  V30 11 C -0.177005 -0.275176 1.402394 0
M  V30 12 C 0.414646 1.054033 1.465887 0
M  V30 13 C 0.503266 1.965961 2.486862 0
M  V30 14 N 1.140631 3.048742 2.060264 0
M  V30 15 N 1.491647 2.906170 0.776927 0
M  V30 16 N 2.136165 3.746939 -0.015275 0
M  V30 17 C 2.413290 3.446673 -1.295044 0
M  V30 18 C 2.002719 2.219100 -1.772391 0
M  V30 19 C 1.334221 1.377289 -0.907784 0
M  V30 20 C 1.043587 1.673123 0.407297 0
M  V30 21 H -2.527073 -1.243789 4.469283 0
M  V30 22 H -0.949918 -1.752980 5.110504 0
M  V30 23 H -1.590991 -0.190963 5.662653 0
M  V30 24 H -1.837836 -2.646637 3.149861 0
M  V30 25 H 0.775149 -3.346829 -2.630862 0
M  V30 26 H -0.826619 -2.602750 -3.149397 0
M  V30 27 H 0.501002 -1.605013 -2.433623 0
M  V30 28 H -0.283460 -4.936949 -1.406071 0
M  V30 29 H -1.811538 -4.358582 -2.111371 0
M  V30 30 H -1.702995 -4.550933 -0.316229 0
M  V30 31 H 0.119563 1.834920 3.482596 0
M  V30 32 H 2.940019 4.126779 -1.952415 0
M  V30 33 H 2.189598 1.906999 -2.790983 0
M  V30 34 H 1.024281 0.427967 -1.300399 0
M  V30 END ATOM
M  V30 BEGIN BOND
M  V30 1 1 1 2
M  V30 2 1 2 3
M  V30 3 2 3 4
M  V30 4 1 4 5
M  V30 5 2 5 6
M  V30 6 1 6 7
M  V30 7 1 7 8
M  V30 8 1 7 9
M  V30 9 1 6 10
M  V30 10 2 10 11
M  V30 11 1 11 12
M  V30 12 1 12 13
M  V30 13 2 13 14
M  V30 14 1 14 15
M  V30 15 1 15 16
M  V30 16 2 16 17
M  V30 17 1 17 18
M  V30 18 2 18 19
M  V30 19 1 19 20
M  V30 20 1 11 3
M  V30 21 2 20 12
M  V30 22 1 20 15
M  V30 23 1 1 21
M  V30 24 1 1 22
M  V30 25 1 1 23
M  V30 26 1 4 24
M  V30 27 1 8 25
M  V30 28 1 8 26
M  V30 29 1 8 27
M  V30 30 1 9 28
M  V30 31 1 9 29
M  V30 32 1 9 30
M  V30 33 1 13 31
M  V30 34 1 17 32
M  V30 35 1 18 33
M  V30 36 1 19 34
M  V30 END BOND
M  V30 END CTAB
M  END
>  <Dataset>  (239) 
ChEMBL_Kinases

>  <Ligand_Instance>  (239) 
nan

>  <PDB_ID>  (239) 
nan

>  <Standardized_SMILES>  (239) 
COc1cnc(N(C)C)nc1-c1cnn2ncccc12

>  <Name>  (239) 
nan

>  <Pocket>  (239) 
nan

>  <ATP_Site>  (239) 
nan

>  <Peripheral>  (239) 
nan

>  <Num_H_Atoms_ProtBoundConf>  (239) 
nan

>  <Num_Resolved_Atoms>  (239) 
nan

>  <Num_Not_Resolved_Atoms>  (239) 
nan

$$$$
CHEMBL4873120
     RDKit          3D

  0  0  0  0  0  0  0  0  0  0999 V3000
M  V30 BEGIN CTAB
M  V30 COUNTS 37 38 0 0 0
M  V30 BEGIN ATOM
M  V30 1 C -2.726366 -3.865583 2.634369 0
M  V30 2 C -1.532395 -4.552945 2.059165 0
M  V30 3 C -0.220455 -3.885681 2.344058 0 CFG=1
M  V30 4 N 0.883187 -4.644830 1.733223 0
M  V30 5 C -0.130437 -2.535298 1.697953 0
M  V30 6 O 0.817986 -3.176134 1.165236 0
M  V30 7 N -0.795972 -1.283919 1.733461 0
M  V30 8 C -0.243324 -0.310709 0.854688 0
M  V30 9 C -0.803525 -0.315120 -0.410288 0
M  V30 10 C -0.350662 0.587282 -1.360686 0
M  V30 11 C 0.653896 1.457693 -0.985553 0
M  V30 12 C 1.145822 2.416779 -1.971500 0
M  V30 13 C 0.723137 2.572786 -3.275727 0
M  V30 14 N 1.415362 3.572146 -3.894332 0
M  V30 15 C 2.256965 3.999830 -2.918148 0
M  V30 16 O 2.089931 3.321407 -1.809015 0
M  V30 17 C 1.218228 1.468333 0.275150 0
M  V30 18 O 2.212725 2.365073 0.569601 0
M  V30 19 C 2.878079 2.501352 1.784401 0
M  V30 20 C 0.763321 0.566710 1.219185 0
M  V30 21 H -2.495566 -3.329160 3.587806 0
M  V30 22 H -3.552454 -4.615043 2.811440 0
M  V30 23 H -3.179448 -3.133695 1.934873 0
M  V30 24 H -1.460075 -5.603525 2.395229 0
M  V30 25 H -1.668028 -4.619036 0.946885 0
M  V30 26 H -0.026764 -3.803577 3.417572 0
M  V30 27 H 0.569272 -5.600533 1.467667 0
M  V30 28 H 1.706870 -4.669649 2.347345 0
M  V30 29 H -1.546891 -1.449070 2.439218 0
M  V30 30 H -1.585870 -0.985246 -0.719442 0
M  V30 31 H -0.786425 0.593430 -2.365697 0
M  V30 32 H -0.066534 1.953176 -3.712456 0
M  V30 33 H 2.994054 4.801993 -3.001793 0
M  V30 34 H 2.249643 2.301961 2.668870 0
M  V30 35 H 3.247426 3.563414 1.827443 0
M  V30 36 H 3.784396 1.857104 1.735877 0
M  V30 37 H 1.158539 0.521859 2.216892 0
M  V30 END ATOM
M  V30 BEGIN BOND
M  V30 1 1 1 2
M  V30 2 1 2 3
M  V30 3 1 3 4
M  V30 4 1 3 5
M  V30 5 2 5 6
M  V30 6 1 5 7
M  V30 7 1 7 8
M  V30 8 2 8 9
M  V30 9 1 9 10
M  V30 10 2 10 11
M  V30 11 1 11 12
M  V30 12 2 12 13
M  V30 13 1 13 14
M  V30 14 2 14 15
M  V30 15 1 15 16
M  V30 16 1 11 17
M  V30 17 1 17 18
M  V30 18 1 18 19
M  V30 19 2 17 20
M  V30 20 1 20 8
M  V30 21 1 16 12
M  V30 22 1 1 21
M  V30 23 1 1 22
M  V30 24 1 1 23
M  V30 25 1 2 24
M  V30 26 1 2 25
M  V30 27 1 3 26 CFG=1
M  V30 28 1 4 27
M  V30 29 1 4 28
M  V30 30 1 7 29
M  V30 31 1 9 30
M  V30 32 1 10 31
M  V30 33 1 13 32
M  V30 34 1 15 33
M  V30 35 1 19 34
M  V30 36 1 19 35
M  V30 37 1 19 36
M  V30 38 1 20 37
M  V30 END BOND
M  V30 END CTAB
M  END
>  <Dataset>  (240) 
ChEMBL_Kinases

>  <Ligand_Instance>  (240) 
nan

>  <PDB_ID>  (240) 
nan

>  <Standardized_SMILES>  (240) 
CC[C@@H](N)C(=O)Nc1ccc(-c2cnco2)c(OC)c1

>  <Name>  (240) 
nan

>  <Pocket>  (240) 
nan

>  <ATP_Site>  (240) 
nan

>  <Peripheral>  (240) 
nan

>  <Num_H_Atoms_ProtBoundConf>  (240) 
nan

>  <Num_Resolved_Atoms>  (240) 
nan

>  <Num_Not_Resolved_Atoms>  (240) 
nan

$$$$
CHEMBL4873154
     RDKit          3D

  0  0  0  0  0  0  0  0  0  0999 V3000
M  V30 BEGIN CTAB
M  V30 COUNTS 51 54 0 0 0
M  V30 BEGIN ATOM
M  V30 1 C 4.935572 1.435943 4.365480 0
M  V30 2 N 5.261049 0.031922 4.316753 0
M  V30 3 N 6.204610 -0.635493 4.971626 0
M  V30 4 C 6.152192 -1.920165 4.625810 0
M  V30 5 C 5.127354 -2.111984 3.699911 0
M  V30 6 Cl 4.709378 -3.653737 2.979380 0
M  V30 7 C 4.577201 -0.840071 3.524764 0
M  V30 8 C 3.459361 -0.665513 2.604397 0
M  V30 9 C 3.446517 -1.241204 1.350764 0
M  V30 10 C 2.377738 -1.080178 0.458163 0
M  V30 11 F 2.519364 -1.717004 -0.747908 0
M  V30 12 C 1.281427 -0.322655 0.817171 0
M  V30 13 C 0.221859 -0.209994 -0.169153 0
M  V30 14 O 0.387153 -0.804572 -1.260823 0
M  V30 15 N -0.996551 0.475556 -0.103204 0
M  V30 16 C -1.983804 0.537024 -1.116095 0 CFG=2
M  V30 17 C -2.355344 1.833036 -1.695239 0
M  V30 18 N -3.364481 1.570053 -2.722794 0
M  V30 19 C -4.581982 1.290519 -1.943747 0
M  V30 20 C -4.415261 -0.095759 -1.418422 0
M  V30 21 C -3.172267 -0.272077 -0.625816 0 CFG=1
M  V30 22 C -2.791642 -1.718451 -0.468269 0
M  V30 23 C -2.470531 -2.285499 -1.702871 0
M  V30 24 C -2.092634 -3.602105 -1.794741 0
M  V30 25 C -2.031182 -4.367172 -0.654849 0
M  V30 26 F -1.665685 -5.664205 -0.694316 0
M  V30 27 C -2.351951 -3.797297 0.571115 0
M  V30 28 F -2.313385 -4.495516 1.743752 0
M  V30 29 C -2.733001 -2.477973 0.681340 0
M  V30 30 C 1.328629 0.235149 2.072156 0
M  V30 31 F 0.276948 0.983477 2.462877 0
M  V30 32 C 2.365711 0.092689 2.967963 0
M  V30 33 H 4.116681 1.644994 5.098377 0
M  V30 34 H 4.803702 1.913458 3.389447 0
M  V30 35 H 5.834660 1.935072 4.831451 0
M  V30 36 H 6.820747 -2.677341 5.023346 0
M  V30 37 H 4.300535 -1.833879 1.066068 0
M  V30 38 H -1.201624 0.994955 0.780040 0
M  V30 39 H -1.577953 -0.074572 -1.960399 0
M  V30 40 H -2.790185 2.607452 -1.081165 0
M  V30 41 H -1.525021 2.312643 -2.255259 0
M  V30 42 H -3.564908 2.473017 -3.219391 0
M  V30 43 H -5.482656 1.397805 -2.550865 0
M  V30 44 H -4.599192 2.010438 -1.099801 0
M  V30 45 H -5.300548 -0.284444 -0.741987 0
M  V30 46 H -4.485588 -0.869783 -2.183841 0
M  V30 47 H -3.407139 0.039060 0.436120 0
M  V30 48 H -2.484675 -1.775281 -2.665819 0
M  V30 49 H -1.834059 -4.086932 -2.729198 0
M  V30 50 H -3.000925 -1.930698 1.556281 0
M  V30 51 H 2.313492 0.570586 3.936079 0
M  V30 END ATOM
M  V30 BEGIN BOND
M  V30 1 1 1 2
M  V30 2 1 2 3
M  V30 3 2 3 4
M  V30 4 1 4 5
M  V30 5 1 5 6
M  V30 6 2 5 7
M  V30 7 1 7 8
M  V30 8 2 8 9
M  V30 9 1 9 10
M  V30 10 1 10 11
M  V30 11 2 10 12
M  V30 12 1 12 13
M  V30 13 2 13 14
M  V30 14 1 13 15
M  V30 15 1 15 16
M  V30 16 1 16 17
M  V30 17 1 17 18
M  V30 18 1 18 19
M  V30 19 1 19 20
M  V30 20 1 20 21
M  V30 21 1 21 22
M  V30 22 2 22 23
M  V30 23 1 23 24
M  V30 24 2 24 25
M  V30 25 1 25 26
M  V30 26 1 25 27
M  V30 27 1 27 28
M  V30 28 2 27 29
M  V30 29 1 12 30
M  V30 30 1 30 31
M  V30 31 2 30 32
M  V30 32 1 7 2
M  V30 33 1 32 8
M  V30 34 1 21 16
M  V30 35 1 29 22
M  V30 36 1 1 33
M  V30 37 1 1 34
M  V30 38 1 1 35
M  V30 39 1 4 36
M  V30 40 1 9 37
M  V30 41 1 15 38
M  V30 42 1 16 39 CFG=3
M  V30 43 1 17 40
M  V30 44 1 17 41
M  V30 45 1 18 42
M  V30 46 1 19 43
M  V30 47 1 19 44
M  V30 48 1 20 45
M  V30 49 1 20 46
M  V30 50 1 21 47 CFG=1
M  V30 51 1 23 48
M  V30 52 1 24 49
M  V30 53 1 29 50
M  V30 54 1 32 51
M  V30 END BOND
M  V30 END CTAB
M  END
>  <Dataset>  (241) 
ChEMBL_Kinases

>  <Ligand_Instance>  (241) 
nan

>  <PDB_ID>  (241) 
nan

>  <Standardized_SMILES>  (241) 
Cn1ncc(Cl)c1-c1cc(F)c(C(=O)N[C@@H]2CNCC[C@H]2c2ccc(F)c(F)c2)c(F)c1

>  <Name>  (241) 
nan

>  <Pocket>  (241) 
nan

>  <ATP_Site>  (241) 
nan

>  <Peripheral>  (241) 
nan

>  <Num_H_Atoms_ProtBoundConf>  (241) 
nan

>  <Num_Resolved_Atoms>  (241) 
nan

>  <Num_Not_Resolved_Atoms>  (241) 
nan

$$$$
CHEMBL4873162
     RDKit          3D

  0  0  0  0  0  0  0  0  0  0999 V3000
M  V30 BEGIN CTAB
M  V30 COUNTS 59 63 0 0 0
M  V30 BEGIN ATOM
M  V30 1 O -0.770074 -1.499216 4.049611 0
M  V30 2 C -1.078148 -1.695715 2.823246 0
M  V30 3 N -0.472215 -0.654903 2.094144 0
M  V30 4 C 0.326098 0.401679 2.624179 0
M  V30 5 C 1.574414 0.008001 3.330173 0
M  V30 6 C 2.538557 -0.754727 2.456005 0
M  V30 7 C 3.115294 0.094955 1.351868 0
M  V30 8 N 3.226664 1.428192 1.811817 0
M  V30 9 C 3.756824 2.395741 0.923915 0
M  V30 10 C 2.817924 2.453444 -0.250583 0
M  V30 11 C 2.915748 1.683540 -1.389753 0
M  V30 12 C 1.976687 1.841113 -2.399247 0
M  V30 13 C 0.935833 2.757473 -2.292661 0
M  V30 14 C 0.797112 3.542079 -1.184332 0
M  V30 15 C 1.751512 3.353371 -0.205719 0
M  V30 16 C 3.525845 1.564633 3.194058 0
M  V30 17 C 2.205316 1.254883 3.917480 0
M  V30 18 C -1.900424 -2.839864 2.523478 0
M  V30 19 N -2.253397 -3.606294 3.577007 0
M  V30 20 N -3.009976 -4.615023 3.119334 0
M  V30 21 C -3.186409 -4.565607 1.793154 0
M  V30 22 C -3.844409 -5.317073 0.856935 0
M  V30 23 C -3.757694 -4.884945 -0.443178 0
M  V30 24 C -3.053094 -3.753606 -0.835916 0
M  V30 25 C -3.005124 -3.353696 -2.235934 0
M  V30 26 C -3.990081 -3.540673 -3.169966 0
M  V30 27 C -3.793781 -3.102482 -4.463686 0
M  V30 28 C -2.624497 -2.477278 -4.843484 0
M  V30 29 N -1.669600 -2.302943 -3.912209 0
M  V30 30 C -1.838880 -2.722307 -2.643278 0
M  V30 31 C -2.412669 -3.040618 0.152082 0
M  V30 32 C -2.485482 -3.452871 1.453320 0
M  V30 33 H -0.670450 -0.730486 1.075320 0
M  V30 34 H -0.273908 1.093588 3.288098 0
M  V30 35 H 0.591753 1.072650 1.758569 0
M  V30 36 H 1.345346 -0.635112 4.198299 0
M  V30 37 H 2.019900 -1.643178 2.078401 0
M  V30 38 H 3.370237 -1.092012 3.107477 0
M  V30 39 H 4.135390 -0.283619 1.052932 0
M  V30 40 H 2.518539 0.047813 0.420158 0
M  V30 41 H 3.715156 3.385873 1.407497 0
M  V30 42 H 4.774704 2.189399 0.540476 0
M  V30 43 H 3.731127 0.991471 -1.430226 0
M  V30 44 H 2.057641 1.232049 -3.295027 0
M  V30 45 H 0.194463 2.882292 -3.088809 0
M  V30 46 H 0.019530 4.282423 -1.013871 0
M  V30 47 H 1.671666 3.962413 0.692943 0
M  V30 48 H 3.858787 2.590857 3.422398 0
M  V30 49 H 4.256870 0.812583 3.561672 0
M  V30 50 H 2.364596 1.198907 5.009238 0
M  V30 51 H 1.568828 2.144926 3.737282 0
M  V30 52 H -3.402224 -5.346836 3.775187 0
M  V30 53 H -4.380244 -6.182507 1.179135 0
M  V30 54 H -4.269412 -5.462285 -1.203159 0
M  V30 55 H -4.884871 -4.033655 -2.826171 0
M  V30 56 H -4.621709 -3.286988 -5.147637 0
M  V30 57 H -2.517796 -2.147496 -5.883061 0
M  V30 58 H -0.954986 -2.490763 -2.039411 0
M  V30 59 H -1.867941 -2.166505 -0.150022 0
M  V30 END ATOM
M  V30 BEGIN BOND
M  V30 1 2 1 2
M  V30 2 1 2 3
M  V30 3 1 3 4
M  V30 4 1 4 5
M  V30 5 1 5 6
M  V30 6 1 6 7
M  V30 7 1 7 8
M  V30 8 1 8 9
M  V30 9 1 9 10
M  V30 10 2 10 11
M  V30 11 1 11 12
M  V30 12 2 12 13
M  V30 13 1 13 14
M  V30 14 2 14 15
M  V30 15 1 8 16
M  V30 16 1 16 17
M  V30 17 1 2 18
M  V30 18 2 18 19
M  V30 19 1 19 20
M  V30 20 1 20 21
M  V30 21 2 21 22
M  V30 22 1 22 23
M  V30 23 2 23 24
M  V30 24 1 24 25
M  V30 25 2 25 26
M  V30 26 1 26 27
M  V30 27 2 27 28
M  V30 28 1 28 29
M  V30 29 2 29 30
M  V30 30 1 24 31
M  V30 31 2 31 32
M  V30 32 1 17 5
M  V30 33 1 32 18
M  V30 34 1 15 10
M  V30 35 1 32 21
M  V30 36 1 30 25
M  V30 37 1 3 33
M  V30 38 1 4 34
M  V30 39 1 4 35
M  V30 40 1 5 36
M  V30 41 1 6 37
M  V30 42 1 6 38
M  V30 43 1 7 39
M  V30 44 1 7 40
M  V30 45 1 9 41
M  V30 46 1 9 42
M  V30 47 1 11 43
M  V30 48 1 12 44
M  V30 49 1 13 45
M  V30 50 1 14 46
M  V30 51 1 15 47
M  V30 52 1 16 48
M  V30 53 1 16 49
M  V30 54 1 17 50
M  V30 55 1 17 51
M  V30 56 1 20 52
M  V30 57 1 22 53
M  V30 58 1 23 54
M  V30 59 1 26 55
M  V30 60 1 27 56
M  V30 61 1 28 57
M  V30 62 1 30 58
M  V30 63 1 31 59
M  V30 END BOND
M  V30 END CTAB
M  END
>  <Dataset>  (242) 
ChEMBL_Kinases

>  <Ligand_Instance>  (242) 
nan

>  <PDB_ID>  (242) 
nan

>  <Standardized_SMILES>  (242) 
O=C(NCC1CCN(Cc2ccccc2)CC1)c1n[nH]c2ccc(-c3cccnc3)cc12

>  <Name>  (242) 
nan

>  <Pocket>  (242) 
nan

>  <ATP_Site>  (242) 
nan

>  <Peripheral>  (242) 
nan

>  <Num_H_Atoms_ProtBoundConf>  (242) 
nan

>  <Num_Resolved_Atoms>  (242) 
nan

>  <Num_Not_Resolved_Atoms>  (242) 
nan

$$$$
CHEMBL77217
     RDKit          3D

  0  0  0  0  0  0  0  0  0  0999 V3000
M  V30 BEGIN CTAB
M  V30 COUNTS 33 35 0 0 0
M  V30 BEGIN ATOM
M  V30 1 C -1.147336 -1.687318 2.710437 0
M  V30 2 C -1.431073 -1.678144 1.227552 0
M  V30 3 C -0.936319 -2.933673 0.609626 0
M  V30 4 C -0.976140 -0.425935 0.645425 0
M  V30 5 C 0.268019 -0.016456 0.251210 0
M  V30 6 C 1.559011 -0.643415 0.284343 0
M  V30 7 C 2.020238 -1.706683 1.001966 0
M  V30 8 C 3.259503 -2.287917 0.916347 0
M  V30 9 C 4.189612 -1.792178 0.029429 0
M  V30 10 Cl 5.773066 -2.466814 -0.140479 0
M  V30 11 C 3.803320 -0.723773 -0.726701 0
M  V30 12 C 2.557986 -0.192779 -0.594414 0
M  V30 13 N 0.106649 1.196830 -0.276853 0
M  V30 14 C -1.160827 1.604850 -0.249749 0
M  V30 15 N -1.818510 2.709468 -0.642176 0
M  V30 16 C -3.145406 2.855560 -0.484156 0
M  V30 17 C -3.879235 1.846705 0.100175 0
M  V30 18 N -3.212491 0.746918 0.488837 0
M  V30 19 C -1.883816 0.593989 0.333620 0
M  V30 20 H -0.312311 -0.949601 2.898205 0
M  V30 21 H -0.672727 -2.670236 3.000559 0
M  V30 22 H -2.006358 -1.447556 3.337375 0
M  V30 23 H -2.570950 -1.736743 1.187251 0
M  V30 24 H -1.801754 -3.531324 0.235959 0
M  V30 25 H -0.427556 -3.608834 1.327918 0
M  V30 26 H -0.344838 -2.705999 -0.300976 0
M  V30 27 H 1.408276 -2.149421 1.736332 0
M  V30 28 H 3.545593 -3.127088 1.518771 0
M  V30 29 H 4.517770 -0.325570 -1.424811 0
M  V30 30 H 2.366663 0.666311 -1.261451 0
M  V30 31 H 0.822546 1.843250 -0.692231 0
M  V30 32 H -3.581092 3.793038 -0.837923 0
M  V30 33 H -4.948533 1.968465 0.225689 0
M  V30 END ATOM
M  V30 BEGIN BOND
M  V30 1 1 1 2
M  V30 2 1 2 3
M  V30 3 1 2 4
M  V30 4 2 4 5
M  V30 5 1 5 6
M  V30 6 2 6 7
M  V30 7 1 7 8
M  V30 8 2 8 9
M  V30 9 1 9 10
M  V30 10 1 9 11
M  V30 11 2 11 12
M  V30 12 1 5 13
M  V30 13 1 13 14
M  V30 14 2 14 15
M  V30 15 1 15 16
M  V30 16 2 16 17
M  V30 17 1 17 18
M  V30 18 2 18 19
M  V30 19 1 19 4
M  V30 20 1 12 6
M  V30 21 1 19 14
M  V30 22 1 1 20
M  V30 23 1 1 21
M  V30 24 1 1 22
M  V30 25 1 2 23
M  V30 26 1 3 24
M  V30 27 1 3 25
M  V30 28 1 3 26
M  V30 29 1 7 27
M  V30 30 1 8 28
M  V30 31 1 11 29
M  V30 32 1 12 30
M  V30 33 1 13 31
M  V30 34 1 16 32
M  V30 35 1 17 33
M  V30 END BOND
M  V30 END CTAB
M  END
>  <Dataset>  (243) 
ChEMBL_Kinases

>  <Ligand_Instance>  (243) 
nan

>  <PDB_ID>  (243) 
nan

>  <Standardized_SMILES>  (243) 
CC(C)c1c(-c2ccc(Cl)cc2)[nH]c2nccnc12

>  <Name>  (243) 
nan

>  <Pocket>  (243) 
nan

>  <ATP_Site>  (243) 
nan

>  <Peripheral>  (243) 
nan

>  <Num_H_Atoms_ProtBoundConf>  (243) 
nan

>  <Num_Resolved_Atoms>  (243) 
nan

>  <Num_Not_Resolved_Atoms>  (243) 
nan

$$$$
CHEMBL4873179
     RDKit          3D

  0  0  0  0  0  0  0  0  0  0999 V3000
M  V30 BEGIN CTAB
M  V30 COUNTS 58 63 0 0 0
M  V30 BEGIN ATOM
M  V30 1 C 0.631388 -3.191714 6.283971 0
M  V30 2 O -0.074498 -2.557534 5.232638 0
M  V30 3 C 0.503137 -1.530578 4.502983 0
M  V30 4 C 1.758851 -1.006433 4.685176 0
M  V30 5 C 2.238195 0.037449 3.881096 0
M  V30 6 C 1.431445 0.549324 2.884874 0
M  V30 7 N 1.867459 1.632190 2.036014 0
M  V30 8 C 2.517621 2.672925 2.638783 0
M  V30 9 N 2.803832 3.543187 1.650981 0
M  V30 10 C 2.351212 3.064643 0.479695 0
M  V30 11 C 2.448684 3.698551 -0.859318 0
M  V30 12 C 2.626615 2.822432 -2.087015 0
M  V30 13 C 1.310560 3.491282 -1.842994 0
M  V30 14 C 1.745780 1.827938 0.730734 0
M  V30 15 C 0.168328 -0.017860 2.742641 0
M  V30 16 C -0.342698 -1.060803 3.528168 0
M  V30 17 C -1.707095 -1.385340 3.142257 0
M  V30 18 N -2.905695 -1.328604 3.762242 0
M  V30 19 N -3.840506 -1.778851 2.917146 0
M  V30 20 C -3.318485 -2.146609 1.729755 0
M  V30 21 C -3.917592 -2.668448 0.608338 0
M  V30 22 C -3.089357 -2.974572 -0.473611 0
M  V30 23 C -1.715558 -2.756179 -0.407677 0
M  V30 24 C -0.893400 -3.131066 -1.543110 0
M  V30 25 N -0.299446 -4.318037 -1.254400 0
M  V30 26 N 0.467490 -4.700934 -2.280805 0
M  V30 27 C 0.350368 -3.731582 -3.232948 0
M  V30 28 N -0.491113 -2.766863 -2.768222 0
M  V30 29 C -0.991848 -1.525751 -3.308816 0
M  V30 30 C -2.254911 -1.760081 -4.135233 0
M  V30 31 C 0.021387 -0.925377 -4.274338 0
M  V30 32 C -1.178352 -2.218708 0.770438 0
M  V30 33 C -1.960521 -1.893556 1.883774 0
M  V30 34 H 1.241653 -2.416155 6.791286 0
M  V30 35 H -0.031149 -3.643683 7.052448 0
M  V30 36 H 1.349604 -3.943440 5.875033 0
M  V30 37 H 2.370175 -1.406857 5.452033 0
M  V30 38 H 3.228304 0.427276 4.050345 0
M  V30 39 H 2.849114 2.986969 3.609538 0
M  V30 40 H 2.950442 4.686736 -0.844134 0
M  V30 41 H 2.698974 1.728166 -1.896874 0
M  V30 42 H 3.285898 3.216741 -2.891738 0
M  V30 43 H 0.464117 2.851076 -1.564375 0
M  V30 44 H 1.060441 4.348428 -2.512081 0
M  V30 45 H 1.265131 1.127335 0.082562 0
M  V30 46 H -0.394794 0.460010 1.922435 0
M  V30 47 H -4.837499 -1.793949 3.257650 0
M  V30 48 H -4.992094 -2.811823 0.619875 0
M  V30 49 H -3.602262 -3.385848 -1.341854 0
M  V30 50 H 0.795389 -3.642242 -4.203840 0
M  V30 51 H -1.133134 -0.793163 -2.520586 0
M  V30 52 H -2.724826 -2.741301 -3.846043 0
M  V30 53 H -2.995294 -0.979042 -3.919239 0
M  V30 54 H -2.054220 -1.804045 -5.219863 0
M  V30 55 H 0.867573 -0.475732 -3.701715 0
M  V30 56 H 0.461857 -1.751204 -4.891705 0
M  V30 57 H -0.530047 -0.192001 -4.893593 0
M  V30 58 H -0.110023 -2.054546 0.798481 0
M  V30 END ATOM
M  V30 BEGIN BOND
M  V30 1 1 1 2
M  V30 2 1 2 3
M  V30 3 2 3 4
M  V30 4 1 4 5
M  V30 5 2 5 6
M  V30 6 1 6 7
M  V30 7 1 7 8
M  V30 8 2 8 9
M  V30 9 1 9 10
M  V30 10 1 10 11
M  V30 11 1 11 12
M  V30 12 1 12 13
M  V30 13 2 10 14
M  V30 14 1 6 15
M  V30 15 2 15 16
M  V30 16 1 16 17
M  V30 17 2 17 18
M  V30 18 1 18 19
M  V30 19 1 19 20
M  V30 20 2 20 21
M  V30 21 1 21 22
M  V30 22 2 22 23
M  V30 23 1 23 24
M  V30 24 2 24 25
M  V30 25 1 25 26
M  V30 26 2 26 27
M  V30 27 1 27 28
M  V30 28 1 28 29
M  V30 29 1 29 30
M  V30 30 1 29 31
M  V30 31 1 23 32
M  V30 32 2 32 33
M  V30 33 1 16 3
M  V30 34 1 33 17
M  V30 35 1 14 7
M  V30 36 1 33 20
M  V30 37 1 13 11
M  V30 38 1 28 24
M  V30 39 1 1 34
M  V30 40 1 1 35
M  V30 41 1 1 36
M  V30 42 1 4 37
M  V30 43 1 5 38
M  V30 44 1 8 39
M  V30 45 1 11 40
M  V30 46 1 12 41
M  V30 47 1 12 42
M  V30 48 1 13 43
M  V30 49 1 13 44
M  V30 50 1 14 45
M  V30 51 1 15 46
M  V30 52 1 19 47
M  V30 53 1 21 48
M  V30 54 1 22 49
M  V30 55 1 27 50
M  V30 56 1 29 51
M  V30 57 1 30 52
M  V30 58 1 30 53
M  V30 59 1 30 54
M  V30 60 1 31 55
M  V30 61 1 31 56
M  V30 62 1 31 57
M  V30 63 1 32 58
M  V30 END BOND
M  V30 END CTAB
M  END
>  <Dataset>  (244) 
ChEMBL_Kinases

>  <Ligand_Instance>  (244) 
nan

>  <PDB_ID>  (244) 
nan

>  <Standardized_SMILES>  (244) 
COc1ccc(-n2cnc(C3CC3)c2)cc1-c1n[nH]c2ccc(-c3nncn3C(C)C)cc12

>  <Name>  (244) 
nan

>  <Pocket>  (244) 
nan

>  <ATP_Site>  (244) 
nan

>  <Peripheral>  (244) 
nan

>  <Num_H_Atoms_ProtBoundConf>  (244) 
nan

>  <Num_Resolved_Atoms>  (244) 
nan

>  <Num_Not_Resolved_Atoms>  (244) 
nan

$$$$
CHEMBL772
     RDKit          3D

  0  0  0  0  0  0  0  0  0  0999 V3000
M  V30 BEGIN CTAB
M  V30 COUNTS 84 89 0 0 0
M  V30 BEGIN ATOM
M  V30 1 C 2.732706 -1.143090 4.365849 0
M  V30 2 O 1.522954 -1.794701 4.136030 0
M  V30 3 C 0.436938 -1.294226 3.440541 0
M  V30 4 O 1.023146 -0.210298 3.202105 0
M  V30 5 C -0.683716 -2.297525 3.413983 0 CFG=1
M  V30 6 C -1.879722 -1.822929 2.660756 0 CFG=1
M  V30 7 C -1.632667 -0.624616 1.797202 0
M  V30 8 C -2.471147 -0.692060 0.530742 0 CFG=2
M  V30 9 C -2.533797 0.604592 -0.186562 0
M  V30 10 N -1.483089 1.271005 -0.712806 0
M  V30 11 C -1.969347 2.384735 -1.268573 0
M  V30 12 C -1.355479 3.415670 -1.940905 0
M  V30 13 C -2.003498 4.515095 -2.467262 0
M  V30 14 O -1.296808 5.492855 -3.121232 0
M  V30 15 C 0.108180 5.345439 -3.237590 0
M  V30 16 C -3.391479 4.580712 -2.303362 0
M  V30 17 C -4.021998 3.533262 -1.620552 0
M  V30 18 C -3.339032 2.453722 -1.109402 0
M  V30 19 C -3.678705 1.324463 -0.424695 0
M  V30 20 C -4.963649 0.774437 0.068641 0
M  V30 21 C -4.818283 -0.751024 -0.006039 0
M  V30 22 N -3.789947 -1.106788 0.964416 0
M  V30 23 C -3.749575 -2.543741 1.135676 0
M  V30 24 C -2.589040 -2.960069 1.972742 0 CFG=1
M  V30 25 C -1.722274 -3.859697 1.167689 0
M  V30 26 C -0.251170 -3.794486 1.492064 0 CFG=1
M  V30 27 O 0.447746 -2.824980 0.762500 0
M  V30 28 C 1.413971 -3.123995 -0.164025 0
M  V30 29 O 1.684749 -4.352175 -0.383394 0
M  V30 30 C 2.142727 -2.117073 -0.907558 0
M  V30 31 C 3.052099 -2.400926 -1.897330 0
M  V30 32 C 3.758613 -1.421181 -2.595515 0
M  V30 33 O 4.674173 -1.730593 -3.591692 0
M  V30 34 C 4.935524 -3.073421 -3.945742 0
M  V30 35 C 3.546471 -0.073061 -2.288580 0
M  V30 36 O 4.249867 0.882514 -2.985181 0
M  V30 37 C 5.489488 1.422263 -2.648201 0
M  V30 38 C 2.645728 0.273635 -1.301995 0
M  V30 39 O 2.446241 1.502016 -1.004587 0
M  V30 40 C 2.058801 2.650092 -0.511215 0
M  V30 41 C 1.985798 -0.783203 -0.659280 0
M  V30 42 C -0.115361 -3.615076 2.956010 0 CFG=2
M  V30 43 O -0.717087 -4.696226 3.591044 0
M  V30 44 C 0.139672 -5.470544 4.335734 0
M  V30 45 H 3.468498 -1.266188 3.537414 0
M  V30 46 H 3.240227 -1.608291 5.258467 0
M  V30 47 H 2.659609 -0.061336 4.570186 0
M  V30 48 H -0.909398 -2.455228 4.511608 0
M  V30 49 H -2.615945 -1.487561 3.460771 0
M  V30 50 H -0.595656 -0.419915 1.552580 0
M  V30 51 H -2.000917 0.302211 2.323709 0
M  V30 52 H -2.008156 -1.430732 -0.172088 0
M  V30 53 H -0.477882 0.988571 -0.699943 0
M  V30 54 H -0.285059 3.346939 -2.059681 0
M  V30 55 H 0.601319 6.146703 -3.796044 0
M  V30 56 H 0.558087 5.237113 -2.212209 0
M  V30 57 H 0.251128 4.348982 -3.729418 0
M  V30 58 H -3.936874 5.427036 -2.699022 0
M  V30 59 H -5.097682 3.553450 -1.475985 0
M  V30 60 H -5.832656 1.094632 -0.546567 0
M  V30 61 H -5.083080 1.048383 1.134974 0
M  V30 62 H -5.727542 -1.277703 0.281888 0
M  V30 63 H -4.414233 -1.034963 -1.001299 0
M  V30 64 H -3.672815 -2.948580 0.083860 0
M  V30 65 H -4.735810 -2.907022 1.515123 0
M  V30 66 H -3.034707 -3.571961 2.818970 0
M  V30 67 H -1.942977 -3.758345 0.084443 0
M  V30 68 H -2.032648 -4.928563 1.393001 0
M  V30 69 H 0.196630 -4.785933 1.189202 0
M  V30 70 H 3.246440 -3.424044 -2.168274 0
M  V30 71 H 5.475773 -3.124420 -4.935519 0
M  V30 72 H 5.663675 -3.479553 -3.194636 0
M  V30 73 H 4.022505 -3.672253 -4.033427 0
M  V30 74 H 5.366846 2.253343 -1.925374 0
M  V30 75 H 6.006724 1.806681 -3.577925 0
M  V30 76 H 6.130471 0.624069 -2.268376 0
M  V30 77 H 2.771328 2.992165 0.309959 0
M  V30 78 H 1.027114 2.718447 -0.066553 0
M  V30 79 H 2.072889 3.507462 -1.256617 0
M  V30 80 H 1.285281 -0.484082 0.107125 0
M  V30 81 H 0.966489 -3.642861 3.220674 0
M  V30 82 H -0.476332 -6.283564 4.780304 0
M  V30 83 H 1.030130 -5.843683 3.796525 0
M  V30 84 H 0.466756 -4.861372 5.228061 0
M  V30 END ATOM
M  V30 BEGIN BOND
M  V30 1 1 1 2
M  V30 2 1 2 3
M  V30 3 2 3 4
M  V30 4 1 3 5
M  V30 5 1 5 6
M  V30 6 1 6 7
M  V30 7 1 7 8
M  V30 8 1 8 9
M  V30 9 1 9 10
M  V30 10 1 10 11
M  V30 11 2 11 12
M  V30 12 1 12 13
M  V30 13 1 13 14
M  V30 14 1 14 15
M  V30 15 2 13 16
M  V30 16 1 16 17
M  V30 17 2 17 18
M  V30 18 1 18 19
M  V30 19 1 19 20
M  V30 20 1 20 21
M  V30 21 1 21 22
M  V30 22 1 22 23
M  V30 23 1 23 24
M  V30 24 1 24 25
M  V30 25 1 25 26
M  V30 26 1 26 27
M  V30 27 1 27 28
M  V30 28 2 28 29
M  V30 29 1 28 30
M  V30 30 2 30 31
M  V30 31 1 31 32
M  V30 32 1 32 33
M  V30 33 1 33 34
M  V30 34 2 32 35
M  V30 35 1 35 36
M  V30 36 1 36 37
M  V30 37 1 35 38
M  V30 38 1 38 39
M  V30 39 1 39 40
M  V30 40 2 38 41
M  V30 41 1 26 42
M  V30 42 1 42 43
M  V30 43 1 43 44
M  V30 44 1 42 5
M  V30 45 1 24 6
M  V30 46 1 41 30
M  V30 47 1 22 8
M  V30 48 2 19 9
M  V30 49 1 18 11
M  V30 50 1 1 45
M  V30 51 1 1 46
M  V30 52 1 1 47
M  V30 53 1 5 48 CFG=1
M  V30 54 1 6 49 CFG=1
M  V30 55 1 7 50
M  V30 56 1 7 51
M  V30 57 1 8 52 CFG=3
M  V30 58 1 10 53
M  V30 59 1 12 54
M  V30 60 1 15 55
M  V30 61 1 15 56
M  V30 62 1 15 57
M  V30 63 1 16 58
M  V30 64 1 17 59
M  V30 65 1 20 60
M  V30 66 1 20 61
M  V30 67 1 21 62
M  V30 68 1 21 63
M  V30 69 1 23 64
M  V30 70 1 23 65
M  V30 71 1 24 66 CFG=1
M  V30 72 1 25 67
M  V30 73 1 25 68
M  V30 74 1 26 69 CFG=3
M  V30 75 1 31 70
M  V30 76 1 34 71
M  V30 77 1 34 72
M  V30 78 1 34 73
M  V30 79 1 37 74
M  V30 80 1 37 75
M  V30 81 1 37 76
M  V30 82 1 40 77
M  V30 83 1 40 78
M  V30 84 1 40 79
M  V30 85 1 41 80
M  V30 86 1 42 81 CFG=3
M  V30 87 1 44 82
M  V30 88 1 44 83
M  V30 89 1 44 84
M  V30 END BOND
M  V30 END CTAB
M  END
>  <Dataset>  (245) 
ChEMBL_Kinases

>  <Ligand_Instance>  (245) 
nan

>  <PDB_ID>  (245) 
nan

>  <Standardized_SMILES>  (245) 
COC(=O)[C@H]1[C@H]2C[C@@H]3c4[nH]c5cc(OC)ccc5c4CCN3C[C@H]2C[C@@H](OC(=O)c2cc(OC)c(OC)c(OC)c2)[C@@H]1OC

>  <Name>  (245) 
RESERPINE

>  <Pocket>  (245) 
nan

>  <ATP_Site>  (245) 
nan

>  <Peripheral>  (245) 
nan

>  <Num_H_Atoms_ProtBoundConf>  (245) 
nan

>  <Num_Resolved_Atoms>  (245) 
nan

>  <Num_Not_Resolved_Atoms>  (245) 
nan

$$$$
CHEMBL4873273
     RDKit          3D

  0  0  0  0  0  0  0  0  0  0999 V3000
M  V30 BEGIN CTAB
M  V30 COUNTS 40 41 0 0 0
M  V30 BEGIN ATOM
M  V30 1 C -1.222207 -4.043214 2.532678 0
M  V30 2 O -1.776127 -2.813304 2.941598 0
M  V30 3 C -1.172332 -1.627588 2.586170 0
M  V30 4 C -0.018700 -1.641225 1.825601 0
M  V30 5 C 0.620856 -0.477419 1.445828 0
M  V30 6 N 1.809483 -0.504109 0.661726 0
M  V30 7 C 1.747420 -0.481197 -0.765738 0
M  V30 8 O 0.603517 -0.436178 -1.330709 0
M  V30 9 C 2.864258 -0.503027 -1.723520 0 CFG=2
M  V30 10 N 4.142085 -0.553489 -1.091283 0
M  V30 11 C 2.795347 0.589683 -2.760845 0
M  V30 12 C 1.561396 0.526010 -3.594384 0
M  V30 13 C 2.910248 1.965709 -2.162336 0
M  V30 14 C 0.068476 0.721561 1.852631 0
M  V30 15 C -1.083796 0.699492 2.611028 0
M  V30 16 C -1.744489 -0.446143 3.005377 0
M  V30 17 C -2.954896 -0.329065 3.807063 0
M  V30 18 C -3.775075 -1.313636 4.312263 0
M  V30 19 N -4.801674 -0.784952 5.007553 0
M  V30 20 C -4.584242 0.554031 4.912152 0
M  V30 21 O -3.503617 0.787069 4.208490 0
M  V30 22 H -0.251448 -4.257568 3.020997 0
M  V30 23 H -1.014821 -4.058027 1.440316 0
M  V30 24 H -1.889733 -4.891944 2.756878 0
M  V30 25 H 0.403724 -2.588487 1.513417 0
M  V30 26 H 2.772546 -0.540268 1.017628 0
M  V30 27 H 2.764242 -1.464010 -2.301142 0
M  V30 28 H 4.423687 -1.530601 -0.848200 0
M  V30 29 H 4.252487 0.057664 -0.263904 0
M  V30 30 H 3.668791 0.443148 -3.429939 0
M  V30 31 H 0.740614 1.153157 -3.138230 0
M  V30 32 H 1.223226 -0.471937 -3.885736 0
M  V30 33 H 1.781744 1.069032 -4.559970 0
M  V30 34 H 2.304016 2.008569 -1.210790 0
M  V30 35 H 2.434400 2.727798 -2.815014 0
M  V30 36 H 3.930603 2.276243 -1.917290 0
M  V30 37 H 0.511111 1.674250 1.595059 0
M  V30 38 H -1.505572 1.652475 2.922987 0
M  V30 39 H -3.659701 -2.380646 4.198111 0
M  V30 40 H -5.172370 1.383695 5.329305 0
M  V30 END ATOM
M  V30 BEGIN BOND
M  V30 1 1 1 2
M  V30 2 1 2 3
M  V30 3 2 3 4
M  V30 4 1 4 5
M  V30 5 1 5 6
M  V30 6 1 6 7
M  V30 7 2 7 8
M  V30 8 1 7 9
M  V30 9 1 9 10
M  V30 10 1 9 11
M  V30 11 1 11 12
M  V30 12 1 11 13
M  V30 13 2 5 14
M  V30 14 1 14 15
M  V30 15 2 15 16
M  V30 16 1 16 17
M  V30 17 2 17 18
M  V30 18 1 18 19
M  V30 19 2 19 20
M  V30 20 1 20 21
M  V30 21 1 16 3
M  V30 22 1 21 17
M  V30 23 1 1 22
M  V30 24 1 1 23
M  V30 25 1 1 24
M  V30 26 1 4 25
M  V30 27 1 6 26
M  V30 28 1 9 27 CFG=3
M  V30 29 1 10 28
M  V30 30 1 10 29
M  V30 31 1 11 30
M  V30 32 1 12 31
M  V30 33 1 12 32
M  V30 34 1 12 33
M  V30 35 1 13 34
M  V30 36 1 13 35
M  V30 37 1 13 36
M  V30 38 1 14 37
M  V30 39 1 15 38
M  V30 40 1 18 39
M  V30 41 1 20 40
M  V30 END BOND
M  V30 END CTAB
M  END
>  <Dataset>  (246) 
ChEMBL_Kinases

>  <Ligand_Instance>  (246) 
nan

>  <PDB_ID>  (246) 
nan

>  <Standardized_SMILES>  (246) 
COc1cc(NC(=O)[C@H](N)C(C)C)ccc1-c1cnco1

>  <Name>  (246) 
nan

>  <Pocket>  (246) 
nan

>  <ATP_Site>  (246) 
nan

>  <Peripheral>  (246) 
nan

>  <Num_H_Atoms_ProtBoundConf>  (246) 
nan

>  <Num_Resolved_Atoms>  (246) 
nan

>  <Num_Not_Resolved_Atoms>  (246) 
nan

$$$$
CHEMBL779
     RDKit          3D

  0  0  0  0  0  0  0  0  0  0999 V3000
M  V30 BEGIN CTAB
M  V30 COUNTS 48 53 0 0 0
M  V30 BEGIN ATOM
M  V30 1 C -1.379995 -0.539503 5.041138 0
M  V30 2 N -0.611246 -1.171465 3.980413 0
M  V30 3 C 0.816892 -1.021511 3.976582 0
M  V30 4 C 1.409084 -1.331388 2.649452 0
M  V30 5 O 2.645952 -1.090593 2.510600 0
M  V30 6 N 0.612328 -1.870863 1.599235 0
M  V30 7 C 1.022908 -1.622683 0.240156 0 CFG=2
M  V30 8 C 1.893937 -0.456983 0.094148 0
M  V30 9 C 3.048403 -0.493154 -0.693058 0
M  V30 10 C 3.924422 0.556647 -0.885882 0
M  V30 11 C 3.605377 1.723864 -0.233787 0
M  V30 12 C 2.482217 1.846312 0.564836 0
M  V30 13 C 1.647175 0.756985 0.715357 0
M  V30 14 O 2.513498 3.164424 1.038840 0
M  V30 15 C 3.838981 3.694155 0.903663 0
M  V30 16 O 4.283540 2.950496 -0.227620 0
M  V30 17 C -0.257818 -1.371103 -0.514680 0
M  V30 18 N -0.511704 -0.527372 -1.541707 0
M  V30 19 C -1.799672 -0.614121 -1.925342 0
M  V30 20 C -2.548736 0.024403 -2.909932 0
M  V30 21 C -3.879996 -0.309121 -3.036962 0
M  V30 22 C -4.483091 -1.247418 -2.224481 0
M  V30 23 C -3.772675 -1.898750 -1.240117 0
M  V30 24 C -2.421460 -1.563705 -1.107340 0
M  V30 25 C -1.439065 -2.026037 -0.230611 0
M  V30 26 C -1.445571 -3.024552 0.870525 0
M  V30 27 C -0.541180 -2.621967 1.988105 0 CFG=2
M  V30 28 C -1.360705 -1.902829 3.012907 0
M  V30 29 O -2.635470 -1.933965 3.030392 0
M  V30 30 H -2.038265 -1.307842 5.533244 0
M  V30 31 H -2.077995 0.233678 4.657895 0
M  V30 32 H -0.725977 -0.160909 5.869362 0
M  V30 33 H 1.048814 0.054722 4.222993 0
M  V30 34 H 1.289258 -1.619311 4.781245 0
M  V30 35 H 1.500249 -2.497985 -0.223088 0
M  V30 36 H 3.235064 -1.449890 -1.177405 0
M  V30 37 H 4.778408 0.401886 -1.516287 0
M  V30 38 H 0.773031 0.865417 1.341830 0
M  V30 39 H 4.375792 3.378664 1.840546 0
M  V30 40 H 3.862133 4.772499 0.744671 0
M  V30 41 H 0.147814 0.107730 -1.998079 0
M  V30 42 H -2.110357 0.757803 -3.557271 0
M  V30 43 H -4.541808 0.137408 -3.776876 0
M  V30 44 H -5.519984 -1.555214 -2.270331 0
M  V30 45 H -4.154417 -2.647414 -0.554810 0
M  V30 46 H -2.485961 -3.175432 1.236036 0
M  V30 47 H -1.064826 -3.974980 0.397165 0
M  V30 48 H -0.203277 -3.566244 2.499057 0
M  V30 END ATOM
M  V30 BEGIN BOND
M  V30 1 1 1 2
M  V30 2 1 2 3
M  V30 3 1 3 4
M  V30 4 2 4 5
M  V30 5 1 4 6
M  V30 6 1 6 7
M  V30 7 1 7 8
M  V30 8 2 8 9
M  V30 9 1 9 10
M  V30 10 2 10 11
M  V30 11 1 11 12
M  V30 12 2 12 13
M  V30 13 1 12 14
M  V30 14 1 14 15
M  V30 15 1 15 16
M  V30 16 1 7 17
M  V30 17 1 17 18
M  V30 18 1 18 19
M  V30 19 2 19 20
M  V30 20 1 20 21
M  V30 21 2 21 22
M  V30 22 1 22 23
M  V30 23 2 23 24
M  V30 24 1 24 25
M  V30 25 1 25 26
M  V30 26 1 26 27
M  V30 27 1 27 28
M  V30 28 2 28 29
M  V30 29 1 28 2
M  V30 30 1 27 6
M  V30 31 1 13 8
M  V30 32 2 25 17
M  V30 33 1 16 11
M  V30 34 1 24 19
M  V30 35 1 1 30
M  V30 36 1 1 31
M  V30 37 1 1 32
M  V30 38 1 3 33
M  V30 39 1 3 34
M  V30 40 1 7 35 CFG=3
M  V30 41 1 9 36
M  V30 42 1 10 37
M  V30 43 1 13 38
M  V30 44 1 15 39
M  V30 45 1 15 40
M  V30 46 1 18 41
M  V30 47 1 20 42
M  V30 48 1 21 43
M  V30 49 1 22 44
M  V30 50 1 23 45
M  V30 51 1 26 46
M  V30 52 1 26 47
M  V30 53 1 27 48 CFG=1
M  V30 END BOND
M  V30 END CTAB
M  END
>  <Dataset>  (247) 
ChEMBL_Kinases

>  <Ligand_Instance>  (247) 
nan

>  <PDB_ID>  (247) 
nan

>  <Standardized_SMILES>  (247) 
CN1CC(=O)N2[C@H](c3ccc4c(c3)OCO4)c3[nH]c4ccccc4c3C[C@@H]2C1=O

>  <Name>  (247) 
TADALAFIL

>  <Pocket>  (247) 
nan

>  <ATP_Site>  (247) 
nan

>  <Peripheral>  (247) 
nan

>  <Num_H_Atoms_ProtBoundConf>  (247) 
nan

>  <Num_Resolved_Atoms>  (247) 
nan

>  <Num_Not_Resolved_Atoms>  (247) 
nan

$$$$
CHEMBL790
     RDKit          3D

  0  0  0  0  0  0  0  0  0  0999 V3000
M  V30 BEGIN CTAB
M  V30 COUNTS 64 65 0 0 0
M  V30 BEGIN ATOM
M  V30 1 N 3.184155 -2.519322 5.078527 0
M  V30 2 C 3.006932 -3.061607 3.939363 0
M  V30 3 N 3.983770 -2.830384 2.920310 0
M  V30 4 C 4.853781 -1.688774 2.884969 0
M  V30 5 C 4.112851 -0.431653 2.656028 0
M  V30 6 C 3.348720 -0.317486 1.381515 0
M  V30 7 C 2.241165 -1.270635 1.148841 0
M  V30 8 C 1.528793 -1.024787 -0.175946 0
M  V30 9 C 2.417240 -1.144084 -1.370929 0
M  V30 10 N 1.590815 -0.883897 -2.564996 0
M  V30 11 C 1.065175 0.396513 -2.817895 0
M  V30 12 N 1.623352 1.452273 -2.331633 0
M  V30 13 N -0.110777 0.595886 -3.629000 0
M  V30 14 C -0.922007 1.727042 -3.341873 0
M  V30 15 N -0.920886 2.400556 -2.261323 0
M  V30 16 N -1.848056 2.167313 -4.348757 0
M  V30 17 C -3.096380 2.800606 -4.139264 0
M  V30 18 C -3.832648 3.258983 -5.213174 0
M  V30 19 C -5.054574 3.876619 -5.076676 0
M  V30 20 C -5.615003 4.071328 -3.824187 0
M  V30 21 Cl -7.165687 4.847366 -3.566082 0
M  V30 22 C -4.917459 3.631383 -2.731662 0
M  V30 23 C -3.700846 3.020417 -2.925070 0
M  V30 24 N 1.865283 -3.877758 3.679346 0
M  V30 25 C 0.596541 -3.492833 4.256425 0
M  V30 26 N 0.519545 -2.510829 5.076033 0
M  V30 27 N -0.541510 -4.224397 3.890507 0
M  V30 28 C -1.788310 -3.621798 3.578395 0
M  V30 29 C -2.895878 -4.432409 3.480196 0
M  V30 30 C -4.145299 -3.947023 3.167295 0
M  V30 31 C -4.351500 -2.592941 2.931419 0
M  V30 32 Cl -5.905817 -1.908702 2.531613 0
M  V30 33 C -3.240450 -1.757080 3.026267 0
M  V30 34 C -2.001750 -2.285958 3.343323 0
M  V30 35 H 2.625446 -2.550431 5.932671 0
M  V30 36 H 4.047488 -3.592617 2.180111 0
M  V30 37 H 5.397821 -1.566929 3.878075 0
M  V30 38 H 5.632280 -1.885675 2.092439 0
M  V30 39 H 4.729931 0.485090 2.856975 0
M  V30 40 H 3.312669 -0.345309 3.471894 0
M  V30 41 H 3.001698 0.745788 1.322650 0
M  V30 42 H 4.089611 -0.490293 0.533441 0
M  V30 43 H 1.446307 -1.049270 1.923012 0
M  V30 44 H 2.445847 -2.328068 1.204939 0
M  V30 45 H 1.019217 -0.057879 -0.086708 0
M  V30 46 H 0.744959 -1.806555 -0.243296 0
M  V30 47 H 3.281967 -0.482584 -1.376597 0
M  V30 48 H 2.764508 -2.184571 -1.449283 0
M  V30 49 H 1.353040 -1.629919 -3.280991 0
M  V30 50 H 2.478242 1.419506 -1.735449 0
M  V30 51 H -0.324211 -0.073102 -4.380446 0
M  V30 52 H -0.317538 2.188289 -1.462878 0
M  V30 53 H -1.552732 1.984572 -5.353861 0
M  V30 54 H -3.420355 3.121599 -6.220370 0
M  V30 55 H -5.595960 4.218931 -5.938650 0
M  V30 56 H -5.327649 3.766964 -1.720581 0
M  V30 57 H -3.205301 2.693606 -2.025183 0
M  V30 58 H 1.991280 -4.735417 3.074575 0
M  V30 59 H -0.388622 -2.238296 5.488231 0
M  V30 60 H -0.426936 -5.280941 3.842157 0
M  V30 61 H -2.889980 -5.519537 3.638259 0
M  V30 62 H -5.060912 -4.532858 3.073741 0
M  V30 63 H -3.339106 -0.674811 2.851248 0
M  V30 64 H -1.185824 -1.606586 3.391682 0
M  V30 END ATOM
M  V30 BEGIN BOND
M  V30 1 2 1 2 CFG=2
M  V30 2 1 2 3
M  V30 3 1 3 4
M  V30 4 1 4 5
M  V30 5 1 5 6
M  V30 6 1 6 7
M  V30 7 1 7 8
M  V30 8 1 8 9
M  V30 9 1 9 10
M  V30 10 1 10 11
M  V30 11 2 11 12 CFG=2
M  V30 12 1 11 13
M  V30 13 1 13 14
M  V30 14 2 14 15 CFG=2
M  V30 15 1 14 16
M  V30 16 1 16 17
M  V30 17 2 17 18
M  V30 18 1 18 19
M  V30 19 2 19 20
M  V30 20 1 20 21
M  V30 21 1 20 22
M  V30 22 2 22 23
M  V30 23 1 2 24
M  V30 24 1 24 25
M  V30 25 2 25 26 CFG=2
M  V30 26 1 25 27
M  V30 27 1 27 28
M  V30 28 2 28 29
M  V30 29 1 29 30
M  V30 30 2 30 31
M  V30 31 1 31 32
M  V30 32 1 31 33
M  V30 33 2 33 34
M  V30 34 1 23 17
M  V30 35 1 34 28
M  V30 36 1 1 35
M  V30 37 1 3 36
M  V30 38 1 4 37
M  V30 39 1 4 38
M  V30 40 1 5 39
M  V30 41 1 5 40
M  V30 42 1 6 41
M  V30 43 1 6 42
M  V30 44 1 7 43
M  V30 45 1 7 44
M  V30 46 1 8 45
M  V30 47 1 8 46
M  V30 48 1 9 47
M  V30 49 1 9 48
M  V30 50 1 10 49
M  V30 51 1 12 50
M  V30 52 1 13 51
M  V30 53 1 15 52
M  V30 54 1 16 53
M  V30 55 1 18 54
M  V30 56 1 19 55
M  V30 57 1 22 56
M  V30 58 1 23 57
M  V30 59 1 24 58
M  V30 60 1 26 59
M  V30 61 1 27 60
M  V30 62 1 29 61
M  V30 63 1 30 62
M  V30 64 1 33 63
M  V30 65 1 34 64
M  V30 END BOND
M  V30 END CTAB
M  END
>  <Dataset>  (248) 
ChEMBL_Kinases

>  <Ligand_Instance>  (248) 
nan

>  <PDB_ID>  (248) 
nan

>  <Standardized_SMILES>  (248) 
N=C(NCCCCCCNC(=N)NC(=N)Nc1ccc(Cl)cc1)NC(=N)Nc1ccc(Cl)cc1

>  <Name>  (248) 
CHLORHEXIDINE

>  <Pocket>  (248) 
nan

>  <ATP_Site>  (248) 
nan

>  <Peripheral>  (248) 
nan

>  <Num_H_Atoms_ProtBoundConf>  (248) 
nan

>  <Num_Resolved_Atoms>  (248) 
nan

>  <Num_Not_Resolved_Atoms>  (248) 
nan

$$$$
CHEMBL3702077
     RDKit          3D

  0  0  0  0  0  0  0  0  0  0999 V3000
M  V30 BEGIN CTAB
M  V30 COUNTS 64 69 0 0 0
M  V30 BEGIN ATOM
M  V30 1 O 5.173438 -0.827659 3.700753 0
M  V30 2 C 3.885022 -0.418830 3.318694 0
M  V30 3 C 3.889822 -0.194914 1.845635 0
M  V30 4 N 4.830667 0.800198 1.471610 0
M  V30 5 C 4.894465 1.033349 0.045031 0
M  V30 6 C 3.911893 2.059418 -0.416915 0
M  V30 7 N 2.967229 2.445601 0.585748 0
M  V30 8 C 1.541392 2.353191 0.598924 0
M  V30 9 C 0.641095 2.976566 1.435049 0
M  V30 10 C -0.709023 2.739623 1.295004 0
M  V30 11 C -1.227667 1.888605 0.337800 0
M  V30 12 N -2.647298 1.664371 0.208326 0
M  V30 13 C -3.000715 0.718037 -0.817877 0
M  V30 14 N -3.220947 0.835047 -2.145784 0
M  V30 15 C -3.535111 -0.292655 -2.811106 0
M  V30 16 C -3.641319 -1.534906 -2.218361 0
M  V30 17 C -3.938713 -2.807747 -2.659218 0
M  V30 18 C -4.243229 -3.279178 -3.901998 0
M  V30 19 C -4.501287 -4.642540 -4.038270 0
M  V30 20 N -4.458540 -5.491673 -2.994530 0
M  V30 21 C -4.155635 -5.010144 -1.770326 0
M  V30 22 F -4.111385 -5.870128 -0.710722 0
M  V30 23 C -3.889952 -3.670749 -1.568041 0
M  V30 24 N -3.568674 -2.920755 -0.497557 0
M  V30 25 C -3.430050 -3.477108 0.826848 0
M  V30 26 C -2.072235 -4.130672 0.920732 0
M  V30 27 C -1.185366 -2.991549 1.365214 0
M  V30 28 C -2.031973 -2.403785 2.484950 0
M  V30 29 C -3.434758 -2.512121 1.945468 0
M  V30 30 C -3.415046 -1.632643 -0.872065 0
M  V30 31 N -3.101474 -0.500102 -0.215991 0
M  V30 32 N -0.314095 1.305482 -0.451985 0
M  V30 33 C 1.010014 1.504003 -0.355259 0
M  V30 34 C 3.783601 2.965949 1.643893 0
M  V30 35 C 4.820248 2.034035 2.163365 0
M  V30 36 H 5.137586 -1.782817 3.947715 0
M  V30 37 H 3.156083 -1.242315 3.555229 0
M  V30 38 H 3.592326 0.414184 3.949289 0
M  V30 39 H 4.260216 -1.164260 1.383920 0
M  V30 40 H 2.870174 -0.055923 1.425772 0
M  V30 41 H 4.742230 0.039119 -0.460230 0
M  V30 42 H 5.909209 1.357364 -0.223142 0
M  V30 43 H 4.438573 2.973551 -0.820214 0
M  V30 44 H 3.363981 1.656399 -1.291979 0
M  V30 45 H 1.086837 3.630136 2.165769 0
M  V30 46 H -1.372134 3.251202 1.973496 0
M  V30 47 H -3.259946 2.192951 0.849487 0
M  V30 48 H -3.704775 -0.175726 -3.864715 0
M  V30 49 H -4.287905 -2.635834 -4.760055 0
M  V30 50 H -4.750548 -5.076286 -5.019115 0
M  V30 51 H -4.185619 -4.309597 0.984018 0
M  V30 52 H -2.049478 -4.948862 1.668164 0
M  V30 53 H -1.679000 -4.451048 -0.067409 0
M  V30 54 H -1.085389 -2.234175 0.589700 0
M  V30 55 H -0.208413 -3.352411 1.759114 0
M  V30 56 H -1.862012 -3.077809 3.363345 0
M  V30 57 H -1.727697 -1.390463 2.778570 0
M  V30 58 H -3.916944 -1.537221 1.760770 0
M  V30 59 H -4.051097 -2.961463 2.781060 0
M  V30 60 H 1.499321 0.910087 -1.112889 0
M  V30 61 H 3.058649 3.246186 2.466393 0
M  V30 62 H 4.222171 3.968175 1.355886 0
M  V30 63 H 4.684762 1.932571 3.264401 0
M  V30 64 H 5.814911 2.525286 1.984328 0
M  V30 END ATOM
M  V30 BEGIN BOND
M  V30 1 1 1 2
M  V30 2 1 2 3
M  V30 3 1 3 4
M  V30 4 1 4 5
M  V30 5 1 5 6
M  V30 6 1 6 7
M  V30 7 1 7 8
M  V30 8 2 8 9
M  V30 9 1 9 10
M  V30 10 2 10 11
M  V30 11 1 11 12
M  V30 12 1 12 13
M  V30 13 2 13 14
M  V30 14 1 14 15
M  V30 15 2 15 16
M  V30 16 1 16 17
M  V30 17 2 17 18
M  V30 18 1 18 19
M  V30 19 2 19 20
M  V30 20 1 20 21
M  V30 21 1 21 22
M  V30 22 2 21 23
M  V30 23 1 23 24
M  V30 24 1 24 25
M  V30 25 1 25 26
M  V30 26 1 26 27
M  V30 27 1 27 28
M  V30 28 1 28 29
M  V30 29 1 24 30
M  V30 30 2 30 31
M  V30 31 1 11 32
M  V30 32 2 32 33
M  V30 33 1 7 34
M  V30 34 1 34 35
M  V30 35 1 35 4
M  V30 36 1 33 8
M  V30 37 1 31 13
M  V30 38 1 30 16
M  V30 39 1 23 17
M  V30 40 1 29 25
M  V30 41 1 1 36
M  V30 42 1 2 37
M  V30 43 1 2 38
M  V30 44 1 3 39
M  V30 45 1 3 40
M  V30 46 1 5 41
M  V30 47 1 5 42
M  V30 48 1 6 43
M  V30 49 1 6 44
M  V30 50 1 9 45
M  V30 51 1 10 46
M  V30 52 1 12 47
M  V30 53 1 15 48
M  V30 54 1 18 49
M  V30 55 1 19 50
M  V30 56 1 25 51
M  V30 57 1 26 52
M  V30 58 1 26 53
M  V30 59 1 27 54
M  V30 60 1 27 55
M  V30 61 1 28 56
M  V30 62 1 28 57
M  V30 63 1 29 58
M  V30 64 1 29 59
M  V30 65 1 33 60
M  V30 66 1 34 61
M  V30 67 1 34 62
M  V30 68 1 35 63
M  V30 69 1 35 64
M  V30 END BOND
M  V30 END CTAB
M  END
>  <Dataset>  (249) 
ChEMBL_Kinases

>  <Ligand_Instance>  (249) 
nan

>  <PDB_ID>  (249) 
nan

>  <Standardized_SMILES>  (249) 
OCCN1CCN(c2ccc(Nc3ncc4c5ccnc(F)c5n(C5CCCC5)c4n3)nc2)CC1

>  <Name>  (249) 
nan

>  <Pocket>  (249) 
nan

>  <ATP_Site>  (249) 
nan

>  <Peripheral>  (249) 
nan

>  <Num_H_Atoms_ProtBoundConf>  (249) 
nan

>  <Num_Resolved_Atoms>  (249) 
nan

>  <Num_Not_Resolved_Atoms>  (249) 
nan

$$$$
CHEMBL3702078
     RDKit          3D

  0  0  0  0  0  0  0  0  0  0999 V3000
M  V30 BEGIN CTAB
M  V30 COUNTS 60 65 0 0 0
M  V30 BEGIN ATOM
M  V30 1 C 0.729769 -1.891075 -1.738147 0
M  V30 2 C 0.803138 -2.799539 -0.579758 0
M  V30 3 N 1.165221 -2.275222 0.604012 0
M  V30 4 C 1.252734 -3.053921 1.725664 0
M  V30 5 N 1.633520 -2.428251 2.968263 0
M  V30 6 C 1.905294 -1.033618 2.901761 0
M  V30 7 N 3.086575 -0.380762 2.986407 0
M  V30 8 C 3.147336 0.952832 2.883853 0
M  V30 9 C 2.011074 1.707372 2.688181 0
M  V30 10 C 1.682071 3.042030 2.533324 0
M  V30 11 C 2.496267 4.147425 2.535059 0
M  V30 12 C 1.926586 5.397580 2.357230 0
M  V30 13 N 0.599285 5.456852 2.191533 0
M  V30 14 C -0.188655 4.358110 2.192260 0
M  V30 15 F -1.520608 4.522735 2.013029 0
M  V30 16 C 0.316476 3.086388 2.364748 0
M  V30 17 N -0.272113 1.878800 2.398341 0
M  V30 18 C -1.636543 1.510537 2.257873 0
M  V30 19 C -2.225722 1.721031 0.887947 0
M  V30 20 C -3.698678 1.957748 1.104458 0
M  V30 21 C -3.864170 2.367594 2.547478 0
M  V30 22 C -2.589420 2.014682 3.280622 0
M  V30 23 C 0.807342 1.056399 2.600258 0
M  V30 24 N 0.828488 -0.292137 2.714185 0
M  V30 25 C 0.957096 -4.393663 1.595172 0
M  V30 26 C 0.586254 -4.928635 0.378778 0
M  V30 27 C 0.499533 -4.136850 -0.746086 0
M  V30 28 N 0.094806 -4.707492 -2.006602 0
M  V30 29 C -1.129112 -4.253703 -2.624396 0
M  V30 30 C -1.062654 -4.062287 -4.099228 0
M  V30 31 N -0.123520 -4.886751 -4.795584 0
M  V30 32 C 1.110999 -5.130327 -4.108589 0
M  V30 33 C 0.779225 -5.719835 -2.769198 0
M  V30 34 H -0.158748 -1.225055 -1.678058 0
M  V30 35 H 1.604679 -1.182581 -1.654156 0
M  V30 36 H 0.833999 -2.370467 -2.708693 0
M  V30 37 H 1.689677 -2.998689 3.828019 0
M  V30 38 H 4.094536 1.465164 2.953115 0
M  V30 39 H 3.568086 4.053282 2.673682 0
M  V30 40 H 2.540788 6.305257 2.354590 0
M  V30 41 H -1.662010 0.381698 2.381672 0
M  V30 42 H -2.167049 0.796767 0.245798 0
M  V30 43 H -1.719141 2.483973 0.277786 0
M  V30 44 H -4.062604 2.719000 0.394352 0
M  V30 45 H -4.307976 1.058331 0.957254 0
M  V30 46 H -4.771280 1.935024 3.000494 0
M  V30 47 H -3.963885 3.475573 2.572878 0
M  V30 48 H -2.912855 1.223162 4.027160 0
M  V30 49 H -2.209017 2.823961 3.937518 0
M  V30 50 H 1.037026 -4.983701 2.500418 0
M  V30 51 H 0.356657 -5.981720 0.290536 0
M  V30 52 H -1.950133 -4.952595 -2.319349 0
M  V30 53 H -1.393437 -3.263336 -2.164628 0
M  V30 54 H -0.973196 -2.974320 -4.357586 0
M  V30 55 H -2.079357 -4.346326 -4.499481 0
M  V30 56 H -0.559427 -5.804038 -4.996696 0
M  V30 57 H 1.680995 -5.853660 -4.753866 0
M  V30 58 H 1.677315 -4.192128 -4.009688 0
M  V30 59 H 0.040530 -6.547207 -2.985868 0
M  V30 60 H 1.614607 -6.194379 -2.245180 0
M  V30 END ATOM
M  V30 BEGIN BOND
M  V30 1 1 1 2
M  V30 2 2 2 3
M  V30 3 1 3 4
M  V30 4 1 4 5
M  V30 5 1 5 6
M  V30 6 2 6 7
M  V30 7 1 7 8
M  V30 8 2 8 9
M  V30 9 1 9 10
M  V30 10 2 10 11
M  V30 11 1 11 12
M  V30 12 2 12 13
M  V30 13 1 13 14
M  V30 14 1 14 15
M  V30 15 2 14 16
M  V30 16 1 16 17
M  V30 17 1 17 18
M  V30 18 1 18 19
M  V30 19 1 19 20
M  V30 20 1 20 21
M  V30 21 1 21 22
M  V30 22 1 17 23
M  V30 23 2 23 24
M  V30 24 2 4 25
M  V30 25 1 25 26
M  V30 26 2 26 27
M  V30 27 1 27 28
M  V30 28 1 28 29
M  V30 29 1 29 30
M  V30 30 1 30 31
M  V30 31 1 31 32
M  V30 32 1 32 33
M  V30 33 1 27 2
M  V30 34 1 33 28
M  V30 35 1 24 6
M  V30 36 1 23 9
M  V30 37 1 16 10
M  V30 38 1 22 18
M  V30 39 1 1 34
M  V30 40 1 1 35
M  V30 41 1 1 36
M  V30 42 1 5 37
M  V30 43 1 8 38
M  V30 44 1 11 39
M  V30 45 1 12 40
M  V30 46 1 18 41
M  V30 47 1 19 42
M  V30 48 1 19 43
M  V30 49 1 20 44
M  V30 50 1 20 45
M  V30 51 1 21 46
M  V30 52 1 21 47
M  V30 53 1 22 48
M  V30 54 1 22 49
M  V30 55 1 25 50
M  V30 56 1 26 51
M  V30 57 1 29 52
M  V30 58 1 29 53
M  V30 59 1 30 54
M  V30 60 1 30 55
M  V30 61 1 31 56
M  V30 62 1 32 57
M  V30 63 1 32 58
M  V30 64 1 33 59
M  V30 65 1 33 60
M  V30 END BOND
M  V30 END CTAB
M  END
>  <Dataset>  (250) 
ChEMBL_Kinases

>  <Ligand_Instance>  (250) 
nan

>  <PDB_ID>  (250) 
nan

>  <Standardized_SMILES>  (250) 
Cc1nc(Nc2ncc3c4ccnc(F)c4n(C4CCCC4)c3n2)ccc1N1CCNCC1

>  <Name>  (250) 
nan

>  <Pocket>  (250) 
nan

>  <ATP_Site>  (250) 
nan

>  <Peripheral>  (250) 
nan

>  <Num_H_Atoms_ProtBoundConf>  (250) 
nan

>  <Num_Resolved_Atoms>  (250) 
nan

>  <Num_Not_Resolved_Atoms>  (250) 
nan

$$$$
CHEMBL4872087
     RDKit          3D

  0  0  0  0  0  0  0  0  0  0999 V3000
M  V30 BEGIN CTAB
M  V30 COUNTS 46 47 0 0 0
M  V30 BEGIN ATOM
M  V30 1 C -0.153997 -4.377879 0.509419 0
M  V30 2 O -1.375462 -3.988112 1.098177 0
M  V30 3 C -1.545986 -2.700353 1.523972 0
M  V30 4 C -0.514161 -1.766105 1.378783 0
M  V30 5 C -0.625214 -0.458386 1.786794 0
M  V30 6 N 0.496595 0.394363 1.584359 0
M  V30 7 C 0.591880 1.113538 0.367734 0
M  V30 8 O -0.288562 1.037744 -0.562547 0
M  V30 9 C 1.519234 2.062690 -0.260535 0
M  V30 10 C 0.780830 2.467963 -1.572911 0
M  V30 11 N 1.622143 3.415733 -2.275761 0
M  V30 12 C 2.817180 1.550834 -0.718981 0
M  V30 13 C 3.789903 0.927699 0.161954 0
M  V30 14 C 4.324684 1.710016 1.307471 0
M  V30 15 C 3.425383 -0.476798 0.580459 0
M  V30 16 C -1.817660 -0.072107 2.363059 0
M  V30 17 C -2.827891 -0.999347 2.501692 0
M  V30 18 C -2.736526 -2.315440 2.099087 0
M  V30 19 C -3.875463 -3.201356 2.299446 0
M  V30 20 C -4.027598 -4.533729 1.987140 0
M  V30 21 N -5.271466 -4.955654 2.358283 0
M  V30 22 C -5.858116 -3.871598 2.891675 0
M  V30 23 O -5.016675 -2.868742 2.840978 0
M  V30 24 H 0.719278 -4.238098 1.170955 0
M  V30 25 H -0.013997 -3.809387 -0.445609 0
M  V30 26 H -0.155521 -5.443819 0.199628 0
M  V30 27 H 0.401534 -2.108595 0.923591 0
M  V30 28 H 1.313672 0.638744 2.152201 0
M  V30 29 H 1.548400 3.059076 0.240525 0
M  V30 30 H 0.572445 1.579536 -2.190583 0
M  V30 31 H -0.150758 2.973746 -1.247352 0
M  V30 32 H 1.439027 3.354823 -3.313730 0
M  V30 33 H 1.478742 4.392861 -1.967669 0
M  V30 34 H 3.303607 2.381958 -1.316442 0
M  V30 35 H 2.579937 0.803290 -1.537651 0
M  V30 36 H 4.719983 0.748802 -0.481952 0
M  V30 37 H 4.807192 1.012834 2.033595 0
M  V30 38 H 5.120513 2.438058 1.027228 0
M  V30 39 H 3.600540 2.290557 1.895489 0
M  V30 40 H 3.321956 -0.572491 1.680298 0
M  V30 41 H 2.497760 -0.782560 0.026024 0
M  V30 42 H 4.172876 -1.245945 0.298957 0
M  V30 43 H -1.918036 0.944300 2.685731 0
M  V30 44 H -3.756417 -0.672076 2.957771 0
M  V30 45 H -3.299152 -5.178441 1.520701 0
M  V30 46 H -6.848338 -3.708615 3.326449 0
M  V30 END ATOM
M  V30 BEGIN BOND
M  V30 1 1 1 2
M  V30 2 1 2 3
M  V30 3 2 3 4
M  V30 4 1 4 5
M  V30 5 1 5 6
M  V30 6 1 6 7
M  V30 7 2 7 8
M  V30 8 1 7 9
M  V30 9 1 9 10
M  V30 10 1 10 11
M  V30 11 1 9 12
M  V30 12 1 12 13
M  V30 13 1 13 14
M  V30 14 1 13 15
M  V30 15 2 5 16
M  V30 16 1 16 17
M  V30 17 2 17 18
M  V30 18 1 18 19
M  V30 19 2 19 20
M  V30 20 1 20 21
M  V30 21 2 21 22
M  V30 22 1 22 23
M  V30 23 1 18 3
M  V30 24 1 23 19
M  V30 25 1 1 24
M  V30 26 1 1 25
M  V30 27 1 1 26
M  V30 28 1 4 27
M  V30 29 1 6 28
M  V30 30 1 9 29
M  V30 31 1 10 30
M  V30 32 1 10 31
M  V30 33 1 11 32
M  V30 34 1 11 33
M  V30 35 1 12 34
M  V30 36 1 12 35
M  V30 37 1 13 36
M  V30 38 1 14 37
M  V30 39 1 14 38
M  V30 40 1 14 39
M  V30 41 1 15 40
M  V30 42 1 15 41
M  V30 43 1 15 42
M  V30 44 1 16 43
M  V30 45 1 17 44
M  V30 46 1 20 45
M  V30 47 1 22 46
M  V30 END BOND
M  V30 END CTAB
M  END
>  <Dataset>  (251) 
ChEMBL_Kinases

>  <Ligand_Instance>  (251) 
nan

>  <PDB_ID>  (251) 
nan

>  <Standardized_SMILES>  (251) 
COc1cc(NC(=O)C(CN)CC(C)C)ccc1-c1cnco1

>  <Name>  (251) 
nan

>  <Pocket>  (251) 
nan

>  <ATP_Site>  (251) 
nan

>  <Peripheral>  (251) 
nan

>  <Num_H_Atoms_ProtBoundConf>  (251) 
nan

>  <Num_Resolved_Atoms>  (251) 
nan

>  <Num_Not_Resolved_Atoms>  (251) 
nan

$$$$
CHEMBL4872160
     RDKit          3D

  0  0  0  0  0  0  0  0  0  0999 V3000
M  V30 BEGIN CTAB
M  V30 COUNTS 24 26 0 0 0
M  V30 BEGIN ATOM
M  V30 1 Br 0.209181 -0.864266 5.503898 0
M  V30 2 C 0.912983 -1.459657 3.836928 0
M  V30 3 C 1.716002 -2.593955 3.725688 0
M  V30 4 N 2.228732 -3.041526 2.565712 0
M  V30 5 C 1.940007 -2.340797 1.452962 0
M  V30 6 N 2.299714 -2.532791 0.159011 0
M  V30 7 N 1.771915 -1.571831 -0.615750 0
M  V30 8 C 1.047602 -0.715002 0.139073 0
M  V30 9 C 0.304742 0.468519 -0.286242 0
M  V30 10 C -0.479686 0.329766 -1.423621 0
M  V30 11 C -1.212463 1.401657 -1.890577 0
M  V30 12 C -1.143007 2.606848 -1.198603 0
M  V30 13 C -0.366175 2.755352 -0.066739 0
M  V30 14 C 0.372769 1.664434 0.399188 0
M  V30 15 C 1.146957 -1.187388 1.432183 0
M  V30 16 C 0.660148 -0.794008 2.657739 0
M  V30 17 H 1.907816 -3.113381 4.677064 0
M  V30 18 H 2.902257 -3.319828 -0.176635 0
M  V30 19 H -0.566911 -0.591679 -1.999175 0
M  V30 20 H -1.858926 1.433068 -2.755652 0
M  V30 21 H -1.676367 3.523176 -1.471015 0
M  V30 22 H -0.299277 3.694715 0.489982 0
M  V30 23 H 0.986960 1.761348 1.283930 0
M  V30 24 H 0.047167 0.078968 2.714663 0
M  V30 END ATOM
M  V30 BEGIN BOND
M  V30 1 1 1 2
M  V30 2 2 2 3
M  V30 3 1 3 4
M  V30 4 2 4 5
M  V30 5 1 5 6
M  V30 6 1 6 7
M  V30 7 2 7 8
M  V30 8 1 8 9
M  V30 9 2 9 10
M  V30 10 1 10 11
M  V30 11 2 11 12
M  V30 12 1 12 13
M  V30 13 2 13 14
M  V30 14 1 8 15
M  V30 15 2 15 16
M  V30 16 1 16 2
M  V30 17 1 15 5
M  V30 18 1 14 9
M  V30 19 1 3 17
M  V30 20 1 6 18
M  V30 21 1 10 19
M  V30 22 1 11 20
M  V30 23 1 12 21
M  V30 24 1 13 22
M  V30 25 1 14 23
M  V30 26 1 16 24
M  V30 END BOND
M  V30 END CTAB
M  END
>  <Dataset>  (252) 
ChEMBL_Kinases

>  <Ligand_Instance>  (252) 
nan

>  <PDB_ID>  (252) 
nan

>  <Standardized_SMILES>  (252) 
Brc1cnc2[nH]nc(-c3ccccc3)c2c1

>  <Name>  (252) 
nan

>  <Pocket>  (252) 
nan

>  <ATP_Site>  (252) 
nan

>  <Peripheral>  (252) 
nan

>  <Num_H_Atoms_ProtBoundConf>  (252) 
nan

>  <Num_Resolved_Atoms>  (252) 
nan

>  <Num_Not_Resolved_Atoms>  (252) 
nan

$$$$
CHEMBL4872225
     RDKit          3D

  0  0  0  0  0  0  0  0  0  0999 V3000
M  V30 BEGIN CTAB
M  V30 COUNTS 43 46 0 0 0
M  V30 BEGIN ATOM
M  V30 1 O -0.172707 1.643578 -2.775999 0
M  V30 2 C 1.012257 1.420165 -2.429515 0
M  V30 3 O 2.007862 1.893637 -3.257075 0
M  V30 4 C 1.825645 2.598861 -4.443008 0
M  V30 5 C 3.230771 2.893399 -4.987889 0
M  V30 6 F 3.908260 1.706392 -5.219128 0
M  V30 7 F 3.957903 3.633404 -4.099907 0
M  V30 8 C 1.373834 0.694011 -1.210105 0
M  V30 9 C 2.718518 0.488960 -0.892547 0
M  V30 10 C 3.006443 -0.201636 0.269820 0
M  V30 11 C 2.034166 -0.686324 1.111249 0
M  V30 12 C 0.719124 -0.471083 0.775503 0
M  V30 13 C 0.385621 0.211871 -0.372829 0
M  V30 14 N -0.221935 -0.944048 1.597212 0
M  V30 15 C -0.018738 -1.615963 2.731054 0
M  V30 16 N -1.032249 -2.107366 3.585635 0
M  V30 17 C -2.438823 -2.036013 3.424810 0
M  V30 18 C -3.368808 -2.384219 4.412084 0
M  V30 19 C -4.725142 -2.306424 4.212316 0
M  V30 20 C -5.253073 -1.877569 3.018880 0
M  V30 21 C -4.365585 -1.526591 2.023202 0
M  V30 22 Cl -5.091448 -0.989990 0.527689 0
M  V30 23 C -3.007644 -1.611927 2.243383 0
M  V30 24 C 1.297422 -1.828402 3.061735 0
M  V30 25 C 1.727546 -2.497167 4.182602 0
M  V30 26 C 3.040390 -2.717911 4.526058 0
M  V30 27 N 3.996279 -2.248656 3.711328 0
M  V30 28 C 3.639159 -1.580392 2.588668 0
M  V30 29 C 2.320098 -1.369407 2.261753 0
M  V30 30 H 1.289233 2.046439 -5.245872 0
M  V30 31 H 1.262721 3.545988 -4.313853 0
M  V30 32 H 3.188461 3.421196 -5.951637 0
M  V30 33 H 3.456967 0.882335 -1.574579 0
M  V30 34 H 4.050070 -0.312592 0.435296 0
M  V30 35 H -0.651816 0.375425 -0.627159 0
M  V30 36 H -0.820502 -2.601173 4.472407 0
M  V30 37 H -2.983022 -2.724981 5.362098 0
M  V30 38 H -5.357822 -2.601037 5.046424 0
M  V30 39 H -6.331993 -1.856593 2.974856 0
M  V30 40 H -2.472622 -1.310322 1.380584 0
M  V30 41 H 1.015932 -2.899521 4.876519 0
M  V30 42 H 3.318463 -3.261930 5.439770 0
M  V30 43 H 4.505750 -1.265804 2.036960 0
M  V30 END ATOM
M  V30 BEGIN BOND
M  V30 1 2 1 2
M  V30 2 1 2 3
M  V30 3 1 3 4
M  V30 4 1 4 5
M  V30 5 1 5 6
M  V30 6 1 5 7
M  V30 7 1 2 8
M  V30 8 2 8 9
M  V30 9 1 9 10
M  V30 10 2 10 11
M  V30 11 1 11 12
M  V30 12 2 12 13
M  V30 13 1 12 14
M  V30 14 2 14 15
M  V30 15 1 15 16
M  V30 16 1 16 17
M  V30 17 2 17 18
M  V30 18 1 18 19
M  V30 19 2 19 20
M  V30 20 1 20 21
M  V30 21 1 21 22
M  V30 22 2 21 23
M  V30 23 1 15 24
M  V30 24 2 24 25
M  V30 25 1 25 26
M  V30 26 2 26 27
M  V30 27 1 27 28
M  V30 28 2 28 29
M  V30 29 1 13 8
M  V30 30 1 23 17
M  V30 31 1 29 24
M  V30 32 1 29 11
M  V30 33 1 4 30
M  V30 34 1 4 31
M  V30 35 1 5 32
M  V30 36 1 9 33
M  V30 37 1 10 34
M  V30 38 1 13 35
M  V30 39 1 16 36
M  V30 40 1 18 37
M  V30 41 1 19 38
M  V30 42 1 20 39
M  V30 43 1 23 40
M  V30 44 1 25 41
M  V30 45 1 26 42
M  V30 46 1 28 43
M  V30 END BOND
M  V30 END CTAB
M  END
>  <Dataset>  (253) 
ChEMBL_Kinases

>  <Ligand_Instance>  (253) 
nan

>  <PDB_ID>  (253) 
nan

>  <Standardized_SMILES>  (253) 
O=C(OCC(F)F)c1ccc2c(c1)nc(Nc1cccc(Cl)c1)c1ccncc12

>  <Name>  (253) 
nan

>  <Pocket>  (253) 
nan

>  <ATP_Site>  (253) 
nan

>  <Peripheral>  (253) 
nan

>  <Num_H_Atoms_ProtBoundConf>  (253) 
nan

>  <Num_Resolved_Atoms>  (253) 
nan

>  <Num_Not_Resolved_Atoms>  (253) 
nan

$$$$
CHEMBL4872231
     RDKit          3D

  0  0  0  0  0  0  0  0  0  0999 V3000
M  V30 BEGIN CTAB
M  V30 COUNTS 51 54 0 0 0
M  V30 BEGIN ATOM
M  V30 1 C 2.958927 -6.491543 3.560433 0
M  V30 2 O 3.721564 -5.582917 2.790567 0
M  V30 3 C 3.160616 -4.394272 2.364854 0
M  V30 4 C 3.880777 -3.488803 1.612659 0
M  V30 5 C 3.294168 -2.289563 1.190888 0
M  V30 6 C 1.969172 -1.963140 1.510222 0
M  V30 7 C 1.422606 -0.696329 1.046351 0
M  V30 8 N 2.213637 0.321942 0.986996 0
M  V30 9 C 1.532229 1.465341 0.519709 0
M  V30 10 C 1.900833 2.699282 0.332472 0
M  V30 11 C 1.134825 3.828886 -0.161454 0
M  V30 12 C 0.340419 4.027892 -1.268282 0
M  V30 13 C -0.313259 5.220191 -1.467865 0
M  V30 14 C -0.224725 6.284404 -0.595649 0
M  V30 15 O -0.924759 7.445942 -0.888927 0
M  V30 16 C 0.564809 6.107373 0.516295 0
M  V30 17 C 1.226352 4.911062 0.726584 0
M  V30 18 C 0.161502 1.026375 0.282936 0
M  V30 19 O -0.820898 1.655291 -0.126205 0
M  V30 20 N 0.110067 -0.368191 0.626810 0
M  V30 21 C -1.018707 -1.188798 0.540264 0
M  V30 22 C -2.038415 -1.485929 1.423980 0
M  V30 23 C -3.059970 -2.344981 1.079188 0
M  V30 24 C -3.120323 -2.946864 -0.148601 0
M  V30 25 S -4.443518 -4.027485 -0.531287 0
M  V30 26 N -5.724608 -3.080246 -1.232594 0
M  V30 27 O -4.003033 -5.057667 -1.556501 0
M  V30 28 O -4.994537 -4.672425 0.700842 0
M  V30 29 C -2.117031 -2.671685 -1.055381 0
M  V30 30 C -1.073759 -1.801222 -0.718402 0
M  V30 31 C 1.303327 -2.902564 2.260565 0
M  V30 32 C 1.844063 -4.092443 2.694565 0
M  V30 33 H 2.543784 -5.909495 4.433109 0
M  V30 34 H 2.087170 -6.798837 2.937261 0
M  V30 35 H 3.547274 -7.312872 3.967272 0
M  V30 36 H 4.916830 -3.706492 1.342675 0
M  V30 37 H 3.944904 -1.635610 0.599262 0
M  V30 38 H 2.957377 2.870982 0.597022 0
M  V30 39 H 0.323107 3.177092 -1.928052 0
M  V30 40 H -0.900807 5.234756 -2.375520 0
M  V30 41 H -0.434415 8.322534 -0.674145 0
M  V30 42 H 0.618837 6.954300 1.183082 0
M  V30 43 H 1.812158 4.936328 1.660081 0
M  V30 44 H -1.890849 -0.955441 2.365007 0
M  V30 45 H -3.783988 -2.492475 1.844246 0
M  V30 46 H -5.978674 -2.372481 -0.488160 0
M  V30 47 H -5.349908 -2.528135 -2.029263 0
M  V30 48 H -2.198636 -3.164667 -2.013803 0
M  V30 49 H -0.367612 -1.691117 -1.540918 0
M  V30 50 H 0.301765 -2.713954 2.536417 0
M  V30 51 H 1.237036 -4.788039 3.293053 0
M  V30 END ATOM
M  V30 BEGIN BOND
M  V30 1 1 1 2
M  V30 2 1 2 3
M  V30 3 2 3 4
M  V30 4 1 4 5
M  V30 5 2 5 6
M  V30 6 1 6 7
M  V30 7 2 7 8
M  V30 8 1 8 9
M  V30 9 2 9 10
M  V30 10 1 10 11
M  V30 11 2 11 12
M  V30 12 1 12 13
M  V30 13 2 13 14
M  V30 14 1 14 15
M  V30 15 1 14 16
M  V30 16 2 16 17
M  V30 17 1 9 18
M  V30 18 2 18 19
M  V30 19 1 18 20
M  V30 20 1 20 21
M  V30 21 2 21 22
M  V30 22 1 22 23
M  V30 23 2 23 24
M  V30 24 1 24 25
M  V30 25 1 25 26
M  V30 26 2 25 27
M  V30 27 2 25 28
M  V30 28 1 24 29
M  V30 29 2 29 30
M  V30 30 1 6 31
M  V30 31 2 31 32
M  V30 32 1 32 3
M  V30 33 1 20 7
M  V30 34 1 30 21
M  V30 35 1 17 11
M  V30 36 1 1 33
M  V30 37 1 1 34
M  V30 38 1 1 35
M  V30 39 1 4 36
M  V30 40 1 5 37
M  V30 41 1 10 38
M  V30 42 1 12 39
M  V30 43 1 13 40
M  V30 44 1 15 41
M  V30 45 1 16 42
M  V30 46 1 17 43
M  V30 47 1 22 44
M  V30 48 1 23 45
M  V30 49 1 26 46
M  V30 50 1 26 47
M  V30 51 1 29 48
M  V30 52 1 30 49
M  V30 53 1 31 50
M  V30 54 1 32 51
M  V30 END BOND
M  V30 END CTAB
M  END
>  <Dataset>  (254) 
ChEMBL_Kinases

>  <Ligand_Instance>  (254) 
nan

>  <PDB_ID>  (254) 
nan

>  <Standardized_SMILES>  (254) 
COc1ccc(C2=N/C(=C/c3ccc(O)cc3)C(=O)N2c2ccc(S(N)(=O)=O)cc2)cc1

>  <Name>  (254) 
nan

>  <Pocket>  (254) 
nan

>  <ATP_Site>  (254) 
nan

>  <Peripheral>  (254) 
nan

>  <Num_H_Atoms_ProtBoundConf>  (254) 
nan

>  <Num_Resolved_Atoms>  (254) 
nan

>  <Num_Not_Resolved_Atoms>  (254) 
nan

$$$$
CHEMBL4872233
     RDKit          3D

  0  0  0  0  0  0  0  0  0  0999 V3000
M  V30 BEGIN CTAB
M  V30 COUNTS 44 47 0 0 0
M  V30 BEGIN ATOM
M  V30 1 C 0.254991 -6.531101 -1.208238 0
M  V30 2 O -0.388863 -5.606789 -2.043802 0
M  V30 3 C -0.102761 -4.255688 -2.120270 0
M  V30 4 C 0.841637 -3.509870 -1.428769 0
M  V30 5 C 0.948596 -2.156800 -1.673309 0
M  V30 6 C 0.138334 -1.523286 -2.590579 0
M  V30 7 C 0.344835 -0.090407 -2.760961 0
M  V30 8 N 0.419978 0.553657 -3.934298 0
M  V30 9 N 0.610587 1.849585 -3.784603 0
M  V30 10 C 0.671346 2.125486 -2.464081 0
M  V30 11 N 0.843113 3.231037 -1.713707 0
M  V30 12 C 0.857035 3.186561 -0.357044 0
M  V30 13 C 0.695125 2.000421 0.329953 0
M  V30 14 C 0.699515 1.882242 1.786497 0
M  V30 15 C 1.179466 0.696793 2.353741 0
M  V30 16 C 1.210908 0.518604 3.731459 0
M  V30 17 C 0.755674 1.539462 4.574606 0
M  V30 18 N 0.826543 1.266453 5.977787 0
M  V30 19 C -0.300356 0.654908 6.584854 0
M  V30 20 N -0.098514 0.435404 7.997241 0
M  V30 21 O -1.229245 0.438789 5.753897 0
M  V30 22 C 0.282157 2.708959 4.013429 0
M  V30 23 C 0.254162 2.878762 2.639976 0
M  V30 24 C 0.516515 0.849277 -0.445914 0
M  V30 25 C 0.505125 0.913137 -1.827792 0
M  V30 26 C -0.813721 -2.256666 -3.292310 0
M  V30 27 C -0.915663 -3.613206 -3.042218 0
M  V30 28 H 0.363896 -7.504465 -1.748495 0
M  V30 29 H 1.253799 -6.132219 -0.918550 0
M  V30 30 H -0.313591 -6.738377 -0.272177 0
M  V30 31 H 1.419039 -4.107098 -0.737976 0
M  V30 32 H 1.729719 -1.713999 -1.058455 0
M  V30 33 H 0.707602 2.594290 -4.513888 0
M  V30 34 H 0.997373 4.090008 0.227388 0
M  V30 35 H 1.550970 -0.144014 1.765530 0
M  V30 36 H 1.588844 -0.413877 4.161778 0
M  V30 37 H 1.714976 1.541744 6.454863 0
M  V30 38 H -0.670038 0.135213 8.815187 0
M  V30 39 H -1.056391 0.133379 8.315288 0
M  V30 40 H -0.057878 3.467865 4.690334 0
M  V30 41 H -0.117146 3.794747 2.208763 0
M  V30 42 H 0.387302 -0.088179 0.077539 0
M  V30 43 H -1.414249 -1.699142 -3.994513 0
M  V30 44 H -1.692857 -4.072420 -3.650574 0
M  V30 END ATOM
M  V30 BEGIN BOND
M  V30 1 1 1 2
M  V30 2 1 2 3
M  V30 3 2 3 4
M  V30 4 1 4 5
M  V30 5 2 5 6
M  V30 6 1 6 7
M  V30 7 2 7 8
M  V30 8 1 8 9
M  V30 9 1 9 10
M  V30 10 2 10 11
M  V30 11 1 11 12
M  V30 12 2 12 13
M  V30 13 1 13 14
M  V30 14 2 14 15
M  V30 15 1 15 16
M  V30 16 2 16 17
M  V30 17 1 17 18
M  V30 18 1 18 19
M  V30 19 1 19 20
M  V30 20 2 19 21
M  V30 21 1 17 22
M  V30 22 2 22 23
M  V30 23 1 13 24
M  V30 24 2 24 25
M  V30 25 1 6 26
M  V30 26 2 26 27
M  V30 27 1 27 3
M  V30 28 1 25 7
M  V30 29 1 25 10
M  V30 30 1 23 14
M  V30 31 1 1 28
M  V30 32 1 1 29
M  V30 33 1 1 30
M  V30 34 1 4 31
M  V30 35 1 5 32
M  V30 36 1 9 33
M  V30 37 1 12 34
M  V30 38 1 15 35
M  V30 39 1 16 36
M  V30 40 1 18 37
M  V30 41 1 20 38
M  V30 42 1 20 39
M  V30 43 1 22 40
M  V30 44 1 23 41
M  V30 45 1 24 42
M  V30 46 1 26 43
M  V30 47 1 27 44
M  V30 END BOND
M  V30 END CTAB
M  END
>  <Dataset>  (255) 
ChEMBL_Kinases

>  <Ligand_Instance>  (255) 
nan

>  <PDB_ID>  (255) 
nan

>  <Standardized_SMILES>  (255) 
COc1ccc(-c2n[nH]c3ncc(-c4ccc(NC(N)=O)cc4)cc23)cc1

>  <Name>  (255) 
nan

>  <Pocket>  (255) 
nan

>  <ATP_Site>  (255) 
nan

>  <Peripheral>  (255) 
nan

>  <Num_H_Atoms_ProtBoundConf>  (255) 
nan

>  <Num_Resolved_Atoms>  (255) 
nan

>  <Num_Not_Resolved_Atoms>  (255) 
nan

$$$$
CHEMBL4872243
     RDKit          3D

  0  0  0  0  0  0  0  0  0  0999 V3000
M  V30 BEGIN CTAB
M  V30 COUNTS 43 45 0 0 0
M  V30 BEGIN ATOM
M  V30 1 C -1.175291 -4.140080 3.383208 0
M  V30 2 C -0.337065 -5.026773 2.567396 0
M  V30 3 C 0.528897 -4.639536 1.582995 0
M  V30 4 C 1.311087 -5.473512 0.822428 0
M  V30 5 O 2.124849 -4.909408 -0.124382 0
M  V30 6 C 2.211569 -3.548054 -0.366662 0
M  V30 7 C 1.364114 -2.973000 -1.302518 0
M  V30 8 C 1.525567 -1.597112 -1.477806 0
M  V30 9 C 2.459324 -0.839566 -0.777786 0
M  V30 10 N 2.427710 0.536463 -1.135135 0
M  V30 11 C 1.556046 1.362465 -0.383665 0
M  V30 12 O 0.893851 0.777712 0.533607 0
M  V30 13 N 1.317477 2.764144 -0.513910 0
M  V30 14 C 0.384724 3.394247 0.362740 0
M  V30 15 C 0.801613 3.928355 1.573385 0
M  V30 16 C -0.021343 4.559104 2.493824 0
M  V30 17 C -1.350004 4.645376 2.148860 0
M  V30 18 C -1.842790 4.139149 0.963599 0
M  V30 19 C -3.277228 4.223683 0.574280 0
M  V30 20 F -3.367676 4.982771 -0.567091 0
M  V30 21 F -3.630593 2.914623 0.217263 0
M  V30 22 F -4.059617 4.690528 1.591222 0
M  V30 23 C -0.961115 3.525381 0.099253 0
M  V30 24 C 3.274320 -1.473151 0.141399 0
M  V30 25 C 3.151597 -2.830350 0.348753 0
M  V30 26 N 1.159726 -6.771940 1.128201 0
M  V30 27 C 0.332335 -7.218582 2.077082 0
M  V30 28 N -0.425485 -6.358667 2.808313 0
M  V30 29 H -0.682361 -3.805439 4.296855 0
M  V30 30 H -2.119827 -4.656492 3.672672 0
M  V30 31 H -1.470509 -3.246917 2.777505 0
M  V30 32 H 0.568118 -3.558827 1.422904 0
M  V30 33 H 0.645616 -3.547894 -1.843070 0
M  V30 34 H 0.833172 -1.184465 -2.228817 0
M  V30 35 H 2.958128 1.067234 -1.887675 0
M  V30 36 H 1.886044 3.210040 -1.285442 0
M  V30 37 H 1.857885 3.858568 1.845255 0
M  V30 38 H 0.385979 4.949148 3.417749 0
M  V30 39 H -2.014064 5.125293 2.834525 0
M  V30 40 H -1.333297 3.126063 -0.829291 0
M  V30 41 H 3.961947 -0.793823 0.627996 0
M  V30 42 H 3.813883 -3.269650 1.077718 0
M  V30 43 H 0.307655 -8.296491 2.221052 0
M  V30 END ATOM
M  V30 BEGIN BOND
M  V30 1 1 1 2
M  V30 2 2 2 3
M  V30 3 1 3 4
M  V30 4 1 4 5
M  V30 5 1 5 6
M  V30 6 2 6 7
M  V30 7 1 7 8
M  V30 8 2 8 9
M  V30 9 1 9 10
M  V30 10 1 10 11
M  V30 11 2 11 12
M  V30 12 1 11 13
M  V30 13 1 13 14
M  V30 14 2 14 15
M  V30 15 1 15 16
M  V30 16 2 16 17
M  V30 17 1 17 18
M  V30 18 1 18 19
M  V30 19 1 19 20
M  V30 20 1 19 21
M  V30 21 1 19 22
M  V30 22 2 18 23
M  V30 23 1 9 24
M  V30 24 2 24 25
M  V30 25 2 4 26
M  V30 26 1 26 27
M  V30 27 2 27 28
M  V30 28 1 28 2
M  V30 29 1 25 6
M  V30 30 1 23 14
M  V30 31 1 1 29
M  V30 32 1 1 30
M  V30 33 1 1 31
M  V30 34 1 3 32
M  V30 35 1 7 33
M  V30 36 1 8 34
M  V30 37 1 10 35
M  V30 38 1 13 36
M  V30 39 1 15 37
M  V30 40 1 16 38
M  V30 41 1 17 39
M  V30 42 1 23 40
M  V30 43 1 24 41
M  V30 44 1 25 42
M  V30 45 1 27 43
M  V30 END BOND
M  V30 END CTAB
M  END
>  <Dataset>  (256) 
ChEMBL_Kinases

>  <Ligand_Instance>  (256) 
nan

>  <PDB_ID>  (256) 
nan

>  <Standardized_SMILES>  (256) 
Cc1cc(Oc2ccc(NC(=O)Nc3cccc(C(F)(F)F)c3)cc2)ncn1

>  <Name>  (256) 
nan

>  <Pocket>  (256) 
nan

>  <ATP_Site>  (256) 
nan

>  <Peripheral>  (256) 
nan

>  <Num_H_Atoms_ProtBoundConf>  (256) 
nan

>  <Num_Resolved_Atoms>  (256) 
nan

>  <Num_Not_Resolved_Atoms>  (256) 
nan

$$$$
CHEMBL3702079
     RDKit          3D

  0  0  0  0  0  0  0  0  0  0999 V3000
M  V30 BEGIN CTAB
M  V30 COUNTS 70 75 0 0 0
M  V30 BEGIN ATOM
M  V30 1 C 4.792891 -1.114083 4.366027 0
M  V30 2 C 3.833212 -2.131706 3.872240 0
M  V30 3 C 4.376431 -3.548387 4.115936 0
M  V30 4 O 2.687879 -2.070437 4.710462 0
M  V30 5 C 3.410488 -2.009069 2.431263 0
M  V30 6 N 4.381394 -2.069237 1.440318 0
M  V30 7 C 5.326271 -1.061223 1.205963 0
M  V30 8 C 4.832347 0.097491 0.334036 0
M  V30 9 N 3.765754 -0.420322 -0.485270 0
M  V30 10 C 2.593207 0.304964 -0.825418 0
M  V30 11 C 1.474568 -0.309797 -1.332624 0
M  V30 12 C 0.298186 0.313597 -1.683112 0
M  V30 13 C 0.268676 1.684414 -1.496545 0
M  V30 14 N -0.901849 2.389308 -1.810245 0
M  V30 15 C -2.077951 1.772330 -2.317047 0
M  V30 16 N -2.660316 1.850631 -3.546799 0
M  V30 17 C -3.780712 1.141171 -3.753084 0
M  V30 18 C -4.347732 0.347194 -2.765472 0
M  V30 19 C -5.452036 -0.473544 -2.689405 0
M  V30 20 C -6.362399 -0.713700 -3.711107 0
M  V30 21 C -7.405587 -1.590046 -3.393573 0
M  V30 22 N -7.463919 -2.128530 -2.166482 0
M  V30 23 C -6.560306 -1.863259 -1.217586 0
M  V30 24 F -6.704042 -2.467876 -0.015411 0
M  V30 25 C -5.483684 -1.009009 -1.418848 0
M  V30 26 N -4.445178 -0.559070 -0.692829 0
M  V30 27 C -4.169907 -0.931831 0.672130 0
M  V30 28 C -5.120854 -0.259141 1.627075 0
M  V30 29 C -4.549698 1.170023 1.586279 0
M  V30 30 C -3.045763 0.890680 1.721002 0
M  V30 31 C -2.825681 -0.458426 1.147872 0
M  V30 32 C -3.750339 0.273923 -1.523762 0
M  V30 33 N -2.632222 1.001033 -1.365584 0
M  V30 34 N 1.347848 2.317706 -1.002811 0
M  V30 35 C 2.485676 1.677996 -0.669137 0
M  V30 36 C 4.035632 -1.788955 -0.929692 0
M  V30 37 C 3.939135 -2.736157 0.257163 0
M  V30 38 H 5.868950 -1.393278 4.259807 0
M  V30 39 H 4.626452 -1.002251 5.478762 0
M  V30 40 H 4.598559 -0.121776 3.929576 0
M  V30 41 H 4.887522 -3.542764 5.095891 0
M  V30 42 H 5.061344 -3.845324 3.303973 0
M  V30 43 H 3.513104 -4.245986 4.191010 0
M  V30 44 H 2.783456 -1.306002 5.312186 0
M  V30 45 H 2.607592 -2.796340 2.221892 0
M  V30 46 H 2.817984 -1.056438 2.372249 0
M  V30 47 H 5.881465 -0.648938 2.044559 0
M  V30 48 H 6.143944 -1.547780 0.563705 0
M  V30 49 H 5.666026 0.426378 -0.301958 0
M  V30 50 H 4.511316 0.974149 0.939921 0
M  V30 51 H 1.426405 -1.385348 -1.496763 0
M  V30 52 H -0.564462 -0.178615 -2.076353 0
M  V30 53 H -1.064925 3.403192 -1.723873 0
M  V30 54 H -4.246740 1.202799 -4.726120 0
M  V30 55 H -6.265033 -0.252752 -4.680793 0
M  V30 56 H -8.141652 -1.816026 -4.139181 0
M  V30 57 H -4.235862 -2.057851 0.784987 0
M  V30 58 H -4.917449 -0.643884 2.649156 0
M  V30 59 H -6.166136 -0.262441 1.352417 0
M  V30 60 H -4.804214 1.559664 0.582303 0
M  V30 61 H -4.943436 1.769571 2.411665 0
M  V30 62 H -2.866803 0.918881 2.837005 0
M  V30 63 H -2.457803 1.705468 1.292780 0
M  V30 64 H -2.048739 -0.519598 0.358571 0
M  V30 65 H -2.557132 -1.144981 1.999260 0
M  V30 66 H 3.330688 2.223138 -0.275103 0
M  V30 67 H 5.074892 -1.805603 -1.313132 0
M  V30 68 H 3.289475 -2.059044 -1.671885 0
M  V30 69 H 4.504407 -3.649365 0.013506 0
M  V30 70 H 2.859152 -3.053832 0.352564 0
M  V30 END ATOM
M  V30 BEGIN BOND
M  V30 1 1 1 2
M  V30 2 1 2 3
M  V30 3 1 2 4
M  V30 4 1 2 5
M  V30 5 1 5 6
M  V30 6 1 6 7
M  V30 7 1 7 8
M  V30 8 1 8 9
M  V30 9 1 9 10
M  V30 10 2 10 11
M  V30 11 1 11 12
M  V30 12 2 12 13
M  V30 13 1 13 14
M  V30 14 1 14 15
M  V30 15 2 15 16
M  V30 16 1 16 17
M  V30 17 2 17 18
M  V30 18 1 18 19
M  V30 19 2 19 20
M  V30 20 1 20 21
M  V30 21 2 21 22
M  V30 22 1 22 23
M  V30 23 1 23 24
M  V30 24 2 23 25
M  V30 25 1 25 26
M  V30 26 1 26 27
M  V30 27 1 27 28
M  V30 28 1 28 29
M  V30 29 1 29 30
M  V30 30 1 30 31
M  V30 31 1 26 32
M  V30 32 2 32 33
M  V30 33 1 13 34
M  V30 34 2 34 35
M  V30 35 1 9 36
M  V30 36 1 36 37
M  V30 37 1 37 6
M  V30 38 1 35 10
M  V30 39 1 33 15
M  V30 40 1 32 18
M  V30 41 1 25 19
M  V30 42 1 31 27
M  V30 43 1 1 38
M  V30 44 1 1 39
M  V30 45 1 1 40
M  V30 46 1 3 41
M  V30 47 1 3 42
M  V30 48 1 3 43
M  V30 49 1 4 44
M  V30 50 1 5 45
M  V30 51 1 5 46
M  V30 52 1 7 47
M  V30 53 1 7 48
M  V30 54 1 8 49
M  V30 55 1 8 50
M  V30 56 1 11 51
M  V30 57 1 12 52
M  V30 58 1 14 53
M  V30 59 1 17 54
M  V30 60 1 20 55
M  V30 61 1 21 56
M  V30 62 1 27 57
M  V30 63 1 28 58
M  V30 64 1 28 59
M  V30 65 1 29 60
M  V30 66 1 29 61
M  V30 67 1 30 62
M  V30 68 1 30 63
M  V30 69 1 31 64
M  V30 70 1 31 65
M  V30 71 1 35 66
M  V30 72 1 36 67
M  V30 73 1 36 68
M  V30 74 1 37 69
M  V30 75 1 37 70
M  V30 END BOND
M  V30 END CTAB
M  END
>  <Dataset>  (257) 
ChEMBL_Kinases

>  <Ligand_Instance>  (257) 
nan

>  <PDB_ID>  (257) 
nan

>  <Standardized_SMILES>  (257) 
CC(C)(O)CN1CCN(c2ccc(Nc3ncc4c5ccnc(F)c5n(C5CCCC5)c4n3)nc2)CC1

>  <Name>  (257) 
nan

>  <Pocket>  (257) 
nan

>  <ATP_Site>  (257) 
nan

>  <Peripheral>  (257) 
nan

>  <Num_H_Atoms_ProtBoundConf>  (257) 
nan

>  <Num_Resolved_Atoms>  (257) 
nan

>  <Num_Not_Resolved_Atoms>  (257) 
nan

$$$$
CHEMBL4872380
     RDKit          3D

  0  0  0  0  0  0  0  0  0  0999 V3000
M  V30 BEGIN CTAB
M  V30 COUNTS 44 45 0 0 0
M  V30 BEGIN ATOM
M  V30 1 C 1.281123 -2.887368 3.299254 0
M  V30 2 C 0.475851 -3.038986 2.022921 0
M  V30 3 C -0.880835 -3.565991 2.360282 0
M  V30 4 C 1.257880 -3.963235 1.094607 0
M  V30 5 N 2.536856 -3.365152 0.825693 0
M  V30 6 C 0.309624 -1.721250 1.310321 0
M  V30 7 N -0.465633 -1.952093 0.111344 0
M  V30 8 C -0.754384 -0.835143 -0.739855 0
M  V30 9 N -0.320527 0.397621 -0.440135 0
M  V30 10 C -0.505872 1.509590 -1.119429 0
M  V30 11 N -0.037727 2.805616 -0.784490 0
M  V30 12 C 0.726354 3.215820 0.335979 0
M  V30 13 C 1.125816 4.522405 0.554160 0
M  V30 14 C 1.868114 4.874337 1.658405 0
M  V30 15 C 2.259114 3.974514 2.605346 0
M  V30 16 C 3.028281 4.403482 3.727937 0
M  V30 17 N 3.655381 4.767792 4.637810 0
M  V30 18 N 1.882483 2.704421 2.412486 0
M  V30 19 C 1.157560 2.366680 1.332086 0
M  V30 20 N -1.220283 1.358808 -2.245146 0
M  V30 21 C -1.714485 0.212858 -2.673443 0
M  V30 22 C -1.478901 -0.907916 -1.908450 0
M  V30 23 C -2.003847 -2.239574 -2.324877 0
M  V30 24 F -0.992334 -3.167917 -2.518908 0
M  V30 25 F -2.859686 -2.774466 -1.389931 0
M  V30 26 F -2.706515 -2.086271 -3.507227 0
M  V30 27 H 1.985219 -3.738519 3.392031 0
M  V30 28 H 1.835262 -1.920123 3.339449 0
M  V30 29 H 0.606267 -2.991864 4.196683 0
M  V30 30 H -1.316621 -4.193920 1.549040 0
M  V30 31 H -1.611165 -2.754137 2.549287 0
M  V30 32 H -0.822703 -4.153167 3.309577 0
M  V30 33 H 1.393319 -4.957517 1.610179 0
M  V30 34 H 0.724973 -4.086275 0.133129 0
M  V30 35 H 2.586790 -2.896090 -0.112236 0
M  V30 36 H 2.789941 -2.652319 1.535984 0
M  V30 37 H -0.195699 -1.028376 2.014195 0
M  V30 38 H 1.310356 -1.302464 1.095358 0
M  V30 39 H -0.867672 -2.871550 -0.240860 0
M  V30 40 H -0.271813 3.607225 -1.439813 0
M  V30 41 H 0.840516 5.293803 -0.175443 0
M  V30 42 H 2.144018 5.918442 1.761411 0
M  V30 43 H 0.925933 1.313339 1.305113 0
M  V30 44 H -2.282443 0.134110 -3.582240 0
M  V30 END ATOM
M  V30 BEGIN BOND
M  V30 1 1 1 2
M  V30 2 1 2 3
M  V30 3 1 2 4
M  V30 4 1 4 5
M  V30 5 1 2 6
M  V30 6 1 6 7
M  V30 7 1 7 8
M  V30 8 2 8 9
M  V30 9 1 9 10
M  V30 10 1 10 11
M  V30 11 1 11 12
M  V30 12 2 12 13
M  V30 13 1 13 14
M  V30 14 2 14 15
M  V30 15 1 15 16
M  V30 16 3 16 17
M  V30 17 1 15 18
M  V30 18 2 18 19
M  V30 19 2 10 20
M  V30 20 1 20 21
M  V30 21 2 21 22
M  V30 22 1 22 23
M  V30 23 1 23 24
M  V30 24 1 23 25
M  V30 25 1 23 26
M  V30 26 1 22 8
M  V30 27 1 19 12
M  V30 28 1 1 27
M  V30 29 1 1 28
M  V30 30 1 1 29
M  V30 31 1 3 30
M  V30 32 1 3 31
M  V30 33 1 3 32
M  V30 34 1 4 33
M  V30 35 1 4 34
M  V30 36 1 5 35
M  V30 37 1 5 36
M  V30 38 1 6 37
M  V30 39 1 6 38
M  V30 40 1 7 39
M  V30 41 1 11 40
M  V30 42 1 13 41
M  V30 43 1 14 42
M  V30 44 1 19 43
M  V30 45 1 21 44
M  V30 END BOND
M  V30 END CTAB
M  END
>  <Dataset>  (258) 
ChEMBL_Kinases

>  <Ligand_Instance>  (258) 
nan

>  <PDB_ID>  (258) 
nan

>  <Standardized_SMILES>  (258) 
CC(C)(CN)CNc1nc(Nc2ccc(C#N)nc2)ncc1C(F)(F)F

>  <Name>  (258) 
nan

>  <Pocket>  (258) 
nan

>  <ATP_Site>  (258) 
nan

>  <Peripheral>  (258) 
nan

>  <Num_H_Atoms_ProtBoundConf>  (258) 
nan

>  <Num_Resolved_Atoms>  (258) 
nan

>  <Num_Not_Resolved_Atoms>  (258) 
nan

$$$$
CHEMBL4872712
     RDKit          3D

  0  0  0  0  0  0  0  0  0  0999 V3000
M  V30 BEGIN CTAB
M  V30 COUNTS 52 55 0 0 0
M  V30 BEGIN ATOM
M  V30 1 C 3.843681 -2.827045 5.321899 0
M  V30 2 C 5.125438 -3.191108 4.602885 0
M  V30 3 C 5.540098 -2.174188 3.589633 0
M  V30 4 N 4.530563 -2.006128 2.586233 0
M  V30 5 C 4.032525 -3.003753 1.712779 0
M  V30 6 O 4.537292 -4.158230 1.841715 0
M  V30 7 C 3.000295 -2.826857 0.686630 0
M  V30 8 C 2.657212 -3.923233 -0.049988 0
M  V30 9 C 1.709279 -3.876968 -1.044799 0
M  V30 10 C 1.087074 -2.679922 -1.303051 0
M  V30 11 C 1.475280 -1.585265 -0.516631 0
M  V30 12 C 0.841908 -0.283849 -0.753731 0
M  V30 13 C 0.318856 0.788822 -0.929094 0
M  V30 14 C -0.286724 2.084551 -1.146037 0
M  V30 15 C 0.442730 3.251848 -1.113874 0
M  V30 16 C -0.325226 4.362108 -1.371915 0
M  V30 17 C -1.688299 4.463199 -1.650055 0
M  V30 18 C -2.312641 3.214377 -1.651415 0
M  V30 19 C -1.640016 2.038062 -1.405938 0
M  V30 20 N -2.507457 0.951445 -1.420336 0
M  V30 21 C -3.340537 -0.123183 -1.457229 0
M  V30 22 N -3.445353 -1.286159 -2.169815 0
M  V30 23 C -4.404173 -2.175883 -1.984284 0
M  V30 24 N -5.313442 -1.913716 -1.045626 0
M  V30 25 C -5.347767 -0.834442 -0.274413 0
M  V30 26 C -6.383308 -0.777485 0.627077 0
M  V30 27 C -6.422845 0.333155 1.424451 0
M  V30 28 C -5.430695 1.267405 1.240082 0
M  V30 29 Cl -5.393810 2.741781 2.224354 0
M  V30 30 N -4.435699 1.176831 0.348712 0
M  V30 31 C -4.329759 0.111555 -0.471788 0
M  V30 32 C 2.419004 -1.561879 0.496850 0
M  V30 33 H 4.010466 -2.607527 6.384713 0
M  V30 34 H 3.303101 -1.981777 4.854154 0
M  V30 35 H 3.136587 -3.709805 5.312160 0
M  V30 36 H 4.998007 -4.165779 4.113561 0
M  V30 37 H 5.910274 -3.291603 5.399376 0
M  V30 38 H 5.774757 -1.182302 4.042160 0
M  V30 39 H 6.472708 -2.574261 3.103399 0
M  V30 40 H 4.087170 -1.061026 2.450573 0
M  V30 41 H 3.086030 -4.918827 0.073257 0
M  V30 42 H 1.385957 -4.693719 -1.669996 0
M  V30 43 H 0.318381 -2.456278 -2.046087 0
M  V30 44 H 1.494138 3.250970 -0.907310 0
M  V30 45 H 0.208187 5.304718 -1.362522 0
M  V30 46 H -2.132977 5.424012 -1.831087 0
M  V30 47 H -3.394822 3.310086 -1.876211 0
M  V30 48 H -1.950819 0.615721 -2.281005 0
M  V30 49 H -4.292322 -3.011017 -2.654725 0
M  V30 50 H -7.113038 -1.538310 0.707659 0
M  V30 51 H -7.167169 0.519951 2.170724 0
M  V30 52 H 2.676239 -0.705614 1.057613 0
M  V30 END ATOM
M  V30 BEGIN BOND
M  V30 1 1 1 2
M  V30 2 1 2 3
M  V30 3 1 3 4
M  V30 4 1 4 5
M  V30 5 2 5 6
M  V30 6 1 5 7
M  V30 7 2 7 8
M  V30 8 1 8 9
M  V30 9 2 9 10
M  V30 10 1 10 11
M  V30 11 1 11 12
M  V30 12 3 12 13
M  V30 13 1 13 14
M  V30 14 2 14 15
M  V30 15 1 15 16
M  V30 16 2 16 17
M  V30 17 1 17 18
M  V30 18 2 18 19
M  V30 19 1 19 20
M  V30 20 1 20 21
M  V30 21 2 21 22
M  V30 22 1 22 23
M  V30 23 2 23 24
M  V30 24 1 24 25
M  V30 25 2 25 26
M  V30 26 1 26 27
M  V30 27 2 27 28
M  V30 28 1 28 29
M  V30 29 1 28 30
M  V30 30 2 30 31
M  V30 31 2 11 32
M  V30 32 1 32 7
M  V30 33 1 19 14
M  V30 34 1 31 21
M  V30 35 1 31 25
M  V30 36 1 1 33
M  V30 37 1 1 34
M  V30 38 1 1 35
M  V30 39 1 2 36
M  V30 40 1 2 37
M  V30 41 1 3 38
M  V30 42 1 3 39
M  V30 43 1 4 40
M  V30 44 1 8 41
M  V30 45 1 9 42
M  V30 46 1 10 43
M  V30 47 1 15 44
M  V30 48 1 16 45
M  V30 49 1 17 46
M  V30 50 1 18 47
M  V30 51 1 20 48
M  V30 52 1 23 49
M  V30 53 1 26 50
M  V30 54 1 27 51
M  V30 55 1 32 52
M  V30 END BOND
M  V30 END CTAB
M  END
>  <Dataset>  (259) 
ChEMBL_Kinases

>  <Ligand_Instance>  (259) 
nan

>  <PDB_ID>  (259) 
nan

>  <Standardized_SMILES>  (259) 
CCCNC(=O)c1cccc(C#Cc2ccccc2Nc2ncnc3ccc(Cl)nc23)c1

>  <Name>  (259) 
nan

>  <Pocket>  (259) 
nan

>  <ATP_Site>  (259) 
nan

>  <Peripheral>  (259) 
nan

>  <Num_H_Atoms_ProtBoundConf>  (259) 
nan

>  <Num_Resolved_Atoms>  (259) 
nan

>  <Num_Not_Resolved_Atoms>  (259) 
nan

$$$$
CHEMBL4872408
     RDKit          3D

  0  0  0  0  0  0  0  0  0  0999 V3000
M  V30 BEGIN CTAB
M  V30 COUNTS 30 32 0 0 0
M  V30 BEGIN ATOM
M  V30 1 C -1.443139 -1.787718 3.114777 0
M  V30 2 N -0.994946 -2.854866 2.219945 0
M  V30 3 C -1.379776 -4.220902 2.543021 0
M  V30 4 C -0.208447 -2.610289 1.062714 0
M  V30 5 N 0.180443 -3.631870 0.267679 0
M  V30 6 C 0.922570 -3.456720 -0.835119 0
M  V30 7 C 1.278145 -2.157660 -1.126513 0
M  V30 8 C 0.908766 -1.078302 -0.350103 0
M  V30 9 C 1.331716 0.266348 -0.735823 0
M  V30 10 C 2.093188 0.596624 -1.837992 0
M  V30 11 N 2.243749 1.935901 -1.807568 0
M  V30 12 C 1.610437 2.447429 -0.737633 0
M  V30 13 N 1.480016 3.730527 -0.287714 0
M  V30 14 C 0.761164 3.936865 0.853758 0
M  V30 15 C 0.174737 2.899789 1.549988 0
M  V30 16 C 0.335875 1.604654 1.050665 0
M  V30 17 N 1.044696 1.403642 -0.074410 0
M  V30 18 N 0.162498 -1.380301 0.734305 0
M  V30 19 H -1.473067 -2.141602 4.162970 0
M  V30 20 H -2.421495 -1.444784 2.752817 0
M  V30 21 H -0.646448 -1.012578 3.088708 0
M  V30 22 H -0.552939 -4.937562 2.339895 0
M  V30 23 H -2.267380 -4.445238 1.890180 0
M  V30 24 H -1.726103 -4.280895 3.591362 0
M  V30 25 H 1.217466 -4.299363 -1.451258 0
M  V30 26 H 1.878543 -1.970351 -2.009854 0
M  V30 27 H 2.472136 -0.095668 -2.553439 0
M  V30 28 H 0.733484 4.984661 1.100359 0
M  V30 29 H -0.376203 3.166446 2.446000 0
M  V30 30 H -0.136809 0.816644 1.621186 0
M  V30 END ATOM
M  V30 BEGIN BOND
M  V30 1 1 1 2
M  V30 2 1 2 3
M  V30 3 1 2 4
M  V30 4 2 4 5
M  V30 5 1 5 6
M  V30 6 2 6 7
M  V30 7 1 7 8
M  V30 8 1 8 9
M  V30 9 2 9 10
M  V30 10 1 10 11
M  V30 11 2 11 12
M  V30 12 1 12 13
M  V30 13 2 13 14
M  V30 14 1 14 15
M  V30 15 2 15 16
M  V30 16 1 16 17
M  V30 17 2 8 18
M  V30 18 1 18 4
M  V30 19 1 17 9
M  V30 20 1 17 12
M  V30 21 1 1 19
M  V30 22 1 1 20
M  V30 23 1 1 21
M  V30 24 1 3 22
M  V30 25 1 3 23
M  V30 26 1 3 24
M  V30 27 1 6 25
M  V30 28 1 7 26
M  V30 29 1 10 27
M  V30 30 1 14 28
M  V30 31 1 15 29
M  V30 32 1 16 30
M  V30 END BOND
M  V30 END CTAB
M  END
>  <Dataset>  (260) 
ChEMBL_Kinases

>  <Ligand_Instance>  (260) 
nan

>  <PDB_ID>  (260) 
nan

>  <Standardized_SMILES>  (260) 
CN(C)c1nccc(-c2cnc3ncccn23)n1

>  <Name>  (260) 
nan

>  <Pocket>  (260) 
nan

>  <ATP_Site>  (260) 
nan

>  <Peripheral>  (260) 
nan

>  <Num_H_Atoms_ProtBoundConf>  (260) 
nan

>  <Num_Resolved_Atoms>  (260) 
nan

>  <Num_Not_Resolved_Atoms>  (260) 
nan

$$$$
CHEMBL3702081
     RDKit          3D

  0  0  0  0  0  0  0  0  0  0999 V3000
M  V30 BEGIN CTAB
M  V30 COUNTS 64 69 0 0 0
M  V30 BEGIN ATOM
M  V30 1 O 5.154117 -0.439358 2.079239 0
M  V30 2 C 4.293771 0.015402 2.907662 0
M  V30 3 O 3.800840 -1.105918 3.542576 0
M  V30 4 C 3.907580 1.437072 3.138367 0
M  V30 5 C 4.664488 2.374030 2.264730 0
M  V30 6 C 4.431483 2.094814 0.792944 0
M  V30 7 C 3.460296 3.109762 0.208496 0
M  V30 8 N 2.377456 3.363305 1.172162 0
M  V30 9 C 1.039484 2.886771 1.118732 0
M  V30 10 C -0.095756 3.281412 1.811793 0
M  V30 11 C -1.269223 2.599670 1.573222 0
M  V30 12 C -1.407839 1.547469 0.694515 0
M  V30 13 N -2.660840 0.861165 0.520061 0
M  V30 14 C -2.567972 -0.211608 -0.443395 0
M  V30 15 N -1.920641 0.052718 -1.590881 0
M  V30 16 C -1.729896 -0.871117 -2.575983 0
M  V30 17 C -2.257066 -2.131694 -2.316077 0
M  V30 18 C -2.253968 -3.293421 -3.063066 0
M  V30 19 C -1.702816 -3.507649 -4.325839 0
M  V30 20 C -1.830205 -4.769883 -4.872730 0
M  V30 21 N -2.479195 -5.749248 -4.173036 0
M  V30 22 C -2.995404 -5.488161 -2.951336 0
M  V30 23 F -3.628761 -6.493953 -2.303020 0
M  V30 24 C -2.914777 -4.258186 -2.329545 0
M  V30 25 N -3.309631 -3.702582 -1.172412 0
M  V30 26 C -4.026040 -4.500205 -0.191313 0
M  V30 27 C -2.998678 -5.358253 0.508119 0
M  V30 28 C -2.415267 -4.344171 1.505289 0
M  V30 29 C -3.670389 -3.612874 1.993296 0
M  V30 30 C -4.665389 -3.723981 0.890919 0
M  V30 31 C -2.923956 -2.418141 -1.141774 0
M  V30 32 N -3.084383 -1.451765 -0.192423 0
M  V30 33 N -0.274087 1.212793 0.052107 0
M  V30 34 C 0.905990 1.826238 0.227853 0
M  V30 35 C 2.954994 4.186685 2.234803 0
M  V30 36 C 4.382606 3.809227 2.551443 0
M  V30 37 H 4.404589 -1.813293 3.978127 0
M  V30 38 H 4.110214 1.656199 4.207928 0
M  V30 39 H 2.830450 1.497579 2.898846 0
M  V30 40 H 5.757317 2.207394 2.507026 0
M  V30 41 H 5.399010 2.233786 0.273771 0
M  V30 42 H 4.109002 1.055389 0.631791 0
M  V30 43 H 3.083207 2.678972 -0.736170 0
M  V30 44 H 4.016506 4.019054 -0.061922 0
M  V30 45 H 0.089933 4.093484 2.466367 0
M  V30 46 H -2.125088 2.938297 2.130286 0
M  V30 47 H -3.453203 1.214493 1.096249 0
M  V30 48 H -1.202344 -0.618273 -3.489303 0
M  V30 49 H -1.191381 -2.741680 -4.881053 0
M  V30 50 H -1.395624 -4.933570 -5.868572 0
M  V30 51 H -4.757722 -5.155653 -0.739095 0
M  V30 52 H -3.437159 -6.182487 1.080512 0
M  V30 53 H -2.190224 -5.695046 -0.171833 0
M  V30 54 H -1.870355 -4.844863 2.323499 0
M  V30 55 H -1.777610 -3.643437 0.939326 0
M  V30 56 H -4.022457 -4.125492 2.932628 0
M  V30 57 H -3.415118 -2.595448 2.313791 0
M  V30 58 H -5.513353 -4.362992 1.285398 0
M  V30 59 H -5.073902 -2.739244 0.566464 0
M  V30 60 H 1.619195 1.324621 -0.429087 0
M  V30 61 H 2.374214 4.049194 3.179322 0
M  V30 62 H 2.914590 5.234213 1.878679 0
M  V30 63 H 4.529692 3.966439 3.653107 0
M  V30 64 H 5.107158 4.470619 2.022136 0
M  V30 END ATOM
M  V30 BEGIN BOND
M  V30 1 2 1 2
M  V30 2 1 2 3
M  V30 3 1 2 4
M  V30 4 1 4 5
M  V30 5 1 5 6
M  V30 6 1 6 7
M  V30 7 1 7 8
M  V30 8 1 8 9
M  V30 9 2 9 10
M  V30 10 1 10 11
M  V30 11 2 11 12
M  V30 12 1 12 13
M  V30 13 1 13 14
M  V30 14 2 14 15
M  V30 15 1 15 16
M  V30 16 2 16 17
M  V30 17 1 17 18
M  V30 18 2 18 19
M  V30 19 1 19 20
M  V30 20 2 20 21
M  V30 21 1 21 22
M  V30 22 1 22 23
M  V30 23 2 22 24
M  V30 24 1 24 25
M  V30 25 1 25 26
M  V30 26 1 26 27
M  V30 27 1 27 28
M  V30 28 1 28 29
M  V30 29 1 29 30
M  V30 30 1 25 31
M  V30 31 2 31 32
M  V30 32 1 12 33
M  V30 33 2 33 34
M  V30 34 1 8 35
M  V30 35 1 35 36
M  V30 36 1 36 5
M  V30 37 1 34 9
M  V30 38 1 32 14
M  V30 39 1 31 17
M  V30 40 1 24 18
M  V30 41 1 30 26
M  V30 42 1 3 37
M  V30 43 1 4 38
M  V30 44 1 4 39
M  V30 45 1 5 40
M  V30 46 1 6 41
M  V30 47 1 6 42
M  V30 48 1 7 43
M  V30 49 1 7 44
M  V30 50 1 10 45
M  V30 51 1 11 46
M  V30 52 1 13 47
M  V30 53 1 16 48
M  V30 54 1 19 49
M  V30 55 1 20 50
M  V30 56 1 26 51
M  V30 57 1 27 52
M  V30 58 1 27 53
M  V30 59 1 28 54
M  V30 60 1 28 55
M  V30 61 1 29 56
M  V30 62 1 29 57
M  V30 63 1 30 58
M  V30 64 1 30 59
M  V30 65 1 34 60
M  V30 66 1 35 61
M  V30 67 1 35 62
M  V30 68 1 36 63
M  V30 69 1 36 64
M  V30 END BOND
M  V30 END CTAB
M  END
>  <Dataset>  (261) 
ChEMBL_Kinases

>  <Ligand_Instance>  (261) 
nan

>  <PDB_ID>  (261) 
nan

>  <Standardized_SMILES>  (261) 
O=C(O)CC1CCN(c2ccc(Nc3ncc4c5ccnc(F)c5n(C5CCCC5)c4n3)nc2)CC1

>  <Name>  (261) 
nan

>  <Pocket>  (261) 
nan

>  <ATP_Site>  (261) 
nan

>  <Peripheral>  (261) 
nan

>  <Num_H_Atoms_ProtBoundConf>  (261) 
nan

>  <Num_Resolved_Atoms>  (261) 
nan

>  <Num_Not_Resolved_Atoms>  (261) 
nan

$$$$
CHEMBL4872494
     RDKit          3D

  0  0  0  0  0  0  0  0  0  0999 V3000
M  V30 BEGIN CTAB
M  V30 COUNTS 51 54 0 0 0
M  V30 BEGIN ATOM
M  V30 1 C 4.098681 0.049678 -2.802718 0
M  V30 2 O 3.864540 0.407447 -1.453183 0
M  V30 3 C 4.377447 -0.408770 -0.463065 0
M  V30 4 C 5.110657 -1.562667 -0.561089 0
M  V30 5 C 5.544883 -2.256739 0.545770 0
M  V30 6 C 5.242358 -1.791755 1.815304 0
M  V30 7 F 5.693223 -2.511609 2.892553 0
M  V30 8 C 4.504767 -0.631210 1.941459 0
M  V30 9 C 4.071162 0.062200 0.806490 0
M  V30 10 C 3.310651 1.262207 1.201305 0
M  V30 11 C 3.836270 2.521890 1.443747 0
M  V30 12 C 2.976172 3.540685 1.808741 0
M  V30 13 N 1.651076 3.285161 1.919590 0
M  V30 14 C 1.110028 2.074905 1.691667 0
M  V30 15 N -0.179827 1.691633 1.765351 0
M  V30 16 C -0.154488 0.400007 1.442171 0
M  V30 17 C -1.329113 -0.453842 1.377927 0
M  V30 18 C -2.570056 -0.091602 1.617032 0
M  V30 19 C -3.714263 -1.068079 1.519220 0
M  V30 20 C -3.687937 -1.654562 0.148763 0
M  V30 21 N -4.597833 -2.710113 -0.109436 0
M  V30 22 C -5.976641 -2.430382 0.054609 0
M  V30 23 C -6.496640 -2.317566 1.429602 0
M  V30 24 O -6.193676 -2.431413 2.673842 0
M  V30 25 O -7.823531 -1.947327 1.428364 0
M  V30 26 C -2.273463 -2.164743 -0.139168 0
M  V30 27 C -1.332970 -1.917228 1.019055 0
M  V30 28 C 1.114567 -0.057813 1.162979 0
M  V30 29 C 1.942729 1.036086 1.325415 0
M  V30 30 H 4.075285 -1.039552 -2.984885 0
M  V30 31 H 3.239637 0.457365 -3.412031 0
M  V30 32 H 5.056755 0.438059 -3.197577 0
M  V30 33 H 5.307246 -1.858534 -1.590623 0
M  V30 34 H 6.116876 -3.157039 0.371643 0
M  V30 35 H 4.327199 -0.362794 2.972796 0
M  V30 36 H 4.909537 2.592683 1.318905 0
M  V30 37 H 3.418183 4.510846 1.991035 0
M  V30 38 H -0.990081 2.300612 2.022771 0
M  V30 39 H -2.748857 0.947381 1.890954 0
M  V30 40 H -3.604815 -1.870998 2.263449 0
M  V30 41 H -4.663247 -0.532048 1.718109 0
M  V30 42 H -3.899109 -0.772808 -0.551236 0
M  V30 43 H -4.341685 -3.240176 -0.948893 0
M  V30 44 H -6.612955 -3.205844 -0.481052 0
M  V30 45 H -6.242263 -1.446626 -0.444960 0
M  V30 46 H -8.460734 -2.082228 2.190493 0
M  V30 47 H -1.919473 -1.641634 -1.034785 0
M  V30 48 H -2.268647 -3.254473 -0.343862 0
M  V30 49 H -1.692628 -2.520981 1.872489 0
M  V30 50 H -0.327051 -2.267285 0.725870 0
M  V30 51 H 1.449756 -1.045108 0.873755 0
M  V30 END ATOM
M  V30 BEGIN BOND
M  V30 1 1 1 2
M  V30 2 1 2 3
M  V30 3 2 3 4
M  V30 4 1 4 5
M  V30 5 2 5 6
M  V30 6 1 6 7
M  V30 7 1 6 8
M  V30 8 2 8 9
M  V30 9 1 9 10
M  V30 10 2 10 11
M  V30 11 1 11 12
M  V30 12 2 12 13
M  V30 13 1 13 14
M  V30 14 1 14 15
M  V30 15 1 15 16
M  V30 16 1 16 17
M  V30 17 2 17 18
M  V30 18 1 18 19
M  V30 19 1 19 20
M  V30 20 1 20 21
M  V30 21 1 21 22
M  V30 22 1 22 23
M  V30 23 2 23 24
M  V30 24 1 23 25
M  V30 25 1 20 26
M  V30 26 1 26 27
M  V30 27 2 16 28
M  V30 28 1 28 29
M  V30 29 1 9 3
M  V30 30 1 29 10
M  V30 31 2 29 14
M  V30 32 1 27 17
M  V30 33 1 1 30
M  V30 34 1 1 31
M  V30 35 1 1 32
M  V30 36 1 4 33
M  V30 37 1 5 34
M  V30 38 1 8 35
M  V30 39 1 11 36
M  V30 40 1 12 37
M  V30 41 1 15 38
M  V30 42 1 18 39
M  V30 43 1 19 40
M  V30 44 1 19 41
M  V30 45 1 20 42
M  V30 46 1 21 43
M  V30 47 1 22 44
M  V30 48 1 22 45
M  V30 49 1 25 46
M  V30 50 1 26 47
M  V30 51 1 26 48
M  V30 52 1 27 49
M  V30 53 1 27 50
M  V30 54 1 28 51
M  V30 END BOND
M  V30 END CTAB
M  END
>  <Dataset>  (262) 
ChEMBL_Kinases

>  <Ligand_Instance>  (262) 
nan

>  <PDB_ID>  (262) 
nan

>  <Standardized_SMILES>  (262) 
COc1ccc(F)cc1-c1ccnc2[nH]c(C3=CCC(NCC(=O)O)CC3)cc12

>  <Name>  (262) 
nan

>  <Pocket>  (262) 
nan

>  <ATP_Site>  (262) 
nan

>  <Peripheral>  (262) 
nan

>  <Num_H_Atoms_ProtBoundConf>  (262) 
nan

>  <Num_Resolved_Atoms>  (262) 
nan

>  <Num_Not_Resolved_Atoms>  (262) 
nan

$$$$
CHEMBL4872535
     RDKit          3D

  0  0  0  0  0  0  0  0  0  0999 V3000
M  V30 BEGIN CTAB
M  V30 COUNTS 64 69 0 0 0
M  V30 BEGIN ATOM
M  V30 1 C 4.275638 -0.698130 5.665681 0
M  V30 2 C 3.062157 -1.357920 5.131127 0
M  V30 3 N 2.989988 -1.423492 3.683416 0
M  V30 4 C 3.458455 -2.397001 2.865881 0
M  V30 5 O 4.048589 -3.427893 3.221850 0
M  V30 6 C 3.161731 -2.033865 1.586066 0
M  V30 7 C 3.434400 -2.701005 0.397035 0
M  V30 8 N 3.025532 -2.113163 -0.742088 0
M  V30 9 C 2.382737 -0.927080 -0.676101 0
M  V30 10 N 1.946700 -0.298689 -1.894496 0
M  V30 11 C 0.652828 -0.666231 -2.395586 0
M  V30 12 C 0.123915 -0.106873 -3.540631 0
M  V30 13 C -1.123507 -0.456955 -4.037937 0
M  V30 14 C -1.872837 -1.395775 -3.375382 0
M  V30 15 C -1.391541 -1.989786 -2.221174 0
M  V30 16 C -0.134729 -1.611813 -1.753205 0
M  V30 17 C -2.071379 -3.023989 -1.381919 0
M  V30 18 C -3.467529 -3.284245 -1.835103 0
M  V30 19 N -4.024793 -2.254997 -2.648114 0
M  V30 20 C -3.209282 -1.878073 -3.768113 0
M  V30 21 C -4.008392 -0.827530 -4.522866 0
M  V30 22 C -3.036967 -3.105855 -4.662304 0
M  V30 23 N 2.126000 -0.293230 0.481753 0
M  V30 24 C 2.512312 -0.831615 1.676240 0
M  V30 25 N 2.419710 -0.476122 2.992314 0
M  V30 26 C 1.772666 0.753299 3.296495 0
M  V30 27 C 2.271228 1.821504 4.015961 0
M  V30 28 C 1.496970 2.945953 4.214752 0
M  V30 29 N 0.231527 3.053337 3.721273 0
M  V30 30 C -0.303313 2.022182 3.003642 0
M  V30 31 C -1.682058 2.113220 2.452550 0
M  V30 32 C -1.767311 1.875711 0.990290 0
M  V30 33 N -1.825933 1.699879 -0.166963 0
M  V30 34 C -2.838474 1.655963 3.226875 0
M  V30 35 C -2.622604 3.137435 2.963596 0
M  V30 36 C 0.472960 0.905487 2.809462 0
M  V30 37 H 4.940776 -1.463895 6.114580 0
M  V30 38 H 4.012346 0.002732 6.511137 0
M  V30 39 H 4.896978 -0.191476 4.899562 0
M  V30 40 H 2.163399 -0.866422 5.562789 0
M  V30 41 H 3.017944 -2.404679 5.492298 0
M  V30 42 H 3.946837 -3.645166 0.358092 0
M  V30 43 H 2.482272 0.393283 -2.439795 0
M  V30 44 H 0.691513 0.644760 -4.095523 0
M  V30 45 H -1.548492 -0.026920 -4.932888 0
M  V30 46 H 0.298735 -2.037543 -0.858224 0
M  V30 47 H -1.978444 -2.690709 -0.342924 0
M  V30 48 H -1.491062 -3.980433 -1.477160 0
M  V30 49 H -4.094071 -3.304867 -0.894607 0
M  V30 50 H -3.581687 -4.302514 -2.250884 0
M  V30 51 H -4.418792 -1.472744 -2.102420 0
M  V30 52 H -5.044361 -1.270494 -4.602857 0
M  V30 53 H -4.125256 0.034769 -3.828349 0
M  V30 54 H -3.603948 -0.572326 -5.499634 0
M  V30 55 H -2.654356 -2.776329 -5.670272 0
M  V30 56 H -3.986403 -3.632828 -4.832442 0
M  V30 57 H -2.274587 -3.768576 -4.246660 0
M  V30 58 H 3.271628 1.692264 4.383756 0
M  V30 59 H 1.950657 3.750220 4.790308 0
M  V30 60 H -3.723231 1.198693 2.712867 0
M  V30 61 H -2.661158 1.254443 4.231261 0
M  V30 62 H -2.439511 3.721217 3.883650 0
M  V30 63 H -3.334457 3.611708 2.256328 0
M  V30 64 H 0.011805 0.115812 2.237450 0
M  V30 END ATOM
M  V30 BEGIN BOND
M  V30 1 1 1 2
M  V30 2 1 2 3
M  V30 3 1 3 4
M  V30 4 2 4 5
M  V30 5 1 4 6
M  V30 6 2 6 7
M  V30 7 1 7 8
M  V30 8 2 8 9
M  V30 9 1 9 10
M  V30 10 1 10 11
M  V30 11 2 11 12
M  V30 12 1 12 13
M  V30 13 2 13 14
M  V30 14 1 14 15
M  V30 15 2 15 16
M  V30 16 1 15 17
M  V30 17 1 17 18
M  V30 18 1 18 19
M  V30 19 1 19 20
M  V30 20 1 20 21
M  V30 21 1 20 22
M  V30 22 1 9 23
M  V30 23 2 23 24
M  V30 24 1 24 25
M  V30 25 1 25 26
M  V30 26 2 26 27
M  V30 27 1 27 28
M  V30 28 2 28 29
M  V30 29 1 29 30
M  V30 30 1 30 31
M  V30 31 1 31 32
M  V30 32 3 32 33
M  V30 33 1 31 34
M  V30 34 1 34 35
M  V30 35 2 30 36
M  V30 36 1 25 3
M  V30 37 1 36 26
M  V30 38 1 24 6
M  V30 39 1 35 31
M  V30 40 1 16 11
M  V30 41 1 20 14
M  V30 42 1 1 37
M  V30 43 1 1 38
M  V30 44 1 1 39
M  V30 45 1 2 40
M  V30 46 1 2 41
M  V30 47 1 7 42
M  V30 48 1 10 43
M  V30 49 1 12 44
M  V30 50 1 13 45
M  V30 51 1 16 46
M  V30 52 1 17 47
M  V30 53 1 17 48
M  V30 54 1 18 49
M  V30 55 1 18 50
M  V30 56 1 19 51
M  V30 57 1 21 52
M  V30 58 1 21 53
M  V30 59 1 21 54
M  V30 60 1 22 55
M  V30 61 1 22 56
M  V30 62 1 22 57
M  V30 63 1 27 58
M  V30 64 1 28 59
M  V30 65 1 34 60
M  V30 66 1 34 61
M  V30 67 1 35 62
M  V30 68 1 35 63
M  V30 69 1 36 64
M  V30 END BOND
M  V30 END CTAB
M  END
>  <Dataset>  (263) 
ChEMBL_Kinases

>  <Ligand_Instance>  (263) 
nan

>  <PDB_ID>  (263) 
nan

>  <Standardized_SMILES>  (263) 
CCn1c(=O)c2cnc(Nc3ccc4c(c3)CCNC4(C)C)nc2n1-c1ccnc(C2(C#N)CC2)c1

>  <Name>  (263) 
nan

>  <Pocket>  (263) 
nan

>  <ATP_Site>  (263) 
nan

>  <Peripheral>  (263) 
nan

>  <Num_H_Atoms_ProtBoundConf>  (263) 
nan

>  <Num_Resolved_Atoms>  (263) 
nan

>  <Num_Not_Resolved_Atoms>  (263) 
nan

$$$$
CHEMBL4872538
     RDKit          3D

  0  0  0  0  0  0  0  0  0  0999 V3000
M  V30 BEGIN CTAB
M  V30 COUNTS 53 57 0 0 0
M  V30 BEGIN ATOM
M  V30 1 O -1.369138 -4.710989 -0.727416 0
M  V30 2 C -1.611660 -4.019754 0.338529 0
M  V30 3 C -0.368071 -3.472297 -0.057633 0
M  V30 4 C 0.772794 -3.300524 -0.522157 0
M  V30 5 C 1.777253 -2.457343 -0.722705 0
M  V30 6 C 1.446860 -1.230512 -0.207778 0
M  V30 7 C 2.503273 -0.208014 -0.310300 0
M  V30 8 C 3.640205 -0.466331 -0.903772 0
M  V30 9 C 4.795519 0.239284 -1.138614 0
M  V30 10 C 4.619033 1.531184 -0.566106 0
M  V30 11 N 5.695611 2.309970 -0.656936 0
M  V30 12 C 5.742268 3.573154 -0.101858 0
M  V30 13 N 4.601557 3.680824 0.415139 0
M  V30 14 C 3.478457 3.171004 0.645180 0
M  V30 15 N 2.450727 3.690651 1.412122 0
M  V30 16 C 1.092193 3.495410 1.591950 0
M  V30 17 C 0.733719 2.990116 2.847546 0
M  V30 18 C -0.538460 2.769021 3.219732 0
M  V30 19 C -1.621185 3.039648 2.353063 0
M  V30 20 C -1.288788 3.548000 1.086401 0
M  V30 21 C -0.010040 3.735352 0.801143 0
M  V30 22 F 0.423048 4.220920 -0.414167 0
M  V30 23 C 3.476746 1.922733 0.080622 0
M  V30 24 N 2.400720 1.037330 0.203208 0
M  V30 25 C 0.195257 -1.001340 0.412955 0
M  V30 26 C -0.720125 -2.106837 0.493936 0
M  V30 27 N -2.781715 -4.521207 0.727748 0
M  V30 28 C -3.512099 -4.039467 1.925216 0
M  V30 29 C -4.921301 -3.593518 1.502688 0
M  V30 30 N -4.923048 -3.535380 0.054930 0
M  V30 31 C -4.857961 -4.906522 -0.420689 0
M  V30 32 C -3.618199 -5.583595 0.151791 0
M  V30 33 H 0.912981 -4.365366 -0.881692 0
M  V30 34 H 2.646518 -2.833471 -1.204812 0
M  V30 35 H 3.834300 -1.437246 -1.358651 0
M  V30 36 H 5.703832 -0.004846 -1.616145 0
M  V30 37 H 6.632188 4.117478 -0.237314 0
M  V30 38 H 2.769123 4.434717 2.082899 0
M  V30 39 H 1.330925 2.691948 3.722343 0
M  V30 40 H -0.961730 2.377479 4.160480 0
M  V30 41 H -2.652753 2.895284 2.555209 0
M  V30 42 H -2.117947 3.767948 0.406490 0
M  V30 43 H 0.150342 0.016887 0.751509 0
M  V30 44 H -1.566358 -1.611230 1.021659 0
M  V30 45 H -2.979747 -3.232025 2.414034 0
M  V30 46 H -3.597812 -4.914073 2.589297 0
M  V30 47 H -5.678666 -4.322785 1.895609 0
M  V30 48 H -5.054233 -2.565359 1.894318 0
M  V30 49 H -3.999246 -3.107728 -0.213750 0
M  V30 50 H -4.718038 -4.846553 -1.545296 0
M  V30 51 H -5.787367 -5.475025 -0.221250 0
M  V30 52 H -3.051311 -6.162392 -0.635938 0
M  V30 53 H -3.932381 -6.238595 0.974837 0
M  V30 END ATOM
M  V30 BEGIN BOND
M  V30 1 2 1 2
M  V30 2 1 2 3
M  V30 3 2 3 4
M  V30 4 1 4 5
M  V30 5 2 5 6
M  V30 6 1 6 7
M  V30 7 2 7 8
M  V30 8 1 8 9
M  V30 9 2 9 10
M  V30 10 1 10 11
M  V30 11 2 11 12
M  V30 12 1 12 13
M  V30 13 2 13 14
M  V30 14 1 14 15
M  V30 15 1 15 16
M  V30 16 2 16 17
M  V30 17 1 17 18
M  V30 18 2 18 19
M  V30 19 1 19 20
M  V30 20 2 20 21
M  V30 21 1 21 22
M  V30 22 1 14 23
M  V30 23 2 23 24
M  V30 24 1 6 25
M  V30 25 2 25 26
M  V30 26 1 2 27
M  V30 27 1 27 28
M  V30 28 1 28 29
M  V30 29 1 29 30
M  V30 30 1 30 31
M  V30 31 1 31 32
M  V30 32 1 26 3
M  V30 33 1 32 27
M  V30 34 1 24 7
M  V30 35 1 23 10
M  V30 36 1 21 16
M  V30 37 1 4 33
M  V30 38 1 5 34
M  V30 39 1 8 35
M  V30 40 1 9 36
M  V30 41 1 12 37
M  V30 42 1 15 38
M  V30 43 1 17 39
M  V30 44 1 18 40
M  V30 45 1 19 41
M  V30 46 1 20 42
M  V30 47 1 25 43
M  V30 48 1 26 44
M  V30 49 1 28 45
M  V30 50 1 28 46
M  V30 51 1 29 47
M  V30 52 1 29 48
M  V30 53 1 30 49
M  V30 54 1 31 50
M  V30 55 1 31 51
M  V30 56 1 32 52
M  V30 57 1 32 53
M  V30 END BOND
M  V30 END CTAB
M  END
>  <Dataset>  (264) 
ChEMBL_Kinases

>  <Ligand_Instance>  (264) 
nan

>  <PDB_ID>  (264) 
nan

>  <Standardized_SMILES>  (264) 
O=C(c1ccc(-c2ccc3ncnc(Nc4ccccc4F)c3n2)cc1)N1CCNCC1

>  <Name>  (264) 
nan

>  <Pocket>  (264) 
nan

>  <ATP_Site>  (264) 
nan

>  <Peripheral>  (264) 
nan

>  <Num_H_Atoms_ProtBoundConf>  (264) 
nan

>  <Num_Resolved_Atoms>  (264) 
nan

>  <Num_Not_Resolved_Atoms>  (264) 
nan

$$$$
CHEMBL487254
     RDKit          3D

  0  0  0  0  0  0  0  0  0  0999 V3000
M  V30 BEGIN CTAB
M  V30 COUNTS 63 69 0 0 0
M  V30 BEGIN ATOM
M  V30 1 N 5.283012 -1.687481 -2.171975 0
M  V30 2 C 4.150717 -1.077543 -1.988430 0
M  V30 3 N 3.886856 -0.442063 -0.743561 0
M  V30 4 C 4.942376 -0.067499 0.135794 0
M  V30 5 C 5.340359 -1.017957 1.078146 0
M  V30 6 C 6.348437 -0.736323 1.960548 0
M  V30 7 C 6.985709 0.481678 1.936519 0
M  V30 8 C 6.612466 1.437492 1.016694 0
M  V30 9 C 5.598060 1.157269 0.126972 0
M  V30 10 S 2.957938 -1.060135 -3.318245 0
M  V30 11 C 1.481181 -0.148457 -2.795736 0
M  V30 12 C 0.438312 -0.105862 -3.891472 0
M  V30 13 C -0.797474 0.662723 -3.440851 0
M  V30 14 N -1.407436 0.052410 -2.279329 0
M  V30 15 C -1.096605 0.359258 -0.899833 0
M  V30 16 O -0.251139 1.195101 -0.499629 0
M  V30 17 C -1.998293 -0.538866 -0.145233 0
M  V30 18 C -2.756230 -1.293957 -0.962364 0
M  V30 19 C -2.428775 -0.965413 -2.344507 0
M  V30 20 O -2.948517 -1.481895 -3.348295 0
M  V30 21 N -3.731944 -2.274648 -0.549612 0
M  V30 22 C -4.636544 -2.790160 -1.357337 0
M  V30 23 C -5.394295 -3.683570 -0.636392 0
M  V30 24 C -4.873308 -3.657870 0.649706 0
M  V30 25 C -5.325081 -4.407049 1.718845 0
M  V30 26 C -4.656216 -4.227091 2.907655 0
M  V30 27 C -3.604595 -3.341649 2.980262 0
M  V30 28 C -3.129924 -2.580375 1.936452 0
M  V30 29 C -3.811388 -2.764454 0.725718 0
M  V30 30 C -1.997744 -1.687913 2.181092 0
M  V30 31 C -1.850375 -1.108154 3.533405 0
M  V30 32 C -1.857342 0.357530 3.290600 0
M  V30 33 C -1.785825 1.300577 4.319666 0
M  V30 34 C -1.857733 2.639104 3.917523 0
M  V30 35 C -1.993006 3.038041 2.583294 0
M  V30 36 C -2.056721 2.057508 1.626778 0
M  V30 37 C -1.987765 0.740117 1.976143 0
M  V30 38 N -1.994795 -0.526218 1.304154 0
M  V30 39 H 5.954467 -1.676485 -1.372705 0
M  V30 40 H 2.890718 -0.243859 -0.465167 0
M  V30 41 H 4.834586 -1.994564 1.102771 0
M  V30 42 H 6.653163 -1.480475 2.691272 0
M  V30 43 H 7.788761 0.686542 2.650359 0
M  V30 44 H 7.111378 2.386279 1.000552 0
M  V30 45 H 5.257421 1.869444 -0.622909 0
M  V30 46 H 1.053641 -0.748025 -1.942748 0
M  V30 47 H 1.675636 0.877549 -2.478024 0
M  V30 48 H 0.083321 -1.152162 -4.048396 0
M  V30 49 H 0.820820 0.346103 -4.807527 0
M  V30 50 H -1.465564 0.745062 -4.305147 0
M  V30 51 H -0.471843 1.699231 -3.192059 0
M  V30 52 H -4.766957 -2.562814 -2.385597 0
M  V30 53 H -6.223005 -4.274467 -1.017006 0
M  V30 54 H -6.147308 -5.096259 1.653378 0
M  V30 55 H -4.962668 -4.786907 3.786393 0
M  V30 56 H -3.119726 -3.255830 3.940513 0
M  V30 57 H -1.067366 -2.330003 2.020724 0
M  V30 58 H -2.720485 -1.337568 4.219941 0
M  V30 59 H -0.904779 -1.380668 4.049495 0
M  V30 60 H -1.681828 1.074491 5.374207 0
M  V30 61 H -1.807499 3.434937 4.670298 0
M  V30 62 H -2.042705 4.083110 2.345299 0
M  V30 63 H -2.193995 2.378565 0.619214 0
M  V30 END ATOM
M  V30 BEGIN BOND
M  V30 1 2 1 2 CFG=2
M  V30 2 1 2 3
M  V30 3 1 3 4
M  V30 4 2 4 5
M  V30 5 1 5 6
M  V30 6 2 6 7
M  V30 7 1 7 8
M  V30 8 2 8 9
M  V30 9 1 2 10
M  V30 10 1 10 11
M  V30 11 1 11 12
M  V30 12 1 12 13
M  V30 13 1 13 14
M  V30 14 1 14 15
M  V30 15 2 15 16
M  V30 16 1 15 17
M  V30 17 2 17 18
M  V30 18 1 18 19
M  V30 19 2 19 20
M  V30 20 1 18 21
M  V30 21 1 21 22
M  V30 22 2 22 23
M  V30 23 1 23 24
M  V30 24 2 24 25
M  V30 25 1 25 26
M  V30 26 2 26 27
M  V30 27 1 27 28
M  V30 28 2 28 29
M  V30 29 1 28 30
M  V30 30 1 30 31
M  V30 31 1 31 32
M  V30 32 2 32 33
M  V30 33 1 33 34
M  V30 34 2 34 35
M  V30 35 1 35 36
M  V30 36 2 36 37
M  V30 37 1 37 38
M  V30 38 1 9 4
M  V30 39 1 19 14
M  V30 40 1 29 21
M  V30 41 1 38 30
M  V30 42 1 38 17
M  V30 43 1 29 24
M  V30 44 1 37 32
M  V30 45 1 1 39
M  V30 46 1 3 40
M  V30 47 1 5 41
M  V30 48 1 6 42
M  V30 49 1 7 43
M  V30 50 1 8 44
M  V30 51 1 9 45
M  V30 52 1 11 46
M  V30 53 1 11 47
M  V30 54 1 12 48
M  V30 55 1 12 49
M  V30 56 1 13 50
M  V30 57 1 13 51
M  V30 58 1 22 52
M  V30 59 1 23 53
M  V30 60 1 25 54
M  V30 61 1 26 55
M  V30 62 1 27 56
M  V30 63 1 30 57
M  V30 64 1 31 58
M  V30 65 1 31 59
M  V30 66 1 33 60
M  V30 67 1 34 61
M  V30 68 1 35 62
M  V30 69 1 36 63
M  V30 END BOND
M  V30 END CTAB
M  END
>  <Dataset>  (265) 
ChEMBL_Kinases

>  <Ligand_Instance>  (265) 
nan

>  <PDB_ID>  (265) 
nan

>  <Standardized_SMILES>  (265) 
N=C(Nc1ccccc1)SCCCN1C(=O)C2=C(C1=O)n1ccc3cccc(c31)C1Cc3ccccc3N21

>  <Name>  (265) 
nan

>  <Pocket>  (265) 
nan

>  <ATP_Site>  (265) 
nan

>  <Peripheral>  (265) 
nan

>  <Num_H_Atoms_ProtBoundConf>  (265) 
nan

>  <Num_Resolved_Atoms>  (265) 
nan

>  <Num_Not_Resolved_Atoms>  (265) 
nan

$$$$
CHEMBL3702082
     RDKit          3D

  0  0  0  0  0  0  0  0  0  0999 V3000
M  V30 BEGIN CTAB
M  V30 COUNTS 60 65 0 0 0
M  V30 BEGIN ATOM
M  V30 1 C 4.649897 -0.290214 1.617237 0
M  V30 2 C 4.665628 1.133652 2.140616 0 CFG=1
M  V30 3 C 6.034223 1.652205 2.380021 0
M  V30 4 N 6.762663 2.010444 1.198075 0
M  V30 5 C 5.991285 2.455739 0.085509 0
M  V30 6 C 4.623580 2.953235 0.453598 0
M  V30 7 N 3.913676 2.013160 1.294883 0
M  V30 8 C 2.507966 1.836765 1.379782 0
M  V30 9 C 1.624685 2.258437 2.349991 0
M  V30 10 C 0.285646 1.951906 2.239279 0
M  V30 11 C -0.196005 1.227645 1.174442 0
M  V30 12 N -1.597072 0.901621 1.093670 0
M  V30 13 C -1.968114 0.133220 -0.052160 0
M  V30 14 N -1.606033 0.384816 -1.349826 0
M  V30 15 C -2.007749 -0.452072 -2.297571 0
M  V30 16 C -2.768613 -1.530137 -1.923694 0
M  V30 17 C -3.298250 -2.534079 -2.703012 0
M  V30 18 C -3.266405 -2.810200 -4.053849 0
M  V30 19 C -3.900559 -3.918529 -4.569821 0
M  V30 20 N -4.577956 -4.771811 -3.744417 0
M  V30 21 C -4.579196 -4.455129 -2.426805 0
M  V30 22 F -5.265511 -5.329244 -1.628860 0
M  V30 23 C -3.972487 -3.370505 -1.835117 0
M  V30 24 N -3.882845 -2.929930 -0.568934 0
M  V30 25 C -4.473663 -3.565367 0.595827 0
M  V30 26 C -3.592024 -4.700337 1.046639 0
M  V30 27 C -2.650364 -4.064568 2.030029 0
M  V30 28 C -3.430433 -2.939090 2.675356 0
M  V30 29 C -4.577339 -2.672604 1.768937 0
M  V30 30 C -3.148598 -1.809449 -0.631024 0
M  V30 31 N -2.723181 -0.940689 0.297079 0
M  V30 32 N 0.695019 0.833318 0.246418 0
M  V30 33 C 2.005577 1.112745 0.319586 0
M  V30 34 H 5.569391 -0.836636 1.870028 0
M  V30 35 H 3.806280 -0.889971 2.018373 0
M  V30 36 H 4.478085 -0.231948 0.512542 0
M  V30 37 H 4.153548 1.088223 3.136631 0
M  V30 38 H 5.988925 2.507082 3.080591 0
M  V30 39 H 6.648742 0.867584 2.904370 0
M  V30 40 H 7.602673 2.597491 1.394557 0
M  V30 41 H 5.972818 1.698397 -0.722049 0
M  V30 42 H 6.521922 3.328411 -0.358454 0
M  V30 43 H 4.040988 3.058881 -0.482068 0
M  V30 44 H 4.651736 3.948715 0.941802 0
M  V30 45 H 2.082007 2.818274 3.146553 0
M  V30 46 H -0.388277 2.283562 2.992244 0
M  V30 47 H -2.230755 1.228443 1.834992 0
M  V30 48 H -1.717854 -0.245620 -3.316490 0
M  V30 49 H -2.717580 -2.114569 -4.675174 0
M  V30 50 H -3.800427 -4.024734 -5.659609 0
M  V30 51 H -5.463545 -4.016641 0.318309 0
M  V30 52 H -4.177828 -5.532297 1.481929 0
M  V30 53 H -3.001997 -5.032603 0.164022 0
M  V30 54 H -1.784437 -3.636761 1.478912 0
M  V30 55 H -2.283901 -4.791671 2.788445 0
M  V30 56 H -3.745101 -3.280415 3.693499 0
M  V30 57 H -2.794390 -2.054025 2.856590 0
M  V30 58 H -5.543316 -2.944307 2.294703 0
M  V30 59 H -4.709029 -1.598204 1.517583 0
M  V30 60 H 2.520547 0.685421 -0.549845 0
M  V30 END ATOM
M  V30 BEGIN BOND
M  V30 1 1 1 2
M  V30 2 1 2 3
M  V30 3 1 3 4
M  V30 4 1 4 5
M  V30 5 1 5 6
M  V30 6 1 6 7
M  V30 7 1 7 8
M  V30 8 2 8 9
M  V30 9 1 9 10
M  V30 10 2 10 11
M  V30 11 1 11 12
M  V30 12 1 12 13
M  V30 13 2 13 14
M  V30 14 1 14 15
M  V30 15 2 15 16
M  V30 16 1 16 17
M  V30 17 2 17 18
M  V30 18 1 18 19
M  V30 19 2 19 20
M  V30 20 1 20 21
M  V30 21 1 21 22
M  V30 22 2 21 23
M  V30 23 1 23 24
M  V30 24 1 24 25
M  V30 25 1 25 26
M  V30 26 1 26 27
M  V30 27 1 27 28
M  V30 28 1 28 29
M  V30 29 1 24 30
M  V30 30 2 30 31
M  V30 31 1 11 32
M  V30 32 2 32 33
M  V30 33 1 7 2
M  V30 34 1 33 8
M  V30 35 1 31 13
M  V30 36 1 30 16
M  V30 37 1 23 17
M  V30 38 1 29 25
M  V30 39 1 1 34
M  V30 40 1 1 35
M  V30 41 1 1 36
M  V30 42 1 2 37 CFG=1
M  V30 43 1 3 38
M  V30 44 1 3 39
M  V30 45 1 4 40
M  V30 46 1 5 41
M  V30 47 1 5 42
M  V30 48 1 6 43
M  V30 49 1 6 44
M  V30 50 1 9 45
M  V30 51 1 10 46
M  V30 52 1 12 47
M  V30 53 1 15 48
M  V30 54 1 18 49
M  V30 55 1 19 50
M  V30 56 1 25 51
M  V30 57 1 26 52
M  V30 58 1 26 53
M  V30 59 1 27 54
M  V30 60 1 27 55
M  V30 61 1 28 56
M  V30 62 1 28 57
M  V30 63 1 29 58
M  V30 64 1 29 59
M  V30 65 1 33 60
M  V30 END BOND
M  V30 END CTAB
M  END
>  <Dataset>  (266) 
ChEMBL_Kinases

>  <Ligand_Instance>  (266) 
nan

>  <PDB_ID>  (266) 
nan

>  <Standardized_SMILES>  (266) 
C[C@H]1CNCCN1c1ccc(Nc2ncc3c4ccnc(F)c4n(C4CCCC4)c3n2)nc1

>  <Name>  (266) 
nan

>  <Pocket>  (266) 
nan

>  <ATP_Site>  (266) 
nan

>  <Peripheral>  (266) 
nan

>  <Num_H_Atoms_ProtBoundConf>  (266) 
nan

>  <Num_Resolved_Atoms>  (266) 
nan

>  <Num_Not_Resolved_Atoms>  (266) 
nan

$$$$
CHEMBL3702083
     RDKit          3D

  0  0  0  0  0  0  0  0  0  0999 V3000
M  V30 BEGIN CTAB
M  V30 COUNTS 60 65 0 0 0
M  V30 BEGIN ATOM
M  V30 1 C 1.666183 -4.771597 2.622996 0
M  V30 2 C 2.460174 -4.468020 3.873113 0 CFG=2
M  V30 3 C 2.463747 -2.977126 4.159043 0
M  V30 4 N 3.326493 -2.323194 3.196634 0
M  V30 5 C 3.000743 -1.382673 2.183091 0
M  V30 6 C 3.962506 -0.903279 1.316429 0
M  V30 7 C 3.617552 0.006286 0.338419 0
M  V30 8 C 2.328410 0.478614 0.171625 0
M  V30 9 N 1.883086 1.395323 -0.823970 0
M  V30 10 C 0.532512 1.830583 -0.874326 0
M  V30 11 N 0.328348 3.150128 -0.597998 0
M  V30 12 C -0.907225 3.685005 -0.599936 0
M  V30 13 C -1.963863 2.846648 -0.891998 0
M  V30 14 C -3.321694 3.080841 -0.967986 0
M  V30 15 C -4.007515 4.260773 -0.768715 0
M  V30 16 C -5.377855 4.250806 -0.898522 0
M  V30 17 N -5.990812 3.073088 -1.218353 0
M  V30 18 C -5.293298 1.953619 -1.403175 0
M  V30 19 F -5.996453 0.837570 -1.710720 0
M  V30 20 C -3.905771 1.870230 -1.292713 0
M  V30 21 N -2.985300 0.898128 -1.423886 0
M  V30 22 C -3.261347 -0.463258 -1.745746 0
M  V30 23 C -2.015484 -1.337348 -1.555806 0
M  V30 24 C -2.469205 -2.638476 -2.211397 0
M  V30 25 C -3.549212 -2.256641 -3.209395 0
M  V30 26 C -3.529929 -0.717919 -3.216917 0
M  V30 27 C -1.804010 1.506379 -1.176940 0
M  V30 28 N -0.535828 1.064802 -1.151625 0
M  V30 29 N 1.412375 -0.008852 1.035353 0
M  V30 30 C 1.723394 -0.895243 1.996101 0
M  V30 31 C 4.700470 -2.741541 3.352433 0
M  V30 32 C 4.744222 -3.963341 4.276361 0
M  V30 33 N 3.812353 -4.933177 3.708870 0
M  V30 34 H 0.928241 -3.983620 2.416939 0
M  V30 35 H 2.311895 -4.842457 1.722192 0
M  V30 36 H 1.198646 -5.768495 2.751013 0
M  V30 37 H 1.941636 -4.957853 4.720570 0
M  V30 38 H 1.405109 -2.612437 4.023785 0
M  V30 39 H 2.701339 -2.739237 5.212076 0
M  V30 40 H 4.994767 -1.216130 1.371238 0
M  V30 41 H 4.349002 0.390205 -0.343642 0
M  V30 42 H 2.604878 1.704886 -1.480526 0
M  V30 43 H -1.038022 4.724456 -0.379367 0
M  V30 44 H -3.503990 5.191397 -0.514855 0
M  V30 45 H -5.902676 5.182148 -0.740199 0
M  V30 46 H -4.086271 -0.902126 -1.143877 0
M  V30 47 H -1.192215 -0.942734 -2.195389 0
M  V30 48 H -1.721696 -1.440706 -0.514888 0
M  V30 49 H -2.912113 -3.350188 -1.495457 0
M  V30 50 H -1.622957 -3.101626 -2.789399 0
M  V30 51 H -4.559268 -2.577961 -2.839494 0
M  V30 52 H -3.343080 -2.673248 -4.214462 0
M  V30 53 H -4.478134 -0.328942 -3.582140 0
M  V30 54 H -2.652192 -0.427459 -3.830022 0
M  V30 55 H 0.911204 -1.219068 2.631661 0
M  V30 56 H 5.248713 -1.909019 3.849225 0
M  V30 57 H 5.199166 -2.965760 2.387559 0
M  V30 58 H 5.740902 -4.439551 4.289504 0
M  V30 59 H 4.492778 -3.671442 5.312407 0
M  V30 60 H 3.893246 -5.875132 4.150074 0
M  V30 END ATOM
M  V30 BEGIN BOND
M  V30 1 1 1 2
M  V30 2 1 2 3
M  V30 3 1 3 4
M  V30 4 1 4 5
M  V30 5 2 5 6
M  V30 6 1 6 7
M  V30 7 2 7 8
M  V30 8 1 8 9
M  V30 9 1 9 10
M  V30 10 2 10 11
M  V30 11 1 11 12
M  V30 12 2 12 13
M  V30 13 1 13 14
M  V30 14 2 14 15
M  V30 15 1 15 16
M  V30 16 2 16 17
M  V30 17 1 17 18
M  V30 18 1 18 19
M  V30 19 2 18 20
M  V30 20 1 20 21
M  V30 21 1 21 22
M  V30 22 1 22 23
M  V30 23 1 23 24
M  V30 24 1 24 25
M  V30 25 1 25 26
M  V30 26 1 21 27
M  V30 27 2 27 28
M  V30 28 1 8 29
M  V30 29 2 29 30
M  V30 30 1 4 31
M  V30 31 1 31 32
M  V30 32 1 32 33
M  V30 33 1 33 2
M  V30 34 1 30 5
M  V30 35 1 28 10
M  V30 36 1 27 13
M  V30 37 1 20 14
M  V30 38 1 26 22
M  V30 39 1 1 34
M  V30 40 1 1 35
M  V30 41 1 1 36
M  V30 42 1 2 37 CFG=1
M  V30 43 1 3 38
M  V30 44 1 3 39
M  V30 45 1 6 40
M  V30 46 1 7 41
M  V30 47 1 9 42
M  V30 48 1 12 43
M  V30 49 1 15 44
M  V30 50 1 16 45
M  V30 51 1 22 46
M  V30 52 1 23 47
M  V30 53 1 23 48
M  V30 54 1 24 49
M  V30 55 1 24 50
M  V30 56 1 25 51
M  V30 57 1 25 52
M  V30 58 1 26 53
M  V30 59 1 26 54
M  V30 60 1 30 55
M  V30 61 1 31 56
M  V30 62 1 31 57
M  V30 63 1 32 58
M  V30 64 1 32 59
M  V30 65 1 33 60
M  V30 END BOND
M  V30 END CTAB
M  END
>  <Dataset>  (267) 
ChEMBL_Kinases

>  <Ligand_Instance>  (267) 
nan

>  <PDB_ID>  (267) 
nan

>  <Standardized_SMILES>  (267) 
C[C@@H]1CN(c2ccc(Nc3ncc4c5ccnc(F)c5n(C5CCCC5)c4n3)nc2)CCN1

>  <Name>  (267) 
nan

>  <Pocket>  (267) 
nan

>  <ATP_Site>  (267) 
nan

>  <Peripheral>  (267) 
nan

>  <Num_H_Atoms_ProtBoundConf>  (267) 
nan

>  <Num_Resolved_Atoms>  (267) 
nan

>  <Num_Not_Resolved_Atoms>  (267) 
nan

$$$$
CHEMBL4872665
     RDKit          3D

  0  0  0  0  0  0  0  0  0  0999 V3000
M  V30 BEGIN CTAB
M  V30 COUNTS 57 60 0 0 0
M  V30 BEGIN ATOM
M  V30 1 C 0.394752 -5.106510 0.443203 0
M  V30 2 C 0.761942 -3.647869 0.262663 0
M  V30 3 C 1.757182 -3.198599 1.288014 0
M  V30 4 C 2.805856 -2.275733 0.772659 0
M  V30 5 C 2.485223 -1.324257 -0.287550 0
M  V30 6 N 2.084869 0.012072 0.028206 0
M  V30 7 C 2.918939 1.118532 -0.396855 0
M  V30 8 O 3.998259 0.960835 -1.042176 0
M  V30 9 O 2.655045 2.439014 -0.162241 0
M  V30 10 C 1.415647 2.882697 0.370060 0
M  V30 11 C 0.622702 3.449712 -0.815676 0
M  V30 12 C -0.724471 3.978134 -0.431541 0
M  V30 13 C 1.430026 4.497823 -1.538450 0
M  V30 14 C 0.644898 1.761071 0.958198 0
M  V30 15 C -0.461018 1.982214 1.737624 0
M  V30 16 N -1.229197 1.002663 2.247752 0
M  V30 17 C -0.926859 -0.306258 2.001051 0
M  V30 18 N -1.677743 -1.390012 2.494144 0
M  V30 19 C -2.782228 -2.016094 1.852530 0
M  V30 20 C -3.410900 -3.072908 2.475932 0
M  V30 21 C -4.479248 -3.662094 1.832057 0
M  V30 22 F -5.091206 -4.690496 2.438414 0
M  V30 23 C -4.883229 -3.179446 0.592881 0
M  V30 24 O -5.969754 -3.845993 0.033090 0
M  V30 25 C -4.260958 -2.114084 -0.051426 0
M  V30 26 F -4.717983 -1.715580 -1.245081 0
M  V30 27 C -3.199140 -1.552446 0.622311 0
M  V30 28 N 0.161337 -0.502165 1.237709 0
M  V30 29 C 0.925764 0.449316 0.731001 0
M  V30 30 C 1.565874 -1.928410 -1.300581 0
M  V30 31 C 1.374468 -3.415300 -1.096862 0
M  V30 32 H -0.069263 -5.447370 -0.490005 0
M  V30 33 H -0.413061 -5.145747 1.217627 0
M  V30 34 H 1.217189 -5.718610 0.813222 0
M  V30 35 H -0.196340 -3.095685 0.305586 0
M  V30 36 H 2.217102 -4.175722 1.659744 0
M  V30 37 H 1.272668 -2.830344 2.233616 0
M  V30 38 H 3.412791 -1.820737 1.620603 0
M  V30 39 H 3.601964 -2.972334 0.344965 0
M  V30 40 H 3.460637 -1.174458 -0.864903 0
M  V30 41 H 1.582608 3.686294 1.088290 0
M  V30 42 H 0.454570 2.625928 -1.559651 0
M  V30 43 H -0.609142 4.653285 0.440342 0
M  V30 44 H -1.170882 4.593213 -1.260635 0
M  V30 45 H -1.440009 3.170294 -0.219823 0
M  V30 46 H 1.142694 4.554848 -2.601735 0
M  V30 47 H 1.274088 5.522305 -1.112658 0
M  V30 48 H 2.510945 4.245187 -1.501550 0
M  V30 49 H -0.825730 2.949319 2.038064 0
M  V30 50 H -1.340527 -1.719645 3.425392 0
M  V30 51 H -3.039406 -3.387823 3.433491 0
M  V30 52 H -6.063427 -4.849483 0.139605 0
M  V30 53 H -2.720265 -0.717438 0.105101 0
M  V30 54 H 0.523680 -1.503903 -1.261475 0
M  V30 55 H 1.896131 -1.754434 -2.342491 0
M  V30 56 H 2.376968 -3.909962 -1.086819 0
M  V30 57 H 0.817184 -3.880561 -1.923873 0
M  V30 END ATOM
M  V30 BEGIN BOND
M  V30 1 1 1 2
M  V30 2 1 2 3
M  V30 3 1 3 4
M  V30 4 1 4 5
M  V30 5 1 5 6
M  V30 6 1 6 7
M  V30 7 2 7 8
M  V30 8 1 7 9
M  V30 9 1 9 10
M  V30 10 1 10 11
M  V30 11 1 11 12
M  V30 12 1 11 13
M  V30 13 1 10 14
M  V30 14 2 14 15
M  V30 15 1 15 16
M  V30 16 2 16 17
M  V30 17 1 17 18
M  V30 18 1 18 19
M  V30 19 2 19 20
M  V30 20 1 20 21
M  V30 21 1 21 22
M  V30 22 2 21 23
M  V30 23 1 23 24
M  V30 24 1 23 25
M  V30 25 1 25 26
M  V30 26 2 25 27
M  V30 27 1 17 28
M  V30 28 2 28 29
M  V30 29 1 5 30
M  V30 30 1 30 31
M  V30 31 1 31 2
M  V30 32 1 29 6
M  V30 33 1 29 14
M  V30 34 1 27 19
M  V30 35 1 1 32
M  V30 36 1 1 33
M  V30 37 1 1 34
M  V30 38 1 2 35
M  V30 39 1 3 36
M  V30 40 1 3 37
M  V30 41 1 4 38
M  V30 42 1 4 39
M  V30 43 1 5 40
M  V30 44 1 10 41
M  V30 45 1 11 42
M  V30 46 1 12 43
M  V30 47 1 12 44
M  V30 48 1 12 45
M  V30 49 1 13 46
M  V30 50 1 13 47
M  V30 51 1 13 48
M  V30 52 1 15 49
M  V30 53 1 18 50
M  V30 54 1 20 51
M  V30 55 1 24 52
M  V30 56 1 27 53
M  V30 57 1 30 54
M  V30 58 1 30 55
M  V30 59 1 31 56
M  V30 60 1 31 57
M  V30 END BOND
M  V30 END CTAB
M  END
>  <Dataset>  (268) 
ChEMBL_Kinases

>  <Ligand_Instance>  (268) 
nan

>  <PDB_ID>  (268) 
nan

>  <Standardized_SMILES>  (268) 
CC1CCC(N2C(=O)OC(C(C)C)c3cnc(Nc4cc(F)c(O)c(F)c4)nc32)CC1

>  <Name>  (268) 
nan

>  <Pocket>  (268) 
nan

>  <ATP_Site>  (268) 
nan

>  <Peripheral>  (268) 
nan

>  <Num_H_Atoms_ProtBoundConf>  (268) 
nan

>  <Num_Resolved_Atoms>  (268) 
nan

>  <Num_Not_Resolved_Atoms>  (268) 
nan

$$$$
CHEMBL4872681
     RDKit          3D

  0  0  0  0  0  0  0  0  0  0999 V3000
M  V30 BEGIN CTAB
M  V30 COUNTS 44 47 0 0 0
M  V30 BEGIN ATOM
M  V30 1 C 3.275818 -5.627604 -0.351462 0
M  V30 2 S 1.460371 -5.687733 -0.346034 0
M  V30 3 C 0.882040 -4.091382 -0.911759 0
M  V30 4 N 0.696235 -3.929666 -2.251869 0
M  V30 5 C 0.266594 -2.763337 -2.736505 0
M  V30 6 C 0.009579 -1.716696 -1.875261 0
M  V30 7 C 0.192992 -1.864730 -0.514280 0
M  V30 8 C -0.059887 -0.798710 0.452041 0
M  V30 9 C 0.573051 0.423850 0.550854 0
M  V30 10 C 1.635297 0.920898 -0.289202 0
M  V30 11 C 1.270857 2.082011 -0.970647 0
M  V30 12 C 2.162726 2.712203 -1.831022 0
M  V30 13 C 3.438221 2.201959 -2.033660 0
M  V30 14 C 3.778101 1.058459 -1.353964 0
M  V30 15 C 2.913564 0.424270 -0.502980 0
M  V30 16 N 0.001688 1.078138 1.599017 0
M  V30 17 C -0.941160 0.260764 2.101270 0
M  V30 18 C -1.782480 0.495299 3.173050 0
M  V30 19 N -1.817340 1.668876 3.970550 0
M  V30 20 C -2.759435 1.807138 5.089403 0
M  V30 21 C -0.920122 2.785692 3.712942 0
M  V30 22 N -2.641017 -0.498807 3.468705 0
M  V30 23 C -2.715720 -1.662448 2.797496 0
M  V30 24 C -1.866532 -1.873771 1.732166 0
M  V30 25 N -0.997822 -0.897530 1.413833 0
M  V30 26 N 0.628246 -3.062914 -0.078097 0
M  V30 27 H 3.675794 -4.602447 -0.413543 0
M  V30 28 H 3.710290 -6.185253 -1.184686 0
M  V30 29 H 3.667688 -6.058841 0.608130 0
M  V30 30 H 0.134754 -2.684207 -3.805003 0
M  V30 31 H -0.336543 -0.774511 -2.256756 0
M  V30 32 H 0.328998 2.581631 -0.910493 0
M  V30 33 H 1.924846 3.615109 -2.381446 0
M  V30 34 H 4.164310 2.664385 -2.697208 0
M  V30 35 H 4.762239 0.605703 -1.467293 0
M  V30 36 H 3.101305 -0.476658 0.068561 0
M  V30 37 H -3.502429 0.968255 4.979313 0
M  V30 38 H -3.311275 2.748919 5.074644 0
M  V30 39 H -2.254841 1.584533 6.054451 0
M  V30 40 H -1.145936 3.274883 2.740806 0
M  V30 41 H 0.092185 2.337739 3.618321 0
M  V30 42 H -0.929785 3.499435 4.532166 0
M  V30 43 H -3.429478 -2.417812 3.089250 0
M  V30 44 H -1.938101 -2.795912 1.213789 0
M  V30 END ATOM
M  V30 BEGIN BOND
M  V30 1 1 1 2
M  V30 2 1 2 3
M  V30 3 2 3 4
M  V30 4 1 4 5
M  V30 5 2 5 6
M  V30 6 1 6 7
M  V30 7 1 7 8
M  V30 8 2 8 9
M  V30 9 1 9 10
M  V30 10 2 10 11
M  V30 11 1 11 12
M  V30 12 2 12 13
M  V30 13 1 13 14
M  V30 14 2 14 15
M  V30 15 1 9 16
M  V30 16 2 16 17
M  V30 17 1 17 18
M  V30 18 1 18 19
M  V30 19 1 19 20
M  V30 20 1 19 21
M  V30 21 2 18 22
M  V30 22 1 22 23
M  V30 23 2 23 24
M  V30 24 1 24 25
M  V30 25 2 7 26
M  V30 26 1 26 3
M  V30 27 1 25 8
M  V30 28 1 15 10
M  V30 29 1 25 17
M  V30 30 1 1 27
M  V30 31 1 1 28
M  V30 32 1 1 29
M  V30 33 1 5 30
M  V30 34 1 6 31
M  V30 35 1 11 32
M  V30 36 1 12 33
M  V30 37 1 13 34
M  V30 38 1 14 35
M  V30 39 1 15 36
M  V30 40 1 20 37
M  V30 41 1 20 38
M  V30 42 1 20 39
M  V30 43 1 21 40
M  V30 44 1 21 41
M  V30 45 1 21 42
M  V30 46 1 23 43
M  V30 47 1 24 44
M  V30 END BOND
M  V30 END CTAB
M  END
>  <Dataset>  (269) 
ChEMBL_Kinases

>  <Ligand_Instance>  (269) 
nan

>  <PDB_ID>  (269) 
nan

>  <Standardized_SMILES>  (269) 
CSc1nccc(-c2c(-c3ccccc3)nc3c(N(C)C)nccn23)n1

>  <Name>  (269) 
nan

>  <Pocket>  (269) 
nan

>  <ATP_Site>  (269) 
nan

>  <Peripheral>  (269) 
nan

>  <Num_H_Atoms_ProtBoundConf>  (269) 
nan

>  <Num_Resolved_Atoms>  (269) 
nan

>  <Num_Not_Resolved_Atoms>  (269) 
nan

$$$$
CHEMBL4872690
     RDKit          3D

  0  0  0  0  0  0  0  0  0  0999 V3000
M  V30 BEGIN CTAB
M  V30 COUNTS 73 77 0 0 0
M  V30 BEGIN ATOM
M  V30 1 C 7.258147 -3.155694 0.934563 0
M  V30 2 C 6.166683 -2.527322 1.715832 0
M  V30 3 C 6.393181 -1.679584 2.790943 0
M  V30 4 C 5.394515 -1.083768 3.532844 0
M  V30 5 C 4.088409 -1.339213 3.194238 0
M  V30 6 C 3.817704 -2.166807 2.144013 0
M  V30 7 C 4.842352 -2.763458 1.401229 0
M  V30 8 C 4.528391 -3.664073 0.263176 0
M  V30 9 N 4.765938 -2.976566 -0.988080 0
M  V30 10 C 4.474082 -3.767419 -2.143396 0
M  V30 11 C 3.824086 -2.970781 -3.253267 0
M  V30 12 C 2.476749 -2.440039 -2.822442 0
M  V30 13 C 2.123890 -1.138276 -3.554417 0
M  V30 14 N 0.838649 -0.700679 -3.092208 0
M  V30 15 C 0.308305 0.510261 -3.653978 0
M  V30 16 O 1.046965 1.061070 -4.508581 0
M  V30 17 C -0.975444 1.099757 -3.300395 0
M  V30 18 C -1.302834 2.248008 -3.983341 0
M  V30 19 N -2.482326 2.857154 -3.705405 0
M  V30 20 C -3.288897 2.296753 -2.756746 0
M  V30 21 C -2.976676 1.144607 -2.060953 0
M  V30 22 N -3.907079 0.672867 -1.098546 0
M  V30 23 C -5.014906 -0.212892 -1.130345 0
M  V30 24 O -5.401002 -0.804695 -2.168404 0
M  V30 25 C -5.744928 -0.449271 0.107662 0
M  V30 26 C -6.815253 -1.314060 0.041803 0
M  V30 27 C -7.603485 -1.631070 1.153109 0
M  V30 28 N -7.283347 -1.053888 2.327361 0
M  V30 29 C -6.247154 -0.202306 2.443058 0
M  V30 30 N -5.856098 0.444790 3.664160 0
M  V30 31 C -6.543072 1.682997 3.763993 0
M  V30 32 O -7.357532 2.099613 2.888366 0
M  V30 33 C -6.446283 2.679700 4.856626 0
M  V30 34 C -5.998038 2.344794 6.214287 0
M  V30 35 C -5.008357 3.043690 5.313577 0
M  V30 36 C -5.464333 0.110667 1.332907 0
M  V30 37 C -1.775454 0.518666 -2.339929 0
M  V30 38 C 2.547896 -2.103498 -1.352309 0
M  V30 39 C 3.985428 -1.771848 -1.021783 0
M  V30 40 H 8.200456 -2.619568 1.132890 0
M  V30 41 H 7.021059 -3.194635 -0.149248 0
M  V30 42 H 7.400732 -4.199350 1.301030 0
M  V30 43 H 7.431259 -1.499516 3.030853 0
M  V30 44 H 5.601643 -0.426268 4.367501 0
M  V30 45 H 3.239570 -0.924217 3.709299 0
M  V30 46 H 2.783994 -2.382947 1.858333 0
M  V30 47 H 5.239654 -4.533868 0.382468 0
M  V30 48 H 3.478415 -4.012653 0.386375 0
M  V30 49 H 3.928770 -4.700836 -1.916650 0
M  V30 50 H 5.457686 -4.108228 -2.575372 0
M  V30 51 H 4.523690 -2.157587 -3.542523 0
M  V30 52 H 3.732859 -3.658410 -4.127598 0
M  V30 53 H 1.694364 -3.200791 -3.033857 0
M  V30 54 H 2.924535 -0.408746 -3.441434 0
M  V30 55 H 2.031152 -1.378221 -4.644192 0
M  V30 56 H 0.259340 -1.188938 -2.384273 0
M  V30 57 H -0.675533 2.704035 -4.736848 0
M  V30 58 H -4.235032 2.799152 -2.544085 0
M  V30 59 H -3.543425 1.187837 -0.273090 0
M  V30 60 H -7.128490 -1.813820 -0.874522 0
M  V30 61 H -8.437371 -2.313742 1.070891 0
M  V30 62 H -5.217703 0.253373 4.477912 0
M  V30 63 H -7.094148 3.564996 4.680178 0
M  V30 64 H -6.372547 3.038302 7.019455 0
M  V30 65 H -5.810998 1.320435 6.533718 0
M  V30 66 H -4.758423 4.102715 5.447539 0
M  V30 67 H -4.207576 2.393844 4.877894 0
M  V30 68 H -4.626364 0.789577 1.392658 0
M  V30 69 H -1.514771 -0.369869 -1.816088 0
M  V30 70 H 2.172907 -2.943305 -0.744831 0
M  V30 71 H 1.873775 -1.240002 -1.149416 0
M  V30 72 H 4.417172 -1.105020 -1.812336 0
M  V30 73 H 4.061210 -1.177541 -0.088729 0
M  V30 END ATOM
M  V30 BEGIN BOND
M  V30 1 1 1 2
M  V30 2 2 2 3
M  V30 3 1 3 4
M  V30 4 2 4 5
M  V30 5 1 5 6
M  V30 6 2 6 7
M  V30 7 1 7 8
M  V30 8 1 8 9
M  V30 9 1 9 10
M  V30 10 1 10 11
M  V30 11 1 11 12
M  V30 12 1 12 13
M  V30 13 1 13 14
M  V30 14 1 14 15
M  V30 15 2 15 16
M  V30 16 1 15 17
M  V30 17 2 17 18
M  V30 18 1 18 19
M  V30 19 2 19 20
M  V30 20 1 20 21
M  V30 21 1 21 22
M  V30 22 1 22 23
M  V30 23 2 23 24
M  V30 24 1 23 25
M  V30 25 2 25 26
M  V30 26 1 26 27
M  V30 27 2 27 28
M  V30 28 1 28 29
M  V30 29 1 29 30
M  V30 30 1 30 31
M  V30 31 2 31 32
M  V30 32 1 31 33
M  V30 33 1 33 34
M  V30 34 1 34 35
M  V30 35 2 29 36
M  V30 36 2 21 37
M  V30 37 1 12 38
M  V30 38 1 38 39
M  V30 39 1 7 2
M  V30 40 1 39 9
M  V30 41 1 37 17
M  V30 42 1 36 25
M  V30 43 1 35 33
M  V30 44 1 1 40
M  V30 45 1 1 41
M  V30 46 1 1 42
M  V30 47 1 3 43
M  V30 48 1 4 44
M  V30 49 1 5 45
M  V30 50 1 6 46
M  V30 51 1 8 47
M  V30 52 1 8 48
M  V30 53 1 10 49
M  V30 54 1 10 50
M  V30 55 1 11 51
M  V30 56 1 11 52
M  V30 57 1 12 53
M  V30 58 1 13 54
M  V30 59 1 13 55
M  V30 60 1 14 56
M  V30 61 1 18 57
M  V30 62 1 20 58
M  V30 63 1 22 59
M  V30 64 1 26 60
M  V30 65 1 27 61
M  V30 66 1 30 62
M  V30 67 1 33 63
M  V30 68 1 34 64
M  V30 69 1 34 65
M  V30 70 1 35 66
M  V30 71 1 35 67
M  V30 72 1 36 68
M  V30 73 1 37 69
M  V30 74 1 38 70
M  V30 75 1 38 71
M  V30 76 1 39 72
M  V30 77 1 39 73
M  V30 END BOND
M  V30 END CTAB
M  END
>  <Dataset>  (270) 
ChEMBL_Kinases

>  <Ligand_Instance>  (270) 
nan

>  <PDB_ID>  (270) 
nan

>  <Standardized_SMILES>  (270) 
Cc1ccccc1CN1CCC(CNC(=O)c2cncc(NC(=O)c3ccnc(NC(=O)C4CC4)c3)c2)CC1

>  <Name>  (270) 
nan

>  <Pocket>  (270) 
nan

>  <ATP_Site>  (270) 
nan

>  <Peripheral>  (270) 
nan

>  <Num_H_Atoms_ProtBoundConf>  (270) 
nan

>  <Num_Resolved_Atoms>  (270) 
nan

>  <Num_Not_Resolved_Atoms>  (270) 
nan

$$$$
CHEMBL3702080
     RDKit          3D

  0  0  0  0  0  0  0  0  0  0999 V3000
M  V30 BEGIN CTAB
M  V30 COUNTS 67 72 0 0 0
M  V30 BEGIN ATOM
M  V30 1 C 4.738471 -1.513552 7.004293 0
M  V30 2 O 5.458893 -0.838984 6.011750 0
M  V30 3 C 5.543584 -1.251347 4.700906 0
M  V30 4 O 4.865317 -2.328198 4.585899 0
M  V30 5 C 6.246017 -0.679156 3.496513 0
M  V30 6 C 5.169478 -0.115471 2.633773 0
M  V30 7 C 4.452491 0.960923 3.468396 0
M  V30 8 C 3.106374 1.107369 2.797968 0
M  V30 9 N 3.348400 1.401642 1.371730 0
M  V30 10 C 2.222835 1.470283 0.501532 0
M  V30 11 C 1.008893 0.941925 0.909466 0
M  V30 12 C -0.098046 1.003216 0.065660 0
M  V30 13 C -0.047525 1.575732 -1.182437 0
M  V30 14 N -1.149976 1.650117 -2.071859 0
M  V30 15 C -2.469673 1.178480 -1.828665 0
M  V30 16 N -3.480469 2.019689 -1.492310 0
M  V30 17 C -4.711542 1.559083 -1.270597 0
M  V30 18 C -4.941351 0.208232 -1.389422 0
M  V30 19 C -6.112836 -0.539101 -1.221029 0
M  V30 20 C -7.376907 -0.092344 -0.882303 0
M  V30 21 C -8.339830 -1.071895 -0.792980 0
M  V30 22 N -8.039493 -2.372657 -1.026734 0
M  V30 23 C -6.801564 -2.739257 -1.349341 0
M  V30 24 F -6.562078 -4.047033 -1.568803 0
M  V30 25 C -5.720087 -1.854671 -1.476543 0
M  V30 26 N -4.413580 -1.895779 -1.776140 0
M  V30 27 C -3.752402 -3.123019 -2.074866 0
M  V30 28 C -2.617595 -3.015747 -3.066357 0
M  V30 29 C -1.705989 -4.194567 -2.759186 0
M  V30 30 C -1.927966 -4.566173 -1.328807 0
M  V30 31 C -2.985317 -3.628860 -0.853564 0
M  V30 32 C -3.899175 -0.645441 -1.734016 0
M  V30 33 N -2.703082 -0.135880 -1.941602 0
M  V30 34 N 1.141958 2.086136 -1.563993 0
M  V30 35 C 2.219875 2.034209 -0.759423 0
M  V30 36 C 4.699888 1.587433 0.869037 0
M  V30 37 C 5.619391 0.462706 1.322921 0
M  V30 38 H 3.920110 -2.148868 6.558533 0
M  V30 39 H 5.368068 -2.102504 7.694793 0
M  V30 40 H 4.170290 -0.743571 7.606313 0
M  V30 41 H 6.942998 0.103708 3.826498 0
M  V30 42 H 6.732612 -1.521961 2.996844 0
M  V30 43 H 4.387259 -0.897082 2.439002 0
M  V30 44 H 4.296836 0.526573 4.459320 0
M  V30 45 H 5.000859 1.917875 3.436697 0
M  V30 46 H 2.631281 2.005651 3.222713 0
M  V30 47 H 2.502629 0.212325 2.952478 0
M  V30 48 H 0.830171 0.466293 1.855630 0
M  V30 49 H -1.089937 0.599659 0.329401 0
M  V30 50 H -1.061039 2.080126 -3.015399 0
M  V30 51 H -5.458310 2.280574 -1.010154 0
M  V30 52 H -7.574279 0.954143 -0.705265 0
M  V30 53 H -9.376930 -0.814335 -0.530684 0
M  V30 54 H -4.425958 -3.944385 -2.353002 0
M  V30 55 H -2.010237 -2.125767 -2.945886 0
M  V30 56 H -2.927241 -3.116990 -4.123831 0
M  V30 57 H -0.636868 -3.945425 -2.892044 0
M  V30 58 H -1.941768 -5.079194 -3.390175 0
M  V30 59 H -1.014262 -4.426456 -0.688349 0
M  V30 60 H -2.274941 -5.616114 -1.223594 0
M  V30 61 H -3.648710 -4.130634 -0.128434 0
M  V30 62 H -2.585867 -2.724072 -0.346778 0
M  V30 63 H 3.156225 2.469645 -1.112300 0
M  V30 64 H 4.653505 1.509691 -0.231629 0
M  V30 65 H 5.143762 2.554420 1.125495 0
M  V30 66 H 6.637894 0.877905 1.439631 0
M  V30 67 H 5.677226 -0.319491 0.530083 0
M  V30 END ATOM
M  V30 BEGIN BOND
M  V30 1 1 1 2
M  V30 2 1 2 3
M  V30 3 2 3 4
M  V30 4 1 3 5
M  V30 5 1 5 6
M  V30 6 1 6 7
M  V30 7 1 7 8
M  V30 8 1 8 9
M  V30 9 1 9 10
M  V30 10 2 10 11
M  V30 11 1 11 12
M  V30 12 2 12 13
M  V30 13 1 13 14
M  V30 14 1 14 15
M  V30 15 2 15 16
M  V30 16 1 16 17
M  V30 17 2 17 18
M  V30 18 1 18 19
M  V30 19 2 19 20
M  V30 20 1 20 21
M  V30 21 2 21 22
M  V30 22 1 22 23
M  V30 23 1 23 24
M  V30 24 2 23 25
M  V30 25 1 25 26
M  V30 26 1 26 27
M  V30 27 1 27 28
M  V30 28 1 28 29
M  V30 29 1 29 30
M  V30 30 1 30 31
M  V30 31 1 26 32
M  V30 32 2 32 33
M  V30 33 1 13 34
M  V30 34 2 34 35
M  V30 35 1 9 36
M  V30 36 1 36 37
M  V30 37 1 37 6
M  V30 38 1 35 10
M  V30 39 1 33 15
M  V30 40 1 32 18
M  V30 41 1 25 19
M  V30 42 1 31 27
M  V30 43 1 1 38
M  V30 44 1 1 39
M  V30 45 1 1 40
M  V30 46 1 5 41
M  V30 47 1 5 42
M  V30 48 1 6 43
M  V30 49 1 7 44
M  V30 50 1 7 45
M  V30 51 1 8 46
M  V30 52 1 8 47
M  V30 53 1 11 48
M  V30 54 1 12 49
M  V30 55 1 14 50
M  V30 56 1 17 51
M  V30 57 1 20 52
M  V30 58 1 21 53
M  V30 59 1 27 54
M  V30 60 1 28 55
M  V30 61 1 28 56
M  V30 62 1 29 57
M  V30 63 1 29 58
M  V30 64 1 30 59
M  V30 65 1 30 60
M  V30 66 1 31 61
M  V30 67 1 31 62
M  V30 68 1 35 63
M  V30 69 1 36 64
M  V30 70 1 36 65
M  V30 71 1 37 66
M  V30 72 1 37 67
M  V30 END BOND
M  V30 END CTAB
M  END
>  <Dataset>  (271) 
ChEMBL_Kinases

>  <Ligand_Instance>  (271) 
nan

>  <PDB_ID>  (271) 
nan

>  <Standardized_SMILES>  (271) 
COC(=O)CC1CCN(c2ccc(Nc3ncc4c5ccnc(F)c5n(C5CCCC5)c4n3)nc2)CC1

>  <Name>  (271) 
nan

>  <Pocket>  (271) 
nan

>  <ATP_Site>  (271) 
nan

>  <Peripheral>  (271) 
nan

>  <Num_H_Atoms_ProtBoundConf>  (271) 
nan

>  <Num_Resolved_Atoms>  (271) 
nan

>  <Num_Not_Resolved_Atoms>  (271) 
nan

$$$$
CHEMBL4873839
     RDKit          3D

  0  0  0  0  0  0  0  0  0  0999 V3000
M  V30 BEGIN CTAB
M  V30 COUNTS 46 47 0 0 0
M  V30 BEGIN ATOM
M  V30 1 C 0.287539 -1.598232 3.368870 0
M  V30 2 N -0.700099 -2.608674 3.046232 0
M  V30 3 C -1.570571 -2.660431 1.928865 0
M  V30 4 N -1.567373 -1.708120 0.985395 0
M  V30 5 C -2.354308 -1.680390 -0.099885 0
M  V30 6 N -2.349574 -0.671548 -1.096834 0
M  V30 7 C -1.558821 0.473553 -1.184112 0
M  V30 8 C -1.732152 1.365382 -2.248361 0
M  V30 9 N -0.999684 2.479694 -2.381428 0
M  V30 10 C -0.046889 2.819980 -1.503038 0
M  V30 11 C 0.687926 4.022069 -1.716006 0
M  V30 12 N 1.288616 4.995486 -1.879940 0
M  V30 13 C 0.217559 2.006671 -0.398840 0
M  V30 14 N 1.212939 2.348699 0.550645 0
M  V30 15 C 1.672942 1.693586 1.735239 0
M  V30 16 C 2.361926 0.386235 1.555714 0
M  V30 17 N 3.568890 0.479238 0.730926 0
M  V30 18 C 4.112690 -0.891851 0.705350 0
M  V30 19 C 3.256000 0.779218 -0.642435 0
M  V30 20 C -0.568605 0.877909 -0.319124 0
M  V30 21 N -3.200031 -2.720098 -0.201972 0
M  V30 22 C -3.290642 -3.726288 0.677614 0
M  V30 23 C -2.457696 -3.702993 1.774087 0
M  V30 24 C -2.486782 -4.774078 2.803609 0
M  V30 25 F -2.798290 -4.306956 4.060341 0
M  V30 26 F -3.416762 -5.747646 2.501089 0
M  V30 27 F -1.271020 -5.424421 2.893896 0
M  V30 28 H 0.344948 -1.402074 4.452672 0
M  V30 29 H 1.307496 -1.897303 3.038645 0
M  V30 30 H -0.033177 -0.609517 2.927554 0
M  V30 31 H -0.731835 -3.364771 3.753602 0
M  V30 32 H -3.048763 -0.811480 -1.887899 0
M  V30 33 H -2.480636 1.189401 -3.025328 0
M  V30 34 H 1.708536 3.271324 0.338763 0
M  V30 35 H 0.791186 1.591402 2.441525 0
M  V30 36 H 2.376288 2.345793 2.314652 0
M  V30 37 H 2.646319 0.043527 2.596884 0
M  V30 38 H 1.788687 -0.435891 1.142858 0
M  V30 39 H 4.521814 -1.039646 1.722432 0
M  V30 40 H 4.850312 -1.030730 -0.102390 0
M  V30 41 H 3.229406 -1.555562 0.606845 0
M  V30 42 H 2.385980 0.202636 -1.024239 0
M  V30 43 H 3.161120 1.834837 -0.890704 0
M  V30 44 H 4.119589 0.409470 -1.273819 0
M  V30 45 H -0.375935 0.247101 0.535793 0
M  V30 46 H -3.970767 -4.540977 0.574156 0
M  V30 END ATOM
M  V30 BEGIN BOND
M  V30 1 1 1 2
M  V30 2 1 2 3
M  V30 3 2 3 4
M  V30 4 1 4 5
M  V30 5 1 5 6
M  V30 6 1 6 7
M  V30 7 2 7 8
M  V30 8 1 8 9
M  V30 9 2 9 10
M  V30 10 1 10 11
M  V30 11 3 11 12
M  V30 12 1 10 13
M  V30 13 1 13 14
M  V30 14 1 14 15
M  V30 15 1 15 16
M  V30 16 1 16 17
M  V30 17 1 17 18
M  V30 18 1 17 19
M  V30 19 2 13 20
M  V30 20 2 5 21
M  V30 21 1 21 22
M  V30 22 2 22 23
M  V30 23 1 23 24
M  V30 24 1 24 25
M  V30 25 1 24 26
M  V30 26 1 24 27
M  V30 27 1 23 3
M  V30 28 1 20 7
M  V30 29 1 1 28
M  V30 30 1 1 29
M  V30 31 1 1 30
M  V30 32 1 2 31
M  V30 33 1 6 32
M  V30 34 1 8 33
M  V30 35 1 14 34
M  V30 36 1 15 35
M  V30 37 1 15 36
M  V30 38 1 16 37
M  V30 39 1 16 38
M  V30 40 1 18 39
M  V30 41 1 18 40
M  V30 42 1 18 41
M  V30 43 1 19 42
M  V30 44 1 19 43
M  V30 45 1 19 44
M  V30 46 1 20 45
M  V30 47 1 22 46
M  V30 END BOND
M  V30 END CTAB
M  END
>  <Dataset>  (272) 
ChEMBL_Kinases

>  <Ligand_Instance>  (272) 
nan

>  <PDB_ID>  (272) 
nan

>  <Standardized_SMILES>  (272) 
CNc1nc(Nc2cnc(C#N)c(NCCN(C)C)c2)ncc1C(F)(F)F

>  <Name>  (272) 
nan

>  <Pocket>  (272) 
nan

>  <ATP_Site>  (272) 
nan

>  <Peripheral>  (272) 
nan

>  <Num_H_Atoms_ProtBoundConf>  (272) 
nan

>  <Num_Resolved_Atoms>  (272) 
nan

>  <Num_Not_Resolved_Atoms>  (272) 
nan

$$$$
CHEMBL4873851
     RDKit          3D

  0  0  0  0  0  0  0  0  0  0999 V3000
M  V30 BEGIN CTAB
M  V30 COUNTS 72 76 0 0 0
M  V30 BEGIN ATOM
M  V30 1 C 9.239856 1.473755 0.171745 0
M  V30 2 O 7.960921 2.054981 0.016146 0
M  V30 3 C 7.164631 2.387074 1.094767 0
M  V30 4 C 7.524377 2.196430 2.418583 0
M  V30 5 C 6.682808 2.547637 3.471282 0
M  V30 6 F 7.170304 2.311990 4.733511 0
M  V30 7 C 5.443036 3.105797 3.214025 0
M  V30 8 C 5.085209 3.294898 1.886309 0
M  V30 9 C 3.723384 3.873633 1.594005 0 CFG=1
M  V30 10 C 3.815230 5.332106 1.376173 0
M  V30 11 O 4.338375 5.942368 2.522986 0
M  V30 12 N 3.184069 3.146540 0.433310 0
M  V30 13 C 2.182450 2.170584 0.497124 0
M  V30 14 O 1.746345 1.932852 1.656410 0
M  V30 15 C 1.784728 1.560105 -0.796206 0 CFG=1
M  V30 16 C 2.899633 1.212468 -1.703091 0
M  V30 17 N 0.863851 0.464895 -0.512515 0
M  V30 18 C 1.498527 -0.667321 0.104042 0
M  V30 19 C 0.419265 -1.665975 0.287996 0
M  V30 20 C 0.488323 -2.934183 0.827882 0
M  V30 21 C -0.696835 -3.641743 0.876728 0
M  V30 22 C -1.910099 -3.160289 0.426703 0
M  V30 23 C -3.155250 -3.911939 0.490842 0
M  V30 24 C -3.235133 -5.175355 1.009599 0
M  V30 25 C -4.396630 -5.912553 1.090348 0
M  V30 26 N -5.534619 -5.358646 0.630006 0
M  V30 27 C -5.491694 -4.095970 0.103824 0
M  V30 28 N -6.691290 -3.515651 -0.388111 0
M  V30 29 C -7.921561 -4.264098 -0.353763 0
M  V30 30 C -7.894020 -5.507755 -1.219461 0
M  V30 31 C -8.244662 -5.186502 -2.655203 0
M  V30 32 O -9.455512 -4.513820 -2.698418 0
M  V30 33 C -9.436212 -3.284822 -2.084194 0
M  V30 34 C -9.147985 -3.442634 -0.589486 0
M  V30 35 N -4.330678 -3.433014 0.054821 0
M  V30 36 C -1.964502 -1.873610 -0.118224 0
M  V30 37 C -0.781060 -1.164764 -0.168069 0
M  V30 38 C -0.513802 0.173296 -0.673979 0
M  V30 39 O -1.253308 1.042519 -1.190934 0
M  V30 40 C 5.916557 2.949961 0.829343 0
M  V30 41 H 9.751955 1.540148 -0.823825 0
M  V30 42 H 9.820703 1.969095 0.978673 0
M  V30 43 H 9.122759 0.412718 0.403781 0
M  V30 44 H 8.487916 1.758157 2.618908 0
M  V30 45 H 4.824831 3.365623 4.054979 0
M  V30 46 H 3.084657 3.661831 2.479656 0
M  V30 47 H 4.498242 5.620130 0.541525 0
M  V30 48 H 2.833280 5.802642 1.200116 0
M  V30 49 H 5.320297 5.896420 2.563826 0
M  V30 50 H 3.670138 3.492066 -0.403085 0
M  V30 51 H 1.134599 2.341299 -1.289146 0
M  V30 52 H 3.193346 1.986658 -2.422791 0
M  V30 53 H 3.827261 0.967138 -1.119248 0
M  V30 54 H 2.701142 0.280672 -2.306363 0
M  V30 55 H 2.058929 -0.443732 1.024379 0
M  V30 56 H 2.271578 -1.043752 -0.626557 0
M  V30 57 H 1.408387 -3.359343 1.194975 0
M  V30 58 H -0.640084 -4.628665 1.293848 0
M  V30 59 H -2.357842 -5.680894 1.391433 0
M  V30 60 H -4.464240 -6.911703 1.500507 0
M  V30 61 H -6.676199 -2.552395 -0.775420 0
M  V30 62 H -7.999530 -4.659207 0.702787 0
M  V30 63 H -6.924459 -5.985906 -1.146760 0
M  V30 64 H -8.683322 -6.212037 -0.842752 0
M  V30 65 H -8.382449 -6.151552 -3.186632 0
M  V30 66 H -7.420024 -4.610574 -3.139840 0
M  V30 67 H -10.492263 -2.899503 -2.129644 0
M  V30 68 H -8.808527 -2.519494 -2.543636 0
M  V30 69 H -10.037427 -4.025458 -0.201274 0
M  V30 70 H -9.110375 -2.472745 -0.104486 0
M  V30 71 H -2.865591 -1.412792 -0.495290 0
M  V30 72 H 5.657557 3.093777 -0.188871 0
M  V30 END ATOM
M  V30 BEGIN BOND
M  V30 1 1 1 2
M  V30 2 1 2 3
M  V30 3 2 3 4
M  V30 4 1 4 5
M  V30 5 1 5 6
M  V30 6 2 5 7
M  V30 7 1 7 8
M  V30 8 1 8 9
M  V30 9 1 9 10
M  V30 10 1 10 11
M  V30 11 1 9 12
M  V30 12 1 12 13
M  V30 13 2 13 14
M  V30 14 1 13 15
M  V30 15 1 15 16
M  V30 16 1 15 17
M  V30 17 1 17 18
M  V30 18 1 18 19
M  V30 19 2 19 20
M  V30 20 1 20 21
M  V30 21 2 21 22
M  V30 22 1 22 23
M  V30 23 2 23 24
M  V30 24 1 24 25
M  V30 25 2 25 26
M  V30 26 1 26 27
M  V30 27 1 27 28
M  V30 28 1 28 29
M  V30 29 1 29 30
M  V30 30 1 30 31
M  V30 31 1 31 32
M  V30 32 1 32 33
M  V30 33 1 33 34
M  V30 34 2 27 35
M  V30 35 1 22 36
M  V30 36 2 36 37
M  V30 37 1 37 38
M  V30 38 2 38 39
M  V30 39 2 8 40
M  V30 40 1 40 3
M  V30 41 1 38 17
M  V30 42 1 37 19
M  V30 43 1 35 23
M  V30 44 1 34 29
M  V30 45 1 1 41
M  V30 46 1 1 42
M  V30 47 1 1 43
M  V30 48 1 4 44
M  V30 49 1 7 45
M  V30 50 1 9 46 CFG=1
M  V30 51 1 10 47
M  V30 52 1 10 48
M  V30 53 1 11 49
M  V30 54 1 12 50
M  V30 55 1 15 51 CFG=3
M  V30 56 1 16 52
M  V30 57 1 16 53
M  V30 58 1 16 54
M  V30 59 1 18 55
M  V30 60 1 18 56
M  V30 61 1 20 57
M  V30 62 1 21 58
M  V30 63 1 24 59
M  V30 64 1 25 60
M  V30 65 1 28 61
M  V30 66 1 29 62
M  V30 67 1 30 63
M  V30 68 1 30 64
M  V30 69 1 31 65
M  V30 70 1 31 66
M  V30 71 1 33 67
M  V30 72 1 33 68
M  V30 73 1 34 69
M  V30 74 1 34 70
M  V30 75 1 36 71
M  V30 76 1 40 72
M  V30 END BOND
M  V30 END CTAB
M  END
>  <Dataset>  (273) 
ChEMBL_Kinases

>  <Ligand_Instance>  (273) 
nan

>  <PDB_ID>  (273) 
nan

>  <Standardized_SMILES>  (273) 
COc1cc(F)cc([C@@H](CO)NC(=O)[C@@H](C)N2Cc3ccc(-c4ccnc(NC5CCOCC5)n4)cc3C2=O)c1

>  <Name>  (273) 
nan

>  <Pocket>  (273) 
nan

>  <ATP_Site>  (273) 
nan

>  <Peripheral>  (273) 
nan

>  <Num_H_Atoms_ProtBoundConf>  (273) 
nan

>  <Num_Resolved_Atoms>  (273) 
nan

>  <Num_Not_Resolved_Atoms>  (273) 
nan

$$$$
CHEMBL4873991
     RDKit          3D

  0  0  0  0  0  0  0  0  0  0999 V3000
M  V30 BEGIN CTAB
M  V30 COUNTS 57 60 0 0 0
M  V30 BEGIN ATOM
M  V30 1 C -0.999401 -4.763452 3.519407 0
M  V30 2 O -0.488064 -3.592062 2.942894 0
M  V30 3 C -0.036607 -3.494044 1.634109 0
M  V30 4 C -0.019957 -4.517731 0.708556 0
M  V30 5 C 0.458283 -4.294490 -0.575939 0
M  V30 6 C 0.930577 -3.058944 -0.977621 0
M  V30 7 C 0.900288 -2.057214 -0.028751 0
M  V30 8 C 0.430674 -2.252853 1.252743 0
M  V30 9 N 0.444508 -1.151030 2.152348 0
M  V30 10 C 0.904111 0.184254 1.872594 0
M  V30 11 N 2.145945 0.608475 2.044286 0
M  V30 12 C 2.476644 1.881630 1.752353 0
M  V30 13 C 1.459628 2.677655 1.278937 0
M  V30 14 C 1.823292 4.051800 0.965279 0
M  V30 15 N 3.126456 4.588591 1.119665 0
M  V30 16 O 1.295548 5.086391 0.537949 0
M  V30 17 C 0.157135 2.278587 1.085496 0
M  V30 18 N -0.885781 3.095123 0.600076 0
M  V30 19 C -2.192146 2.610029 0.431458 0
M  V30 20 C -3.194657 2.638938 1.387711 0
M  V30 21 C -2.858867 3.235245 2.707091 0
M  V30 22 C -4.451728 2.134834 1.124617 0
M  V30 23 C -4.775837 1.580305 -0.092075 0
M  V30 24 C -3.781069 1.544024 -1.061456 0
M  V30 25 C -2.517308 2.047943 -0.804705 0
M  V30 26 Br -1.220490 1.943374 -2.223269 0
M  V30 27 N -0.087924 0.996806 1.400341 0
M  V30 28 C 1.444855 -2.810403 -2.350850 0
M  V30 29 N 1.694951 -4.078802 -2.998135 0
M  V30 30 C 2.931624 -4.698023 -2.618436 0
M  V30 31 C 0.603172 -4.998538 -2.879300 0
M  V30 32 C 0.407972 -5.497895 -1.448088 0
M  V30 33 H -0.256645 -5.560807 3.687046 0
M  V30 34 H -1.398129 -4.485291 4.526939 0
M  V30 35 H -1.844027 -5.196692 2.938255 0
M  V30 36 H -0.395669 -5.473028 1.051674 0
M  V30 37 H 1.258713 -1.091778 -0.310078 0
M  V30 38 H 0.090627 -1.285499 3.131939 0
M  V30 39 H 3.487822 2.238850 1.888704 0
M  V30 40 H 3.755281 4.302987 0.347827 0
M  V30 41 H 3.530047 5.207456 1.870881 0
M  V30 42 H -0.803670 4.093797 0.328627 0
M  V30 43 H -1.834495 2.978787 3.035632 0
M  V30 44 H -3.077701 4.317189 2.761835 0
M  V30 45 H -3.528401 2.756658 3.476297 0
M  V30 46 H -5.238048 2.163319 1.890340 0
M  V30 47 H -5.773576 1.199812 -0.247775 0
M  V30 48 H -4.062213 1.103406 -2.007420 0
M  V30 49 H 2.457917 -2.318635 -2.267850 0
M  V30 50 H 0.796773 -2.194558 -2.974910 0
M  V30 51 H 3.351328 -4.156088 -1.762698 0
M  V30 52 H 3.645493 -4.793134 -3.478442 0
M  V30 53 H 2.773662 -5.755708 -2.277496 0
M  V30 54 H -0.307718 -4.462054 -3.213906 0
M  V30 55 H 0.824984 -5.860499 -3.556839 0
M  V30 56 H 1.128402 -6.270787 -1.182699 0
M  V30 57 H -0.644569 -5.889978 -1.424076 0
M  V30 END ATOM
M  V30 BEGIN BOND
M  V30 1 1 1 2
M  V30 2 1 2 3
M  V30 3 2 3 4
M  V30 4 1 4 5
M  V30 5 2 5 6
M  V30 6 1 6 7
M  V30 7 2 7 8
M  V30 8 1 8 9
M  V30 9 1 9 10
M  V30 10 2 10 11
M  V30 11 1 11 12
M  V30 12 2 12 13
M  V30 13 1 13 14
M  V30 14 1 14 15
M  V30 15 2 14 16
M  V30 16 1 13 17
M  V30 17 1 17 18
M  V30 18 1 18 19
M  V30 19 2 19 20
M  V30 20 1 20 21
M  V30 21 1 20 22
M  V30 22 2 22 23
M  V30 23 1 23 24
M  V30 24 2 24 25
M  V30 25 1 25 26
M  V30 26 2 17 27
M  V30 27 1 6 28
M  V30 28 1 28 29
M  V30 29 1 29 30
M  V30 30 1 29 31
M  V30 31 1 31 32
M  V30 32 1 8 3
M  V30 33 1 27 10
M  V30 34 1 32 5
M  V30 35 1 25 19
M  V30 36 1 1 33
M  V30 37 1 1 34
M  V30 38 1 1 35
M  V30 39 1 4 36
M  V30 40 1 7 37
M  V30 41 1 9 38
M  V30 42 1 12 39
M  V30 43 1 15 40
M  V30 44 1 15 41
M  V30 45 1 18 42
M  V30 46 1 21 43
M  V30 47 1 21 44
M  V30 48 1 21 45
M  V30 49 1 22 46
M  V30 50 1 23 47
M  V30 51 1 24 48
M  V30 52 1 28 49
M  V30 53 1 28 50
M  V30 54 1 30 51
M  V30 55 1 30 52
M  V30 56 1 30 53
M  V30 57 1 31 54
M  V30 58 1 31 55
M  V30 59 1 32 56
M  V30 60 1 32 57
M  V30 END BOND
M  V30 END CTAB
M  END
>  <Dataset>  (274) 
ChEMBL_Kinases

>  <Ligand_Instance>  (274) 
nan

>  <PDB_ID>  (274) 
nan

>  <Standardized_SMILES>  (274) 
COc1cc2c(cc1Nc1ncc(C(N)=O)c(Nc3c(C)cccc3Br)n1)CN(C)CC2

>  <Name>  (274) 
nan

>  <Pocket>  (274) 
nan

>  <ATP_Site>  (274) 
nan

>  <Peripheral>  (274) 
nan

>  <Num_H_Atoms_ProtBoundConf>  (274) 
nan

>  <Num_Resolved_Atoms>  (274) 
nan

>  <Num_Not_Resolved_Atoms>  (274) 
nan

$$$$
CHEMBL3958711
     RDKit          3D

  0  0  0  0  0  0  0  0  0  0999 V3000
M  V30 BEGIN CTAB
M  V30 COUNTS 53 58 0 0 0
M  V30 BEGIN ATOM
M  V30 1 O 2.415622 -4.645622 -0.047892 0
M  V30 2 C 2.550503 -3.391071 0.090529 0
M  V30 3 C 3.273169 -2.947176 1.295980 0
M  V30 4 C 3.897231 -3.503812 2.396037 0
M  V30 5 C 4.496798 -2.717829 3.356798 0
M  V30 6 C 4.498739 -1.339037 3.259745 0
M  V30 7 C 3.876691 -0.766564 2.162208 0
M  V30 8 C 3.281803 -1.568730 1.210816 0
M  V30 9 C 2.579947 -1.028882 -0.004428 0
M  V30 10 O 3.605687 -0.359596 -0.716507 0
M  V30 11 C 1.577806 -0.040149 0.334207 0
M  V30 12 C 1.875690 1.322949 0.338003 0
M  V30 13 C 0.976676 2.320902 0.653029 0
M  V30 14 C -0.313381 1.961669 0.990690 0
M  V30 15 N -1.358949 2.728402 1.331929 0
M  V30 16 C -2.403566 1.884738 1.570128 0
M  V30 17 N -3.699812 2.306621 1.959873 0
M  V30 18 C -4.835551 1.503160 2.224650 0
M  V30 19 C -6.046285 2.053975 2.601626 0
M  V30 20 C -7.159172 1.289408 2.862358 0
M  V30 21 C -7.122260 -0.079825 2.759574 0
M  V30 22 C -5.930957 -0.685565 2.384351 0
M  V30 23 C -4.862749 0.132953 2.139797 0
M  V30 24 N -1.943351 0.640688 1.362050 0
M  V30 25 C -0.663024 0.639040 1.004011 0
M  V30 26 C 0.277923 -0.318102 0.679917 0
M  V30 27 N 2.164021 -2.215888 -0.658481 0
M  V30 28 C 1.475151 -2.539244 -1.859191 0
M  V30 29 C 0.140105 -2.730475 -2.138727 0
M  V30 30 C -0.251558 -3.040146 -3.422688 0
M  V30 31 C 0.647691 -3.168791 -4.454491 0
M  V30 32 C 1.987332 -2.980989 -4.193092 0
M  V30 33 Cl 3.064186 -3.161573 -5.554431 0
M  V30 34 C 2.395631 -2.667942 -2.901075 0
M  V30 35 F 3.756042 -2.517038 -2.824301 0
M  V30 36 H 3.879911 -4.593280 2.445887 0
M  V30 37 H 4.973323 -3.214034 4.201930 0
M  V30 38 H 4.974537 -0.738889 4.023750 0
M  V30 39 H 3.912197 0.313254 2.144011 0
M  V30 40 H 4.411081 -0.931972 -0.654714 0
M  V30 41 H 2.882729 1.635979 0.076526 0
M  V30 42 H 1.306024 3.361758 0.627449 0
M  V30 43 H -1.363805 3.752170 1.398635 0
M  V30 44 H -3.861451 3.352661 2.073578 0
M  V30 45 H -6.129828 3.137984 2.698274 0
M  V30 46 H -8.075806 1.808104 3.154640 0
M  V30 47 H -8.036042 -0.598325 2.981022 0
M  V30 48 H -5.906941 -1.756426 2.305362 0
M  V30 49 H -3.973475 -0.408809 1.853511 0
M  V30 50 H -0.060326 -1.323375 0.713207 0
M  V30 51 H -0.465260 -2.605184 -1.255548 0
M  V30 52 H -1.333836 -3.162521 -3.494556 0
M  V30 53 H 0.229206 -3.413537 -5.418367 0
M  V30 END ATOM
M  V30 BEGIN BOND
M  V30 1 2 1 2
M  V30 2 1 2 3
M  V30 3 2 3 4
M  V30 4 1 4 5
M  V30 5 2 5 6
M  V30 6 1 6 7
M  V30 7 2 7 8
M  V30 8 1 8 9
M  V30 9 1 9 10
M  V30 10 1 9 11
M  V30 11 2 11 12
M  V30 12 1 12 13
M  V30 13 2 13 14
M  V30 14 1 14 15
M  V30 15 1 15 16
M  V30 16 1 16 17
M  V30 17 1 17 18
M  V30 18 2 18 19
M  V30 19 1 19 20
M  V30 20 2 20 21
M  V30 21 1 21 22
M  V30 22 2 22 23
M  V30 23 2 16 24
M  V30 24 1 24 25
M  V30 25 2 25 26
M  V30 26 1 9 27
M  V30 27 1 27 28
M  V30 28 2 28 29
M  V30 29 1 29 30
M  V30 30 2 30 31
M  V30 31 1 31 32
M  V30 32 1 32 33
M  V30 33 2 32 34
M  V30 34 1 34 35
M  V30 35 1 27 2
M  V30 36 1 34 28
M  V30 37 1 8 3
M  V30 38 1 26 11
M  V30 39 1 25 14
M  V30 40 1 23 18
M  V30 41 1 4 36
M  V30 42 1 5 37
M  V30 43 1 6 38
M  V30 44 1 7 39
M  V30 45 1 10 40
M  V30 46 1 12 41
M  V30 47 1 13 42
M  V30 48 1 15 43
M  V30 49 1 17 44
M  V30 50 1 19 45
M  V30 51 1 20 46
M  V30 52 1 21 47
M  V30 53 1 22 48
M  V30 54 1 23 49
M  V30 55 1 26 50
M  V30 56 1 29 51
M  V30 57 1 30 52
M  V30 58 1 31 53
M  V30 END BOND
M  V30 END CTAB
M  END
>  <Dataset>  (275) 
ChEMBL_Kinases

>  <Ligand_Instance>  (275) 
nan

>  <PDB_ID>  (275) 
nan

>  <Standardized_SMILES>  (275) 
O=C1c2ccccc2C(O)(c2ccc3[nH]c(Nc4ccccc4)nc3c2)N1c1cccc(Cl)c1F

>  <Name>  (275) 
nan

>  <Pocket>  (275) 
nan

>  <ATP_Site>  (275) 
nan

>  <Peripheral>  (275) 
nan

>  <Num_H_Atoms_ProtBoundConf>  (275) 
nan

>  <Num_Resolved_Atoms>  (275) 
nan

>  <Num_Not_Resolved_Atoms>  (275) 
nan

$$$$
CHEMBL3958697
     RDKit          3D

  0  0  0  0  0  0  0  0  0  0999 V3000
M  V30 BEGIN CTAB
M  V30 COUNTS 40 43 0 0 0
M  V30 BEGIN ATOM
M  V30 1 N 2.026581 -7.527452 -3.137620 0
M  V30 2 C 2.502320 -6.262636 -2.640609 0
M  V30 3 O 3.732680 -6.490380 -2.759210 0
M  V30 4 C 1.592828 -5.211906 -2.198764 0
M  V30 5 C 0.239197 -5.467288 -2.268183 0
M  V30 6 C -0.541442 -4.417306 -1.831088 0
M  V30 7 C -0.050276 -3.212207 -1.362778 0
M  V30 8 N -0.611680 -2.076614 -0.897893 0
M  V30 9 C 0.368135 -1.201639 -0.573383 0
M  V30 10 C 0.131918 0.151103 -0.029397 0
M  V30 11 C -1.182760 0.529921 0.149584 0
M  V30 12 C -1.359913 1.802460 0.663128 0
M  V30 13 C -0.284057 2.615380 0.966715 0
M  V30 14 S -0.451408 4.268668 1.633333 0
M  V30 15 C -0.481457 4.234563 3.423536 0
M  V30 16 C -0.388143 3.075885 4.165572 0
M  V30 17 C -0.426690 3.225639 5.549374 0
M  V30 18 C -0.551088 4.462001 6.146316 0
M  V30 19 F -0.584240 4.569165 7.508781 0
M  V30 20 C -0.644748 5.628878 5.381373 0
M  V30 21 Cl -0.799639 7.148704 6.228568 0
M  V30 22 C -0.606052 5.472904 4.015408 0
M  V30 23 C 1.014439 2.178837 0.765156 0
M  V30 24 C 1.253063 0.905976 0.250110 0
M  V30 25 N 1.533997 -1.811501 -0.843808 0
M  V30 26 C 1.307808 -3.052031 -1.331493 0
M  V30 27 C 2.173124 -4.045911 -1.748168 0
M  V30 28 H 1.514601 -8.307808 -2.708320 0
M  V30 29 H 1.506733 -8.353495 -2.758830 0
M  V30 30 H -0.173943 -6.398154 -2.628814 0
M  V30 31 H -1.619777 -4.533351 -1.851196 0
M  V30 32 H -1.650158 -1.985180 -0.836491 0
M  V30 33 H -2.007108 -0.120630 -0.093916 0
M  V30 34 H -2.363269 2.186946 0.836885 0
M  V30 35 H -0.292943 2.139580 3.638618 0
M  V30 36 H -0.352264 2.304796 6.112007 0
M  V30 37 H -0.682358 6.408974 3.457673 0
M  V30 38 H 1.909321 2.751565 0.976254 0
M  V30 39 H 2.248441 0.492648 0.064308 0
M  V30 40 H 3.253707 -3.927549 -1.726914 0
M  V30 END ATOM
M  V30 BEGIN BOND
M  V30 1 1 1 2
M  V30 2 2 2 3
M  V30 3 1 2 4
M  V30 4 2 4 5
M  V30 5 1 5 6
M  V30 6 2 6 7
M  V30 7 1 7 8
M  V30 8 1 8 9
M  V30 9 1 9 10
M  V30 10 2 10 11
M  V30 11 1 11 12
M  V30 12 2 12 13
M  V30 13 1 13 14
M  V30 14 1 14 15
M  V30 15 2 15 16
M  V30 16 1 16 17
M  V30 17 2 17 18
M  V30 18 1 18 19
M  V30 19 1 18 20
M  V30 20 1 20 21
M  V30 21 2 20 22
M  V30 22 1 13 23
M  V30 23 2 23 24
M  V30 24 2 9 25
M  V30 25 1 25 26
M  V30 26 2 26 27
M  V30 27 1 27 4
M  V30 28 1 26 7
M  V30 29 1 24 10
M  V30 30 1 22 15
M  V30 31 1 1 28
M  V30 32 1 1 29
M  V30 33 1 5 30
M  V30 34 1 6 31
M  V30 35 1 8 32
M  V30 36 1 11 33
M  V30 37 1 12 34
M  V30 38 1 16 35
M  V30 39 1 17 36
M  V30 40 1 22 37
M  V30 41 1 23 38
M  V30 42 1 24 39
M  V30 43 1 27 40
M  V30 END BOND
M  V30 END CTAB
M  END
>  <Dataset>  (276) 
ChEMBL_Kinases

>  <Ligand_Instance>  (276) 
nan

>  <PDB_ID>  (276) 
nan

>  <Standardized_SMILES>  (276) 
NC(=O)c1ccc2[nH]c(-c3ccc(Sc4ccc(F)c(Cl)c4)cc3)nc2c1

>  <Name>  (276) 
nan

>  <Pocket>  (276) 
nan

>  <ATP_Site>  (276) 
nan

>  <Peripheral>  (276) 
nan

>  <Num_H_Atoms_ProtBoundConf>  (276) 
nan

>  <Num_Resolved_Atoms>  (276) 
nan

>  <Num_Not_Resolved_Atoms>  (276) 
nan

$$$$
CHEMBL3958455
     RDKit          3D

  0  0  0  0  0  0  0  0  0  0999 V3000
M  V30 BEGIN CTAB
M  V30 COUNTS 44 48 0 0 0
M  V30 BEGIN ATOM
M  V30 1 N 8.983935 -3.809855 1.162332 0
M  V30 2 C 7.743773 -3.705019 0.508384 0
M  V30 3 O 7.816681 -4.462475 -0.483292 0
M  V30 4 C 6.681106 -2.849570 0.995393 0
M  V30 5 C 6.627279 -2.095784 2.167573 0
M  V30 6 C 5.524705 -1.327531 2.451547 0
M  V30 7 C 4.433522 -1.265477 1.603256 0
M  V30 8 N 3.285888 -0.540470 1.772017 0
M  V30 9 C 2.575631 -0.842868 0.662481 0
M  V30 10 C 1.247160 -0.330251 0.339463 0
M  V30 11 C 0.610568 0.529019 1.202472 0
M  V30 12 C -0.642059 0.982271 0.871616 0
M  V30 13 C -1.345953 0.657604 -0.265782 0
M  V30 14 C -2.678670 1.002354 -0.707288 0
M  V30 15 O -2.854615 0.972663 -1.987735 0
M  V30 16 C -3.902104 1.375413 -0.031121 0
M  V30 17 C -4.085179 2.001107 1.173941 0
M  V30 18 C -5.286641 2.268206 1.840091 0
M  V30 19 C -6.415426 1.834346 1.172901 0
M  V30 20 C -6.372851 1.186935 -0.059088 0
M  V30 21 C -5.127227 0.995603 -0.588980 0
M  V30 22 O -7.700682 0.887562 -0.445552 0
M  V30 23 C -8.433444 0.827091 0.803741 0
M  V30 24 O -7.792120 1.901585 1.497912 0
M  V30 25 C -0.633336 -0.221270 -1.099641 0
M  V30 26 C 0.623095 -0.712080 -0.825147 0
M  V30 27 N 3.264103 -1.692060 -0.107845 0
M  V30 28 C 4.452022 -1.990862 0.447178 0
M  V30 29 C 5.572311 -2.748477 0.196255 0
M  V30 30 H 9.010938 -4.450832 1.999717 0
M  V30 31 H 9.905301 -3.864572 1.618564 0
M  V30 32 H 7.528698 -2.198226 2.790974 0
M  V30 33 H 5.620897 -0.789289 3.406254 0
M  V30 34 H 3.046473 0.080707 2.570117 0
M  V30 35 H 1.070069 0.849249 2.122998 0
M  V30 36 H -1.105535 1.649708 1.557285 0
M  V30 37 H -3.233270 2.362894 1.717967 0
M  V30 38 H -5.315351 2.770131 2.790617 0
M  V30 39 H -5.129229 0.489512 -1.549824 0
M  V30 40 H -8.310577 -0.129825 1.306843 0
M  V30 41 H -9.472780 1.014493 0.572758 0
M  V30 42 H -1.061362 -0.565794 -2.032714 0
M  V30 43 H 1.117627 -1.401433 -1.528042 0
M  V30 44 H 5.554514 -3.315252 -0.733007 0
M  V30 END ATOM
M  V30 BEGIN BOND
M  V30 1 1 1 2
M  V30 2 2 2 3
M  V30 3 1 2 4
M  V30 4 2 4 5
M  V30 5 1 5 6
M  V30 6 2 6 7
M  V30 7 1 7 8
M  V30 8 1 8 9
M  V30 9 1 9 10
M  V30 10 2 10 11
M  V30 11 1 11 12
M  V30 12 2 12 13
M  V30 13 1 13 14
M  V30 14 2 14 15
M  V30 15 1 14 16
M  V30 16 2 16 17
M  V30 17 1 17 18
M  V30 18 2 18 19
M  V30 19 1 19 20
M  V30 20 2 20 21
M  V30 21 1 20 22
M  V30 22 1 22 23
M  V30 23 1 23 24
M  V30 24 1 13 25
M  V30 25 2 25 26
M  V30 26 2 9 27
M  V30 27 1 27 28
M  V30 28 2 28 29
M  V30 29 1 29 4
M  V30 30 1 28 7
M  V30 31 1 26 10
M  V30 32 1 21 16
M  V30 33 1 24 19
M  V30 34 1 1 30
M  V30 35 1 1 31
M  V30 36 1 5 32
M  V30 37 1 6 33
M  V30 38 1 8 34
M  V30 39 1 11 35
M  V30 40 1 12 36
M  V30 41 1 17 37
M  V30 42 1 18 38
M  V30 43 1 21 39
M  V30 44 1 23 40
M  V30 45 1 23 41
M  V30 46 1 25 42
M  V30 47 1 26 43
M  V30 48 1 29 44
M  V30 END BOND
M  V30 END CTAB
M  END
>  <Dataset>  (277) 
ChEMBL_Kinases

>  <Ligand_Instance>  (277) 
nan

>  <PDB_ID>  (277) 
nan

>  <Standardized_SMILES>  (277) 
NC(=O)c1ccc2[nH]c(-c3ccc(C(=O)c4ccc5c(c4)OCO5)cc3)nc2c1

>  <Name>  (277) 
nan

>  <Pocket>  (277) 
nan

>  <ATP_Site>  (277) 
nan

>  <Peripheral>  (277) 
nan

>  <Num_H_Atoms_ProtBoundConf>  (277) 
nan

>  <Num_Resolved_Atoms>  (277) 
nan

>  <Num_Not_Resolved_Atoms>  (277) 
nan

$$$$
CHEMBL3958330
     RDKit          3D

  0  0  0  0  0  0  0  0  0  0999 V3000
M  V30 BEGIN CTAB
M  V30 COUNTS 51 55 0 0 0
M  V30 BEGIN ATOM
M  V30 1 C 5.354722 -1.404114 5.260029 0
M  V30 2 C 5.863119 -0.030839 4.960637 0
M  V30 3 O 5.911449 0.259686 3.574689 0
M  V30 4 C 4.797332 0.241103 2.760910 0
M  V30 5 O 3.771524 -0.062634 3.416019 0
M  V30 6 N 4.865018 0.536799 1.367260 0
M  V30 7 C 3.649192 0.485794 0.627971 0
M  V30 8 N 2.438792 0.173417 1.156143 0
M  V30 9 C 1.512661 0.220039 0.180549 0
M  V30 10 C 0.156439 -0.023319 0.257396 0
M  V30 11 C -0.638547 0.074039 -0.856463 0
M  V30 12 C -2.064773 -0.170959 -0.830002 0
M  V30 13 O -2.587209 0.085018 -2.111386 0
M  V30 14 C -2.781740 0.800679 0.065536 0
M  V30 15 C -2.736609 2.196966 0.140430 0
M  V30 16 C -3.472666 2.935435 1.038746 0
M  V30 17 C -4.303901 2.265700 1.917668 0
M  V30 18 C -4.361305 0.895641 1.858954 0
M  V30 19 C -3.620850 0.161330 0.956014 0
M  V30 20 C -3.490946 -1.285095 0.678238 0
M  V30 21 O -4.155301 -2.115278 1.354019 0
M  V30 22 N -2.550868 -1.418965 -0.396464 0
M  V30 23 C -2.279993 -2.727477 -0.825917 0
M  V30 24 C -3.120547 -3.168694 -1.840068 0
M  V30 25 C -2.995468 -4.435225 -2.383404 0
M  V30 26 C -2.000933 -5.272153 -1.891715 0
M  V30 27 C -1.147774 -4.863848 -0.882975 0
M  V30 28 Cl 0.129555 -5.850732 -0.205265 0
M  V30 29 C -1.315361 -3.611962 -0.386850 0
M  V30 30 F -0.526264 -3.127939 0.602324 0
M  V30 31 C 0.032431 0.430433 -2.034267 0
M  V30 32 C 1.392803 0.671840 -2.098472 0
M  V30 33 C 2.182868 0.572000 -0.976395 0
M  V30 34 O 3.427893 0.712202 -0.644887 0
M  V30 35 H 5.862419 -1.779377 6.165107 0
M  V30 36 H 4.258345 -1.404239 5.519427 0
M  V30 37 H 5.525826 -2.136788 4.432046 0
M  V30 38 H 5.205200 0.703080 5.492578 0
M  V30 39 H 6.882020 0.071885 5.382479 0
M  V30 40 H 5.759066 0.777562 0.913661 0
M  V30 41 H -0.289197 -0.290350 1.186390 0
M  V30 42 H -2.751752 1.052259 -2.227509 0
M  V30 43 H -2.103088 2.757952 -0.524712 0
M  V30 44 H -3.413203 4.015337 1.069001 0
M  V30 45 H -4.900788 2.829251 2.643075 0
M  V30 46 H -5.013662 0.405165 2.552019 0
M  V30 47 H -3.925974 -2.608520 -2.299646 0
M  V30 48 H -3.605643 -4.832934 -3.159812 0
M  V30 49 H -1.848954 -6.288633 -2.279764 0
M  V30 50 H -0.596862 0.508385 -2.920449 0
M  V30 51 H 1.869206 0.944368 -3.028234 0
M  V30 END ATOM
M  V30 BEGIN BOND
M  V30 1 1 1 2
M  V30 2 1 2 3
M  V30 3 1 3 4
M  V30 4 2 4 5
M  V30 5 1 4 6
M  V30 6 1 6 7
M  V30 7 2 7 8
M  V30 8 1 8 9
M  V30 9 2 9 10
M  V30 10 1 10 11
M  V30 11 1 11 12
M  V30 12 1 12 13
M  V30 13 1 12 14
M  V30 14 2 14 15
M  V30 15 1 15 16
M  V30 16 2 16 17
M  V30 17 1 17 18
M  V30 18 2 18 19
M  V30 19 1 19 20
M  V30 20 2 20 21
M  V30 21 1 20 22
M  V30 22 1 22 23
M  V30 23 2 23 24
M  V30 24 1 24 25
M  V30 25 2 25 26
M  V30 26 1 26 27
M  V30 27 1 27 28
M  V30 28 2 27 29
M  V30 29 1 29 30
M  V30 30 2 11 31
M  V30 31 1 31 32
M  V30 32 2 32 33
M  V30 33 1 33 34
M  V30 34 1 34 7
M  V30 35 1 33 9
M  V30 36 1 22 12
M  V30 37 1 29 23
M  V30 38 1 19 14
M  V30 39 1 1 35
M  V30 40 1 1 36
M  V30 41 1 1 37
M  V30 42 1 2 38
M  V30 43 1 2 39
M  V30 44 1 6 40
M  V30 45 1 10 41
M  V30 46 1 13 42
M  V30 47 1 15 43
M  V30 48 1 16 44
M  V30 49 1 17 45
M  V30 50 1 18 46
M  V30 51 1 24 47
M  V30 52 1 25 48
M  V30 53 1 26 49
M  V30 54 1 31 50
M  V30 55 1 32 51
M  V30 END BOND
M  V30 END CTAB
M  END
>  <Dataset>  (278) 
ChEMBL_Kinases

>  <Ligand_Instance>  (278) 
nan

>  <PDB_ID>  (278) 
nan

>  <Standardized_SMILES>  (278) 
CCOC(=O)Nc1nc2cc(C3(O)c4ccccc4C(=O)N3c3cccc(Cl)c3F)ccc2o1

>  <Name>  (278) 
nan

>  <Pocket>  (278) 
nan

>  <ATP_Site>  (278) 
nan

>  <Peripheral>  (278) 
nan

>  <Num_H_Atoms_ProtBoundConf>  (278) 
nan

>  <Num_Resolved_Atoms>  (278) 
nan

>  <Num_Not_Resolved_Atoms>  (278) 
nan

$$$$
CHEMBL3702103
     RDKit          3D

  0  0  0  0  0  0  0  0  0  0999 V3000
M  V30 BEGIN CTAB
M  V30 COUNTS 61 66 0 0 0
M  V30 BEGIN ATOM
M  V30 1 O 1.369216 -5.027887 3.962772 0
M  V30 2 C 2.059720 -3.904187 3.503556 0
M  V30 3 C 2.941368 -4.310846 2.350691 0 CFG=2
M  V30 4 C 3.810601 -3.210044 1.854593 0
M  V30 5 N 3.563127 -3.070973 0.429565 0
M  V30 6 C 3.011583 -1.907531 -0.169189 0
M  V30 7 C 2.326325 -1.047034 0.659721 0
M  V30 8 C 1.801269 0.079216 0.023775 0
M  V30 9 C 1.953574 0.315323 -1.321888 0
M  V30 10 N 1.383073 1.433991 -1.981970 0
M  V30 11 C 0.577226 2.257082 -1.117242 0
M  V30 12 N 0.688165 3.438500 -0.444753 0
M  V30 13 C -0.372107 3.846701 0.284568 0
M  V30 14 C -1.550965 3.165051 0.401475 0
M  V30 15 C -2.718257 3.397328 1.073116 0
M  V30 16 C -3.125581 4.435142 1.889293 0
M  V30 17 C -4.405124 4.387487 2.439026 0
M  V30 18 N -5.168231 3.326984 2.139129 0
M  V30 19 C -4.795402 2.310182 1.352149 0
M  V30 20 C -3.519128 2.327956 0.785750 0
M  V30 21 N -2.869845 1.479546 -0.025875 0
M  V30 22 C -3.425302 0.220056 -0.507037 0
M  V30 23 C -2.969781 -0.914280 0.363774 0
M  V30 24 C -2.871970 -2.110206 -0.528133 0
M  V30 25 C -2.936009 -1.667166 -1.953035 0
M  V30 26 C -3.038901 -0.147101 -1.891181 0
M  V30 27 C -1.635433 1.967191 -0.291778 0
M  V30 28 N -0.576619 1.579516 -1.008538 0
M  V30 29 N 2.643594 -0.566652 -2.104011 0
M  V30 30 C 3.168806 -1.675782 -1.518618 0
M  V30 31 C 3.953669 -4.322563 -0.237153 0
M  V30 32 C 2.871817 -5.319227 0.158839 0
M  V30 33 N 2.098011 -4.843816 1.298981 0
M  V30 34 H 0.481404 -4.777575 4.370392 0
M  V30 35 H 1.328452 -3.118181 3.175373 0
M  V30 36 H 2.706774 -3.541699 4.339102 0
M  V30 37 H 3.542607 -5.203655 2.700185 0
M  V30 38 H 3.765716 -2.261592 2.418370 0
M  V30 39 H 4.884067 -3.552830 1.989586 0
M  V30 40 H 2.157847 -1.143450 1.710907 0
M  V30 41 H 1.244451 0.796920 0.639380 0
M  V30 42 H 1.534494 1.627953 -2.978184 0
M  V30 43 H -0.187960 4.784188 0.775851 0
M  V30 44 H -2.487545 5.277439 2.114053 0
M  V30 45 H -4.810670 5.158651 3.090807 0
M  V30 46 H -5.489627 1.479785 1.157653 0
M  V30 47 H -4.542200 0.255507 -0.406937 0
M  V30 48 H -1.945447 -0.639532 0.730387 0
M  V30 49 H -3.675920 -1.078980 1.213648 0
M  V30 50 H -1.889598 -2.619628 -0.293283 0
M  V30 51 H -3.721228 -2.787223 -0.251159 0
M  V30 52 H -2.000719 -1.982831 -2.499226 0
M  V30 53 H -3.848500 -2.117695 -2.417969 0
M  V30 54 H -2.067702 0.235299 -2.206225 0
M  V30 55 H -3.794743 0.195666 -2.643141 0
M  V30 56 H 3.716092 -2.361159 -2.175775 0
M  V30 57 H 4.938454 -4.672460 0.087215 0
M  V30 58 H 3.997244 -4.192278 -1.345820 0
M  V30 59 H 3.310849 -6.326788 0.316640 0
M  V30 60 H 2.117443 -5.429437 -0.663364 0
M  V30 61 H 1.465661 -5.586987 1.616592 0
M  V30 END ATOM
M  V30 BEGIN BOND
M  V30 1 1 1 2
M  V30 2 1 2 3
M  V30 3 1 3 4
M  V30 4 1 4 5
M  V30 5 1 5 6
M  V30 6 2 6 7
M  V30 7 1 7 8
M  V30 8 2 8 9
M  V30 9 1 9 10
M  V30 10 1 10 11
M  V30 11 2 11 12
M  V30 12 1 12 13
M  V30 13 2 13 14
M  V30 14 1 14 15
M  V30 15 2 15 16
M  V30 16 1 16 17
M  V30 17 2 17 18
M  V30 18 1 18 19
M  V30 19 2 19 20
M  V30 20 1 20 21
M  V30 21 1 21 22
M  V30 22 1 22 23
M  V30 23 1 23 24
M  V30 24 1 24 25
M  V30 25 1 25 26
M  V30 26 1 21 27
M  V30 27 2 27 28
M  V30 28 1 9 29
M  V30 29 2 29 30
M  V30 30 1 5 31
M  V30 31 1 31 32
M  V30 32 1 32 33
M  V30 33 1 33 3
M  V30 34 1 30 6
M  V30 35 1 28 11
M  V30 36 1 27 14
M  V30 37 1 20 15
M  V30 38 1 26 22
M  V30 39 1 1 34
M  V30 40 1 2 35
M  V30 41 1 2 36
M  V30 42 1 3 37 CFG=1
M  V30 43 1 4 38
M  V30 44 1 4 39
M  V30 45 1 7 40
M  V30 46 1 8 41
M  V30 47 1 10 42
M  V30 48 1 13 43
M  V30 49 1 16 44
M  V30 50 1 17 45
M  V30 51 1 19 46
M  V30 52 1 22 47
M  V30 53 1 23 48
M  V30 54 1 23 49
M  V30 55 1 24 50
M  V30 56 1 24 51
M  V30 57 1 25 52
M  V30 58 1 25 53
M  V30 59 1 26 54
M  V30 60 1 26 55
M  V30 61 1 30 56
M  V30 62 1 31 57
M  V30 63 1 31 58
M  V30 64 1 32 59
M  V30 65 1 32 60
M  V30 66 1 33 61
M  V30 END BOND
M  V30 END CTAB
M  END
>  <Dataset>  (279) 
ChEMBL_Kinases

>  <Ligand_Instance>  (279) 
nan

>  <PDB_ID>  (279) 
nan

>  <Standardized_SMILES>  (279) 
OC[C@@H]1CN(c2ccc(Nc3ncc4c5ccncc5n(C5CCCC5)c4n3)nc2)CCN1

>  <Name>  (279) 
nan

>  <Pocket>  (279) 
nan

>  <ATP_Site>  (279) 
nan

>  <Peripheral>  (279) 
nan

>  <Num_H_Atoms_ProtBoundConf>  (279) 
nan

>  <Num_Resolved_Atoms>  (279) 
nan

>  <Num_Not_Resolved_Atoms>  (279) 
nan

$$$$
CHEMBL3702104
     RDKit          3D

  0  0  0  0  0  0  0  0  0  0999 V3000
M  V30 BEGIN CTAB
M  V30 COUNTS 61 66 0 0 0
M  V30 BEGIN ATOM
M  V30 1 O 5.084554 -2.535173 3.721631 0
M  V30 2 C 5.307942 -3.922886 3.755332 0
M  V30 3 C 4.320610 -4.680484 2.889248 0 CFG=2
M  V30 4 C 4.446517 -4.329120 1.417649 0
M  V30 5 N 3.093488 -3.884843 1.038275 0
M  V30 6 C 2.767657 -2.601306 0.522259 0
M  V30 7 C 1.449275 -2.150290 0.685377 0
M  V30 8 C 1.102329 -0.889563 0.189438 0
M  V30 9 C 2.047448 -0.114129 -0.446392 0
M  V30 10 N 1.681576 1.196525 -0.918949 0
M  V30 11 C 0.386703 1.734643 -0.713238 0
M  V30 12 N 0.501536 2.968790 -0.179143 0
M  V30 13 C -0.559810 3.732417 0.141434 0
M  V30 14 C -1.806846 3.229324 -0.086439 0
M  V30 15 C -3.063759 3.734452 0.128115 0
M  V30 16 C -3.429127 4.968766 0.668328 0
M  V30 17 C -4.787326 5.183555 0.762475 0
M  V30 18 N -5.718052 4.274968 0.364570 0
M  V30 19 C -5.277760 3.096046 -0.150933 0
M  V30 20 F -6.220269 2.204406 -0.537237 0
M  V30 21 C -3.947896 2.762225 -0.296907 0
M  V30 22 N -3.263100 1.695920 -0.756909 0
M  V30 23 C -3.819238 0.487868 -1.284109 0
M  V30 24 C -3.460420 -0.727454 -0.453704 0
M  V30 25 C -3.115049 -1.836183 -1.419323 0
M  V30 26 C -3.788499 -1.352417 -2.712488 0
M  V30 27 C -3.350348 0.115085 -2.656650 0
M  V30 28 C -1.945463 1.968075 -0.633248 0
M  V30 29 N -0.841484 1.283750 -0.920018 0
M  V30 30 N 3.308900 -0.563597 -0.595594 0
M  V30 31 C 3.679642 -1.792389 -0.120926 0
M  V30 32 C 2.130618 -4.948651 1.264050 0
M  V30 33 C 1.930255 -5.073895 2.752680 0
M  V30 34 N 3.002592 -4.368488 3.429270 0
M  V30 35 H 4.105763 -2.331785 3.692726 0
M  V30 36 H 6.313382 -4.069704 3.323145 0
M  V30 37 H 5.213131 -4.231418 4.813053 0
M  V30 38 H 4.488811 -5.759800 3.060433 0
M  V30 39 H 5.207947 -3.541926 1.236816 0
M  V30 40 H 4.633210 -5.268087 0.864222 0
M  V30 41 H 0.658740 -2.696901 1.171310 0
M  V30 42 H 0.081295 -0.542919 0.318513 0
M  V30 43 H 2.432113 1.750469 -1.433713 0
M  V30 44 H -0.460642 4.726498 0.572960 0
M  V30 45 H -2.697793 5.691898 0.983616 0
M  V30 46 H -5.130167 6.141978 1.184569 0
M  V30 47 H -4.927031 0.556470 -1.343802 0
M  V30 48 H -2.661372 -0.497736 0.269798 0
M  V30 49 H -4.360247 -1.105758 0.107161 0
M  V30 50 H -3.500949 -2.825558 -1.134628 0
M  V30 51 H -2.021663 -1.884182 -1.553146 0
M  V30 52 H -3.389449 -1.879849 -3.579736 0
M  V30 53 H -4.862199 -1.459993 -2.567060 0
M  V30 54 H -2.265935 0.096065 -2.786152 0
M  V30 55 H -3.916229 0.631061 -3.459670 0
M  V30 56 H 4.689857 -2.142071 -0.246024 0
M  V30 57 H 1.170559 -4.622753 0.798932 0
M  V30 58 H 2.461352 -5.922157 0.840449 0
M  V30 59 H 1.871932 -6.144257 3.005875 0
M  V30 60 H 0.988699 -4.509969 3.028658 0
M  V30 61 H 3.001877 -4.684180 4.419200 0
M  V30 END ATOM
M  V30 BEGIN BOND
M  V30 1 1 1 2
M  V30 2 1 2 3
M  V30 3 1 3 4
M  V30 4 1 4 5
M  V30 5 1 5 6
M  V30 6 2 6 7
M  V30 7 1 7 8
M  V30 8 2 8 9
M  V30 9 1 9 10
M  V30 10 1 10 11
M  V30 11 2 11 12
M  V30 12 1 12 13
M  V30 13 2 13 14
M  V30 14 1 14 15
M  V30 15 2 15 16
M  V30 16 1 16 17
M  V30 17 2 17 18
M  V30 18 1 18 19
M  V30 19 1 19 20
M  V30 20 2 19 21
M  V30 21 1 21 22
M  V30 22 1 22 23
M  V30 23 1 23 24
M  V30 24 1 24 25
M  V30 25 1 25 26
M  V30 26 1 26 27
M  V30 27 1 22 28
M  V30 28 2 28 29
M  V30 29 1 9 30
M  V30 30 2 30 31
M  V30 31 1 5 32
M  V30 32 1 32 33
M  V30 33 1 33 34
M  V30 34 1 34 3
M  V30 35 1 31 6
M  V30 36 1 29 11
M  V30 37 1 28 14
M  V30 38 1 21 15
M  V30 39 1 27 23
M  V30 40 1 1 35
M  V30 41 1 2 36
M  V30 42 1 2 37
M  V30 43 1 3 38 CFG=3
M  V30 44 1 4 39
M  V30 45 1 4 40
M  V30 46 1 7 41
M  V30 47 1 8 42
M  V30 48 1 10 43
M  V30 49 1 13 44
M  V30 50 1 16 45
M  V30 51 1 17 46
M  V30 52 1 23 47
M  V30 53 1 24 48
M  V30 54 1 24 49
M  V30 55 1 25 50
M  V30 56 1 25 51
M  V30 57 1 26 52
M  V30 58 1 26 53
M  V30 59 1 27 54
M  V30 60 1 27 55
M  V30 61 1 31 56
M  V30 62 1 32 57
M  V30 63 1 32 58
M  V30 64 1 33 59
M  V30 65 1 33 60
M  V30 66 1 34 61
M  V30 END BOND
M  V30 END CTAB
M  END
>  <Dataset>  (280) 
ChEMBL_Kinases

>  <Ligand_Instance>  (280) 
nan

>  <PDB_ID>  (280) 
nan

>  <Standardized_SMILES>  (280) 
OC[C@@H]1CN(c2ccc(Nc3ncc4c5ccnc(F)c5n(C5CCCC5)c4n3)nc2)CCN1

>  <Name>  (280) 
nan

>  <Pocket>  (280) 
nan

>  <ATP_Site>  (280) 
nan

>  <Peripheral>  (280) 
nan

>  <Num_H_Atoms_ProtBoundConf>  (280) 
nan

>  <Num_Resolved_Atoms>  (280) 
nan

>  <Num_Not_Resolved_Atoms>  (280) 
nan

$$$$
CHEMBL3958235
     RDKit          3D

  0  0  0  0  0  0  0  0  0  0999 V3000
M  V30 BEGIN CTAB
M  V30 COUNTS 70 73 0 0 0
M  V30 BEGIN ATOM
M  V30 1 C -1.749564 1.044860 3.497856 0
M  V30 2 C -0.361486 0.587967 3.196395 0
M  V30 3 C 0.536995 0.807666 4.246056 0
M  V30 4 C 1.845396 0.380754 3.983514 0
M  V30 5 C 2.243965 -0.215280 2.786043 0
M  V30 6 N 3.605430 -0.597965 2.656996 0
M  V30 7 C 4.386511 -1.754095 2.927015 0
M  V30 8 O 3.888968 -2.801993 3.410763 0
M  V30 9 C 5.808165 -1.694046 2.623443 0
M  V30 10 C 6.514029 -2.845954 2.897243 0
M  V30 11 C 7.886928 -2.880782 2.638259 0
M  V30 12 C 8.536713 -1.772624 2.111883 0
M  V30 13 C 7.825525 -0.607397 1.834625 0
M  V30 14 C 8.455345 0.629984 1.266119 0
M  V30 15 F 9.189407 1.285237 2.247870 0
M  V30 16 F 7.454396 1.432132 0.781522 0
M  V30 17 F 9.323523 0.348228 0.238024 0
M  V30 18 C 6.470880 -0.626681 2.109332 0
M  V30 19 C 1.301586 -0.396827 1.802202 0
M  V30 20 C -0.023379 0.004389 1.993274 0
M  V30 21 C -1.016507 -0.188429 0.938782 0
M  V30 22 C -1.094177 -1.416369 0.314672 0
M  V30 23 C -2.040235 -1.563940 -0.676276 0
M  V30 24 O -2.083337 -2.813780 -1.276408 0
M  V30 25 C -3.058332 -3.005539 -2.312295 0
M  V30 26 C -2.970597 -4.419649 -2.854028 0
M  V30 27 O -3.932914 -4.559006 -3.853865 0
M  V30 28 P -3.856347 -6.160425 -4.418733 0
M  V30 29 O -3.939252 -7.129948 -3.257216 0
M  V30 30 O -2.463288 -6.462075 -5.295835 0
M  V30 31 O -5.189283 -6.482539 -5.430506 0
M  V30 32 N -2.883850 -0.554635 -1.050951 0
M  V30 33 C -2.818859 0.648409 -0.451601 0
M  V30 34 N -3.743725 1.613892 -0.919324 0
M  V30 35 C -4.874685 1.109098 -1.717779 0
M  V30 36 C -6.067357 1.961662 -1.344401 0
M  V30 37 O -5.954850 2.329903 -0.010315 0
M  V30 38 C -5.054117 3.418675 0.075764 0
M  V30 39 C -3.858268 3.046166 -0.810084 0 CFG=1
M  V30 40 C -2.626195 3.748997 -0.321337 0
M  V30 41 C -1.886190 0.794303 0.526075 0
M  V30 42 H -2.462302 0.425211 2.917395 0
M  V30 43 H -1.991168 0.850659 4.586665 0
M  V30 44 H -1.894955 2.122823 3.377688 0
M  V30 45 H 0.274278 1.257162 5.171714 0
M  V30 46 H 2.593063 0.525829 4.767281 0
M  V30 47 H 3.932871 0.308821 2.258873 0
M  V30 48 H 6.077461 -3.742602 3.305722 0
M  V30 49 H 8.469795 -3.777307 2.844626 0
M  V30 50 H 9.602577 -1.766737 1.899867 0
M  V30 51 H 5.930245 0.260495 1.898175 0
M  V30 52 H 1.581537 -0.853042 0.870961 0
M  V30 53 H -0.437335 -2.212869 0.601851 0
M  V30 54 H -2.908370 -2.297878 -3.154710 0
M  V30 55 H -4.085668 -2.878621 -1.911062 0
M  V30 56 H -3.213781 -5.096742 -1.996286 0
M  V30 57 H -1.993714 -4.654245 -3.299164 0
M  V30 58 H -1.710653 -6.747288 -4.722818 0
M  V30 59 H -5.474296 -7.422568 -5.374254 0
M  V30 60 H -4.608863 1.303679 -2.760295 0
M  V30 61 H -5.051572 0.040280 -1.483156 0
M  V30 62 H -7.032837 1.450179 -1.552808 0
M  V30 63 H -6.002999 2.890888 -1.981086 0
M  V30 64 H -5.494770 4.324850 -0.367310 0
M  V30 65 H -4.719496 3.547638 1.104163 0
M  V30 66 H -4.049811 3.441056 -1.856981 0
M  V30 67 H -1.688575 3.342911 -0.700118 0
M  V30 68 H -2.654227 4.807707 -0.738744 0
M  V30 69 H -2.623626 3.941956 0.785224 0
M  V30 70 H -1.807999 1.731087 1.024319 0
M  V30 END ATOM
M  V30 BEGIN BOND
M  V30 1 1 1 2
M  V30 2 2 2 3
M  V30 3 1 3 4
M  V30 4 2 4 5
M  V30 5 1 5 6
M  V30 6 1 6 7
M  V30 7 2 7 8
M  V30 8 1 7 9
M  V30 9 2 9 10
M  V30 10 1 10 11
M  V30 11 2 11 12
M  V30 12 1 12 13
M  V30 13 1 13 14
M  V30 14 1 14 15
M  V30 15 1 14 16
M  V30 16 1 14 17
M  V30 17 2 13 18
M  V30 18 1 5 19
M  V30 19 2 19 20
M  V30 20 1 20 21
M  V30 21 2 21 22
M  V30 22 1 22 23
M  V30 23 1 23 24
M  V30 24 1 24 25
M  V30 25 1 25 26
M  V30 26 1 26 27
M  V30 27 1 27 28
M  V30 28 2 28 29
M  V30 29 1 28 30
M  V30 30 1 28 31
M  V30 31 2 23 32
M  V30 32 1 32 33
M  V30 33 1 33 34
M  V30 34 1 34 35
M  V30 35 1 35 36
M  V30 36 1 36 37
M  V30 37 1 37 38
M  V30 38 1 38 39
M  V30 39 1 39 40
M  V30 40 2 33 41
M  V30 41 1 20 2
M  V30 42 1 41 21
M  V30 43 1 18 9
M  V30 44 1 39 34
M  V30 45 1 1 42
M  V30 46 1 1 43
M  V30 47 1 1 44
M  V30 48 1 3 45
M  V30 49 1 4 46
M  V30 50 1 6 47
M  V30 51 1 10 48
M  V30 52 1 11 49
M  V30 53 1 12 50
M  V30 54 1 18 51
M  V30 55 1 19 52
M  V30 56 1 22 53
M  V30 57 1 25 54
M  V30 58 1 25 55
M  V30 59 1 26 56
M  V30 60 1 26 57
M  V30 61 1 30 58
M  V30 62 1 31 59
M  V30 63 1 35 60
M  V30 64 1 35 61
M  V30 65 1 36 62
M  V30 66 1 36 63
M  V30 67 1 38 64
M  V30 68 1 38 65
M  V30 69 1 39 66 CFG=3
M  V30 70 1 40 67
M  V30 71 1 40 68
M  V30 72 1 40 69
M  V30 73 1 41 70
M  V30 END BOND
M  V30 END CTAB
M  END
>  <Dataset>  (281) 
ChEMBL_Kinases

>  <Ligand_Instance>  (281) 
nan

>  <PDB_ID>  (281) 
nan

>  <Standardized_SMILES>  (281) 
Cc1ccc(NC(=O)c2cccc(C(F)(F)F)c2)cc1-c1cc(OCCOP(=O)(O)O)nc(N2CCOC[C@H]2C)c1

>  <Name>  (281) 
nan

>  <Pocket>  (281) 
nan

>  <ATP_Site>  (281) 
nan

>  <Peripheral>  (281) 
nan

>  <Num_H_Atoms_ProtBoundConf>  (281) 
nan

>  <Num_Resolved_Atoms>  (281) 
nan

>  <Num_Not_Resolved_Atoms>  (281) 
nan

$$$$
CHEMBL771
     RDKit          3D

  0  0  0  0  0  0  0  0  0  0999 V3000
M  V30 BEGIN CTAB
M  V30 COUNTS 13 13 0 0 0
M  V30 BEGIN ATOM
M  V30 1 N 0.751173 0.104100 2.247777 0
M  V30 2 C 0.988752 0.127630 0.827687 0 CFG=2
M  V30 3 C 0.250754 -0.964604 0.076410 0
M  V30 4 O 0.949942 -1.107482 -1.092833 0
M  V30 5 N 2.246782 -0.834255 -0.838749 0
M  V30 6 C 2.396020 -0.287463 0.487538 0
M  V30 7 O 3.521403 -0.257248 1.050645 0
M  V30 8 H 0.533287 1.007951 2.680060 0
M  V30 9 H 0.197977 -0.685353 2.593119 0
M  V30 10 H 0.758208 1.066344 0.329418 0
M  V30 11 H -0.791259 -0.647189 -0.143117 0
M  V30 12 H 0.247191 -1.935279 0.621281 0
M  V30 13 H 2.992436 -1.013447 -1.539088 0
M  V30 END ATOM
M  V30 BEGIN BOND
M  V30 1 1 1 2
M  V30 2 1 2 3
M  V30 3 1 3 4
M  V30 4 1 4 5
M  V30 5 1 5 6
M  V30 6 2 6 7
M  V30 7 1 6 2
M  V30 8 1 1 8
M  V30 9 1 1 9
M  V30 10 1 2 10 CFG=3
M  V30 11 1 3 11
M  V30 12 1 3 12
M  V30 13 1 5 13
M  V30 END BOND
M  V30 END CTAB
M  END
>  <Dataset>  (282) 
ChEMBL_Kinases

>  <Ligand_Instance>  (282) 
nan

>  <PDB_ID>  (282) 
nan

>  <Standardized_SMILES>  (282) 
N[C@@H]1CONC1=O

>  <Name>  (282) 
CYCLOSERINE

>  <Pocket>  (282) 
nan

>  <ATP_Site>  (282) 
nan

>  <Peripheral>  (282) 
nan

>  <Num_H_Atoms_ProtBoundConf>  (282) 
nan

>  <Num_Resolved_Atoms>  (282) 
nan

>  <Num_Not_Resolved_Atoms>  (282) 
nan

$$$$
CHEMBL4874005
     RDKit          3D

  0  0  0  0  0  0  0  0  0  0999 V3000
M  V30 BEGIN CTAB
M  V30 COUNTS 26 28 0 0 0
M  V30 BEGIN ATOM
M  V30 1 O 0.059154 -5.258337 1.648638 0
M  V30 2 C -0.309093 -4.469742 0.739423 0
M  V30 3 O -0.947320 -4.992341 -0.378164 0
M  V30 4 C -0.067962 -3.032540 0.860986 0
M  V30 5 C 0.571400 -2.567294 1.994650 0
M  V30 6 C 0.802075 -1.197475 2.112188 0
M  V30 7 C 0.396209 -0.345653 1.114355 0
M  V30 8 C -0.240544 -0.824949 -0.010819 0
M  V30 9 C -0.484545 -2.195752 -0.154095 0
M  V30 10 C -0.686609 -0.055802 -1.067000 0
M  V30 11 C -0.457637 1.301840 -0.949851 0
M  V30 12 Cl -0.993288 2.349542 -2.248241 0
M  V30 13 C 0.176700 1.815802 0.162204 0
M  V30 14 C 0.358182 3.183816 0.184228 0
M  V30 15 C 1.001788 3.662896 1.322795 0
M  V30 16 N 1.414928 2.864577 2.321856 0
M  V30 17 C 1.238252 1.523784 2.302605 0
M  V30 18 C 0.605856 1.010379 1.194219 0
M  V30 19 H -1.548156 -5.825787 -0.304116 0
M  V30 20 H 0.879964 -3.260638 2.764369 0
M  V30 21 H 1.292427 -0.906949 2.997718 0
M  V30 22 H -0.983323 -2.634997 -1.019984 0
M  V30 23 H -1.180843 -0.479311 -1.927846 0
M  V30 24 H 0.057370 3.885004 -0.572285 0
M  V30 25 H 1.213052 4.730044 1.475840 0
M  V30 26 H 1.607920 0.982956 3.154473 0
M  V30 END ATOM
M  V30 BEGIN BOND
M  V30 1 2 1 2
M  V30 2 1 2 3
M  V30 3 1 2 4
M  V30 4 2 4 5
M  V30 5 1 5 6
M  V30 6 2 6 7
M  V30 7 1 7 8
M  V30 8 2 8 9
M  V30 9 1 8 10
M  V30 10 2 10 11
M  V30 11 1 11 12
M  V30 12 1 11 13
M  V30 13 2 13 14
M  V30 14 1 14 15
M  V30 15 2 15 16
M  V30 16 1 16 17
M  V30 17 2 17 18
M  V30 18 1 9 4
M  V30 19 1 18 13
M  V30 20 1 18 7
M  V30 21 1 3 19
M  V30 22 1 5 20
M  V30 23 1 6 21
M  V30 24 1 9 22
M  V30 25 1 10 23
M  V30 26 1 14 24
M  V30 27 1 15 25
M  V30 28 1 17 26
M  V30 END BOND
M  V30 END CTAB
M  END
>  <Dataset>  (283) 
ChEMBL_Kinases

>  <Ligand_Instance>  (283) 
nan

>  <PDB_ID>  (283) 
nan

>  <Standardized_SMILES>  (283) 
O=C(O)c1ccc2c(c1)cc(Cl)c1ccncc12

>  <Name>  (283) 
nan

>  <Pocket>  (283) 
nan

>  <ATP_Site>  (283) 
nan

>  <Peripheral>  (283) 
nan

>  <Num_H_Atoms_ProtBoundConf>  (283) 
nan

>  <Num_Resolved_Atoms>  (283) 
nan

>  <Num_Not_Resolved_Atoms>  (283) 
nan

$$$$
CHEMBL4874017
     RDKit          3D

  0  0  0  0  0  0  0  0  0  0999 V3000
M  V30 BEGIN CTAB
M  V30 COUNTS 44 47 0 0 0
M  V30 BEGIN ATOM
M  V30 1 C 4.877385 -1.994586 2.664833 0
M  V30 2 O 4.283477 -0.969741 1.903974 0
M  V30 3 C 3.839319 0.208616 2.462088 0
M  V30 4 C 3.907565 0.544690 3.791406 0
M  V30 5 C 3.453474 1.732925 4.316703 0
M  V30 6 C 2.898297 2.623039 3.418715 0
M  V30 7 C 2.818918 2.310890 2.087530 0
M  V30 8 C 3.277125 1.109625 1.552708 0
M  V30 9 N 3.151078 0.892962 0.154743 0
M  V30 10 S 2.166223 1.718567 -0.997550 0
M  V30 11 O 2.391037 1.089307 -2.335367 0
M  V30 12 O 2.486813 3.184031 -1.040695 0
M  V30 13 C 0.496800 1.480152 -0.528187 0
M  V30 14 C -0.300990 2.293367 0.248316 0
M  V30 15 C -1.604458 1.934529 0.519610 0
M  V30 16 C -2.184210 0.774723 0.048898 0
M  V30 17 C -1.407859 -0.058689 -0.731817 0
M  V30 18 C -1.968783 -1.301726 -1.258859 0
M  V30 19 N -1.813967 -1.737418 -2.544238 0
M  V30 20 N -2.431903 -2.886249 -2.719671 0
M  V30 21 C -3.030039 -3.272118 -1.555308 0
M  V30 22 C -3.790294 -4.365874 -1.183814 0
M  V30 23 C -4.258456 -4.448381 0.130841 0
M  V30 24 F -4.996308 -5.529832 0.454778 0
M  V30 25 C -3.949894 -3.428787 1.037758 0
M  V30 26 C -3.189922 -2.343052 0.652423 0
M  V30 27 C -2.737059 -2.276177 -0.643045 0
M  V30 28 C -0.105803 0.319454 -0.991066 0
M  V30 29 H 5.966467 -1.924824 2.723707 0
M  V30 30 H 4.490069 -2.063259 3.695082 0
M  V30 31 H 4.654767 -2.988494 2.202082 0
M  V30 32 H 4.349114 -0.178587 4.463081 0
M  V30 33 H 3.545522 1.915328 5.368957 0
M  V30 34 H 2.543694 3.556901 3.845113 0
M  V30 35 H 2.374671 3.082379 1.500190 0
M  V30 36 H 3.782800 0.093594 -0.157549 0
M  V30 37 H 0.186269 3.193389 0.595327 0
M  V30 38 H -2.187594 2.614797 1.138107 0
M  V30 39 H -3.213766 0.558217 0.302758 0
M  V30 40 H -2.494412 -3.466577 -3.590155 0
M  V30 41 H -4.016773 -5.144255 -1.904636 0
M  V30 42 H -4.337695 -3.555347 2.019806 0
M  V30 43 H -2.971174 -1.575335 1.377865 0
M  V30 44 H 0.448362 -0.392991 -1.617857 0
M  V30 END ATOM
M  V30 BEGIN BOND
M  V30 1 1 1 2
M  V30 2 1 2 3
M  V30 3 2 3 4
M  V30 4 1 4 5
M  V30 5 2 5 6
M  V30 6 1 6 7
M  V30 7 2 7 8
M  V30 8 1 8 9
M  V30 9 1 9 10
M  V30 10 2 10 11
M  V30 11 2 10 12
M  V30 12 1 10 13
M  V30 13 2 13 14
M  V30 14 1 14 15
M  V30 15 2 15 16
M  V30 16 1 16 17
M  V30 17 1 17 18
M  V30 18 2 18 19
M  V30 19 1 19 20
M  V30 20 1 20 21
M  V30 21 2 21 22
M  V30 22 1 22 23
M  V30 23 1 23 24
M  V30 24 2 23 25
M  V30 25 1 25 26
M  V30 26 2 26 27
M  V30 27 2 17 28
M  V30 28 1 8 3
M  V30 29 1 28 13
M  V30 30 1 27 18
M  V30 31 1 27 21
M  V30 32 1 1 29
M  V30 33 1 1 30
M  V30 34 1 1 31
M  V30 35 1 4 32
M  V30 36 1 5 33
M  V30 37 1 6 34
M  V30 38 1 7 35
M  V30 39 1 9 36
M  V30 40 1 14 37
M  V30 41 1 15 38
M  V30 42 1 16 39
M  V30 43 1 20 40
M  V30 44 1 22 41
M  V30 45 1 25 42
M  V30 46 1 26 43
M  V30 47 1 28 44
M  V30 END BOND
M  V30 END CTAB
M  END
>  <Dataset>  (284) 
ChEMBL_Kinases

>  <Ligand_Instance>  (284) 
nan

>  <PDB_ID>  (284) 
nan

>  <Standardized_SMILES>  (284) 
COc1ccccc1NS(=O)(=O)c1cccc(-c2n[nH]c3cc(F)ccc23)c1

>  <Name>  (284) 
nan

>  <Pocket>  (284) 
nan

>  <ATP_Site>  (284) 
nan

>  <Peripheral>  (284) 
nan

>  <Num_H_Atoms_ProtBoundConf>  (284) 
nan

>  <Num_Resolved_Atoms>  (284) 
nan

>  <Num_Not_Resolved_Atoms>  (284) 
nan

$$$$
CHEMBL3957803
     RDKit          3D

  0  0  0  0  0  0  0  0  0  0999 V3000
M  V30 BEGIN CTAB
M  V30 COUNTS 40 43 0 0 0
M  V30 BEGIN ATOM
M  V30 1 O 1.325081 -8.438280 2.846859 0
M  V30 2 C 1.032062 -7.121520 2.512559 0
M  V30 3 C -0.036780 -6.487162 3.117123 0
M  V30 4 C -0.378292 -5.179772 2.826903 0
M  V30 5 C 0.347411 -4.444665 1.906294 0
M  V30 6 C 0.071601 -3.062122 1.529179 0
M  V30 7 C 1.157600 -2.270997 1.161658 0
M  V30 8 C 0.917691 -0.947543 0.798015 0
M  V30 9 C -0.352555 -0.408134 0.792999 0
M  V30 10 C -0.827890 0.848924 0.477832 0
M  V30 11 C -0.054322 2.005685 0.040098 0
M  V30 12 C -0.591671 3.161088 -0.237598 0
M  V30 13 C 0.096991 4.366927 -0.679612 0
M  V30 14 C -0.598759 5.527879 -0.939081 0
M  V30 15 C 0.023944 6.684181 -1.358270 0
M  V30 16 C 1.396900 6.729701 -1.539502 0
M  V30 17 C 2.087971 5.564018 -1.278035 0
M  V30 18 C 1.461740 4.397251 -0.855305 0
M  V30 19 N -2.160106 0.796656 0.655995 0
M  V30 20 N -2.528374 -0.418888 1.061858 0
M  V30 21 C -1.419523 -1.205967 1.160175 0
M  V30 22 C -1.211918 -2.540249 1.530994 0
M  V30 23 C 1.421353 -5.115043 1.313290 0
M  V30 24 C 1.775322 -6.410825 1.588150 0
M  V30 25 H 1.883607 -9.046434 2.263453 0
M  V30 26 H -0.619412 -7.042259 3.840547 0
M  V30 27 H -1.228086 -4.668204 3.304237 0
M  V30 28 H 2.179094 -2.588112 1.131010 0
M  V30 29 H 1.732604 -0.297240 0.505254 0
M  V30 30 H 1.018802 1.921681 -0.065586 0
M  V30 31 H -1.674971 3.198224 -0.116338 0
M  V30 32 H -1.690380 5.590711 -0.824124 0
M  V30 33 H -0.575151 7.586415 -1.552875 0
M  V30 34 H 1.871127 7.641116 -1.868006 0
M  V30 35 H 3.168132 5.661171 -1.438661 0
M  V30 36 H 2.083190 3.540762 -0.677163 0
M  V30 37 H -3.505859 -0.732298 1.274297 0
M  V30 38 H -2.051260 -3.155627 1.816376 0
M  V30 39 H 2.041422 -4.607767 0.579707 0
M  V30 40 H 2.615145 -6.881730 1.101121 0
M  V30 END ATOM
M  V30 BEGIN BOND
M  V30 1 1 1 2
M  V30 2 2 2 3
M  V30 3 1 3 4
M  V30 4 2 4 5
M  V30 5 1 5 6
M  V30 6 2 6 7
M  V30 7 1 7 8
M  V30 8 2 8 9
M  V30 9 1 9 10
M  V30 10 1 10 11
M  V30 11 2 11 12
M  V30 12 1 12 13
M  V30 13 2 13 14
M  V30 14 1 14 15
M  V30 15 2 15 16
M  V30 16 1 16 17
M  V30 17 2 17 18
M  V30 18 2 10 19
M  V30 19 1 19 20
M  V30 20 1 20 21
M  V30 21 2 21 22
M  V30 22 1 5 23
M  V30 23 2 23 24
M  V30 24 1 24 2
M  V30 25 1 22 6
M  V30 26 1 21 9
M  V30 27 1 18 13
M  V30 28 1 1 25
M  V30 29 1 3 26
M  V30 30 1 4 27
M  V30 31 1 7 28
M  V30 32 1 8 29
M  V30 33 1 11 30
M  V30 34 1 12 31
M  V30 35 1 14 32
M  V30 36 1 15 33
M  V30 37 1 16 34
M  V30 38 1 17 35
M  V30 39 1 18 36
M  V30 40 1 20 37
M  V30 41 1 22 38
M  V30 42 1 23 39
M  V30 43 1 24 40
M  V30 END BOND
M  V30 END CTAB
M  END
>  <Dataset>  (285) 
ChEMBL_Kinases

>  <Ligand_Instance>  (285) 
nan

>  <PDB_ID>  (285) 
nan

>  <Standardized_SMILES>  (285) 
Oc1ccc(-c2ccc3c(/C=C/c4ccccc4)n[nH]c3c2)cc1

>  <Name>  (285) 
nan

>  <Pocket>  (285) 
nan

>  <ATP_Site>  (285) 
nan

>  <Peripheral>  (285) 
nan

>  <Num_H_Atoms_ProtBoundConf>  (285) 
nan

>  <Num_Resolved_Atoms>  (285) 
nan

>  <Num_Not_Resolved_Atoms>  (285) 
nan

$$$$
CHEMBL395775
     RDKit          3D

  0  0  0  0  0  0  0  0  0  0999 V3000
M  V30 BEGIN CTAB
M  V30 COUNTS 58 61 0 0 0
M  V30 BEGIN ATOM
M  V30 1 C 5.789991 -6.132927 3.040961 0
M  V30 2 O 6.672575 -5.115523 2.607390 0
M  V30 3 C 6.192922 -3.999971 1.924478 0
M  V30 4 C 4.839277 -3.803924 1.621804 0
M  V30 5 C 4.465504 -2.657362 0.937224 0
M  V30 6 C 3.034963 -2.562050 0.674832 0
M  V30 7 C 2.312635 -3.733890 0.468541 0
M  V30 8 C 0.945930 -3.748288 0.211570 0
M  V30 9 C 0.276933 -2.549476 0.158877 0
M  V30 10 C 0.971321 -1.357267 0.361370 0
M  V30 11 C 2.333340 -1.374948 0.615385 0
M  V30 12 N 0.498197 -0.005716 0.356088 0
M  V30 13 C -0.710934 0.418994 -0.266233 0
M  V30 14 C -0.668504 1.759253 -0.604766 0
M  V30 15 C -1.770829 2.322153 -1.219257 0
M  V30 16 C -2.938233 1.612008 -1.522700 0
M  V30 17 C -3.983312 2.392809 -2.181437 0
M  V30 18 C -4.935069 3.099795 -1.255665 0
M  V30 19 C -5.655063 2.156866 -0.390502 0
M  V30 20 O -5.851264 0.962297 -0.063041 0
M  V30 21 N -6.578492 2.692533 0.547873 0
M  V30 22 C -7.354143 1.867155 1.458387 0
M  V30 23 C -6.820529 4.126448 0.670951 0
M  V30 24 C -2.928074 0.280136 -1.164251 0
M  V30 25 C -1.849765 -0.318206 -0.550395 0
M  V30 26 N -2.123912 -1.691754 -0.301800 0
M  V30 27 C -1.163095 -2.728753 -0.122793 0
M  V30 28 O -1.587566 -3.911481 -0.214537 0
M  V30 29 C 5.376615 -1.692562 0.537590 0
M  V30 30 C 6.719467 -1.875775 0.831393 0
M  V30 31 C 7.078242 -3.021735 1.513488 0
M  V30 32 N 8.469987 -3.226143 1.824882 0
M  V30 33 H 5.248399 -5.749068 3.930885 0
M  V30 34 H 6.336856 -7.062540 3.269561 0
M  V30 35 H 5.137245 -6.362784 2.176928 0
M  V30 36 H 4.178649 -4.577480 1.951912 0
M  V30 37 H 2.758452 -4.715620 0.493210 0
M  V30 38 H 0.376163 -4.640741 0.050750 0
M  V30 39 H 2.860593 -0.456245 0.769979 0
M  V30 40 H 1.051029 0.720788 0.825389 0
M  V30 41 H 0.221644 2.304987 -0.374645 0
M  V30 42 H -1.638126 3.379083 -1.444304 0
M  V30 43 H -3.518088 3.108464 -2.890984 0
M  V30 44 H -4.642003 1.739439 -2.830841 0
M  V30 45 H -5.637059 3.679235 -1.919809 0
M  V30 46 H -4.417104 3.867722 -0.625635 0
M  V30 47 H -7.276462 2.245923 2.508414 0
M  V30 48 H -8.447841 1.868821 1.199735 0
M  V30 49 H -7.033966 0.808750 1.442980 0
M  V30 50 H -6.104191 4.625573 1.348541 0
M  V30 51 H -6.779888 4.581393 -0.357915 0
M  V30 52 H -7.842333 4.338166 1.054344 0
M  V30 53 H -3.812301 -0.257710 -1.397914 0
M  V30 54 H -3.129931 -1.954218 -0.247836 0
M  V30 55 H 4.975372 -0.834036 0.007771 0
M  V30 56 H 7.410601 -1.119795 0.514353 0
M  V30 57 H 9.136423 -3.928403 1.390200 0
M  V30 58 H 9.273364 -3.830253 1.536488 0
M  V30 END ATOM
M  V30 BEGIN BOND
M  V30 1 1 1 2
M  V30 2 1 2 3
M  V30 3 2 3 4
M  V30 4 1 4 5
M  V30 5 1 5 6
M  V30 6 2 6 7
M  V30 7 1 7 8
M  V30 8 2 8 9
M  V30 9 1 9 10
M  V30 10 2 10 11
M  V30 11 1 10 12
M  V30 12 1 12 13
M  V30 13 2 13 14
M  V30 14 1 14 15
M  V30 15 2 15 16
M  V30 16 1 16 17
M  V30 17 1 17 18
M  V30 18 1 18 19
M  V30 19 2 19 20
M  V30 20 1 19 21
M  V30 21 1 21 22
M  V30 22 1 21 23
M  V30 23 1 16 24
M  V30 24 2 24 25
M  V30 25 1 25 26
M  V30 26 1 26 27
M  V30 27 2 27 28
M  V30 28 2 5 29
M  V30 29 1 29 30
M  V30 30 2 30 31
M  V30 31 1 31 32
M  V30 32 1 31 3
M  V30 33 1 11 6
M  V30 34 1 25 13
M  V30 35 1 27 9
M  V30 36 1 1 33
M  V30 37 1 1 34
M  V30 38 1 1 35
M  V30 39 1 4 36
M  V30 40 1 7 37
M  V30 41 1 8 38
M  V30 42 1 11 39
M  V30 43 1 12 40
M  V30 44 1 14 41
M  V30 45 1 15 42
M  V30 46 1 17 43
M  V30 47 1 17 44
M  V30 48 1 18 45
M  V30 49 1 18 46
M  V30 50 1 22 47
M  V30 51 1 22 48
M  V30 52 1 22 49
M  V30 53 1 23 50
M  V30 54 1 23 51
M  V30 55 1 23 52
M  V30 56 1 24 53
M  V30 57 1 26 54
M  V30 58 1 29 55
M  V30 59 1 30 56
M  V30 60 1 32 57
M  V30 61 1 32 58
M  V30 END BOND
M  V30 END CTAB
M  END
>  <Dataset>  (286) 
ChEMBL_Kinases

>  <Ligand_Instance>  (286) 
nan

>  <PDB_ID>  (286) 
nan

>  <Standardized_SMILES>  (286) 
COc1cc(-c2ccc3c(c2)Nc2ccc(CCC(=O)N(C)C)cc2NC3=O)ccc1N

>  <Name>  (286) 
nan

>  <Pocket>  (286) 
nan

>  <ATP_Site>  (286) 
nan

>  <Peripheral>  (286) 
nan

>  <Num_H_Atoms_ProtBoundConf>  (286) 
nan

>  <Num_Resolved_Atoms>  (286) 
nan

>  <Num_Not_Resolved_Atoms>  (286) 
nan

$$$$
CHEMBL395766
     RDKit          3D

  0  0  0  0  0  0  0  0  0  0999 V3000
M  V30 BEGIN CTAB
M  V30 COUNTS 37 40 0 0 0
M  V30 BEGIN ATOM
M  V30 1 C 3.486364 -1.036168 3.174163 0
M  V30 2 C 2.261914 -1.818970 2.856815 0
M  V30 3 O 2.202860 -3.016805 3.276045 0
M  V30 4 O 1.255272 -1.236914 2.136840 0
M  V30 5 N 0.077862 -1.820968 1.768508 0
M  V30 6 C -0.434798 -1.761889 0.602655 0
M  V30 7 C 0.242210 -1.025684 -0.385252 0
M  V30 8 C 0.908022 0.073357 -0.479894 0
M  V30 9 C 1.638168 0.823805 -1.475827 0
M  V30 10 O 1.908932 0.177088 -2.536972 0
M  V30 11 N 1.918394 2.148466 -1.083029 0
M  V30 12 C 1.332340 2.255110 0.231854 0
M  V30 13 C 1.351538 3.453305 0.907481 0
M  V30 14 Br 2.222968 5.036646 0.317498 0
M  V30 15 C 0.698700 3.526077 2.111176 0
M  V30 16 C 0.054537 2.407954 2.590635 0
M  V30 17 C 0.119701 1.291969 1.819957 0
M  V30 18 C 0.735088 1.076536 0.613378 0
M  V30 19 N -0.347508 -1.543932 -1.634940 0
M  V30 20 C -1.343317 -2.541054 -1.274667 0
M  V30 21 C -2.167735 -3.301022 -2.090154 0
M  V30 22 C -3.052136 -4.196139 -1.527623 0
M  V30 23 C -3.148457 -4.366118 -0.161634 0
M  V30 24 C -2.322100 -3.602824 0.625008 0
M  V30 25 C -1.432629 -2.706290 0.123268 0
M  V30 26 H 3.677313 -1.230065 4.270141 0
M  V30 27 H 4.383591 -1.358214 2.642902 0
M  V30 28 H 3.294779 0.064939 3.121905 0
M  V30 29 H 2.441922 2.804057 -1.700032 0
M  V30 30 H 0.685330 4.438230 2.677954 0
M  V30 31 H -0.442688 2.501098 3.523031 0
M  V30 32 H -0.494864 0.535336 2.288876 0
M  V30 33 H -0.144888 -1.297337 -2.644379 0
M  V30 34 H -2.139372 -3.213089 -3.174207 0
M  V30 35 H -3.720413 -4.815754 -2.124052 0
M  V30 36 H -3.810102 -5.040968 0.354753 0
M  V30 37 H -2.299152 -3.640196 1.700791 0
M  V30 END ATOM
M  V30 BEGIN BOND
M  V30 1 1 1 2
M  V30 2 2 2 3
M  V30 3 1 2 4
M  V30 4 1 4 5
M  V30 5 2 5 6
M  V30 6 1 6 7
M  V30 7 2 7 8
M  V30 8 1 8 9
M  V30 9 2 9 10
M  V30 10 1 9 11
M  V30 11 1 11 12
M  V30 12 2 12 13
M  V30 13 1 13 14
M  V30 14 1 13 15
M  V30 15 2 15 16
M  V30 16 1 16 17
M  V30 17 2 17 18
M  V30 18 1 7 19
M  V30 19 1 19 20
M  V30 20 2 20 21
M  V30 21 1 21 22
M  V30 22 2 22 23
M  V30 23 1 23 24
M  V30 24 2 24 25
M  V30 25 1 25 6
M  V30 26 1 18 8
M  V30 27 1 25 20
M  V30 28 1 18 12
M  V30 29 1 1 26
M  V30 30 1 1 27
M  V30 31 1 1 28
M  V30 32 1 11 29
M  V30 33 1 15 30
M  V30 34 1 16 31
M  V30 35 1 17 32
M  V30 36 1 19 33
M  V30 37 1 21 34
M  V30 38 1 22 35
M  V30 39 1 23 36
M  V30 40 1 24 37
M  V30 END BOND
M  V30 END CTAB
M  END
>  <Dataset>  (287) 
ChEMBL_Kinases

>  <Ligand_Instance>  (287) 
nan

>  <PDB_ID>  (287) 
nan

>  <Standardized_SMILES>  (287) 
CC(=O)O/N=C1C(=C2\C(=O)Nc3c(Br)cccc32)\Nc2ccccc2\1

>  <Name>  (287) 
nan

>  <Pocket>  (287) 
nan

>  <ATP_Site>  (287) 
nan

>  <Peripheral>  (287) 
nan

>  <Num_H_Atoms_ProtBoundConf>  (287) 
nan

>  <Num_Resolved_Atoms>  (287) 
nan

>  <Num_Not_Resolved_Atoms>  (287) 
nan

$$$$
CHEMBL395752
     RDKit          3D

  0  0  0  0  0  0  0  0  0  0999 V3000
M  V30 BEGIN CTAB
M  V30 COUNTS 57 61 0 0 0
M  V30 BEGIN ATOM
M  V30 1 C 3.858036 -4.401521 -0.701420 0
M  V30 2 C 3.725860 -3.180667 0.176756 0 CFG=1
M  V30 3 C 4.509554 -3.412956 1.437486 0
M  V30 4 C 5.083721 -2.178011 2.046304 0
M  V30 5 C 4.341746 -0.886699 1.794918 0 CFG=2
M  V30 6 N 3.424350 -0.719470 2.853679 0
M  V30 7 C 2.659644 0.432611 3.017803 0
M  V30 8 C 1.734549 0.851027 1.964913 0
M  V30 9 C 1.983753 1.765411 0.931314 0
M  V30 10 C 1.045380 2.095175 -0.017852 0
M  V30 11 C -0.211523 1.526510 0.007273 0
M  V30 12 C -0.527063 0.617970 0.996171 0
M  V30 13 C 0.458294 0.332663 1.914614 0
M  V30 14 C -1.920743 0.142591 0.825054 0
M  V30 15 C -2.395317 0.860422 -0.361727 0
M  V30 16 C -3.453728 1.069667 -1.223129 0
M  V30 17 C -4.748117 0.401434 -1.090903 0
M  V30 18 C -4.748313 -0.964643 -0.834681 0
M  V30 19 C -5.906338 -1.705080 -0.689599 0
M  V30 20 C -7.129597 -1.063870 -0.803309 0
M  V30 21 C -8.383663 -1.796005 -0.659218 0
M  V30 22 O -9.554037 -1.347980 -0.736890 0
M  V30 23 O -8.331496 -3.163017 -0.403156 0
M  V30 24 C -7.142335 0.296837 -1.058452 0
M  V30 25 C -5.979767 1.029294 -1.202062 0
M  V30 26 N -3.116510 1.958831 -2.174949 0
M  V30 27 N -1.863231 2.311700 -1.925533 0
M  V30 28 C -1.389677 1.672588 -0.840304 0
M  V30 29 C 3.761897 -0.804694 0.411220 0
M  V30 30 C 4.340321 -1.945210 -0.449746 0
M  V30 31 H 4.780665 -4.416329 -1.281400 0
M  V30 32 H 2.979913 -4.469057 -1.402553 0
M  V30 33 H 3.816973 -5.324816 -0.079872 0
M  V30 34 H 2.655979 -2.943885 0.385537 0
M  V30 35 H 3.829648 -3.941659 2.141069 0
M  V30 36 H 5.311392 -4.141235 1.191733 0
M  V30 37 H 6.133321 -2.092549 1.688480 0
M  V30 38 H 5.173728 -2.354352 3.140272 0
M  V30 39 H 5.084766 -0.063501 1.850033 0
M  V30 40 H 3.001592 -1.582898 3.240557 0
M  V30 41 H 3.245782 1.335988 3.362720 0
M  V30 42 H 1.994492 0.248337 3.923523 0
M  V30 43 H 2.987778 2.201162 0.935044 0
M  V30 44 H 1.335913 2.812333 -0.775239 0
M  V30 45 H 0.186624 -0.382712 2.680218 0
M  V30 46 H -2.584778 0.439685 1.676238 0
M  V30 47 H -1.988813 -0.958051 0.737570 0
M  V30 48 H -3.828612 -1.501909 -0.738839 0
M  V30 49 H -5.855098 -2.779220 -0.488415 0
M  V30 50 H -9.115844 -3.688438 -0.033326 0
M  V30 51 H -8.087773 0.793604 -1.146630 0
M  V30 52 H -5.955332 2.091935 -1.401495 0
M  V30 53 H -1.301171 2.994715 -2.486923 0
M  V30 54 H 2.689932 -0.937233 0.327672 0
M  V30 55 H 4.060266 0.113533 -0.124207 0
M  V30 56 H 3.953302 -1.748645 -1.464102 0
M  V30 57 H 5.431720 -2.013464 -0.371147 0
M  V30 END ATOM
M  V30 BEGIN BOND
M  V30 1 1 1 2
M  V30 2 1 2 3
M  V30 3 1 3 4
M  V30 4 1 4 5
M  V30 5 1 5 6
M  V30 6 1 6 7
M  V30 7 1 7 8
M  V30 8 2 8 9
M  V30 9 1 9 10
M  V30 10 2 10 11
M  V30 11 1 11 12
M  V30 12 2 12 13
M  V30 13 1 12 14
M  V30 14 1 14 15
M  V30 15 1 15 16
M  V30 16 1 16 17
M  V30 17 2 17 18
M  V30 18 1 18 19
M  V30 19 2 19 20
M  V30 20 1 20 21
M  V30 21 2 21 22
M  V30 22 1 21 23
M  V30 23 1 20 24
M  V30 24 2 24 25
M  V30 25 2 16 26
M  V30 26 1 26 27
M  V30 27 1 27 28
M  V30 28 1 5 29
M  V30 29 1 29 30
M  V30 30 1 30 2
M  V30 31 1 13 8
M  V30 32 2 28 15
M  V30 33 1 28 11
M  V30 34 1 25 17
M  V30 35 1 1 31
M  V30 36 1 1 32
M  V30 37 1 1 33
M  V30 38 1 2 34 CFG=1
M  V30 39 1 3 35
M  V30 40 1 3 36
M  V30 41 1 4 37
M  V30 42 1 4 38
M  V30 43 1 5 39 CFG=3
M  V30 44 1 6 40
M  V30 45 1 7 41
M  V30 46 1 7 42
M  V30 47 1 9 43
M  V30 48 1 10 44
M  V30 49 1 13 45
M  V30 50 1 14 46
M  V30 51 1 14 47
M  V30 52 1 18 48
M  V30 53 1 19 49
M  V30 54 1 23 50
M  V30 55 1 24 51
M  V30 56 1 25 52
M  V30 57 1 27 53
M  V30 58 1 29 54
M  V30 59 1 29 55
M  V30 60 1 30 56
M  V30 61 1 30 57
M  V30 END BOND
M  V30 END CTAB
M  END
>  <Dataset>  (288) 
ChEMBL_Kinases

>  <Ligand_Instance>  (288) 
nan

>  <PDB_ID>  (288) 
nan

>  <Standardized_SMILES>  (288) 
C[C@H]1CC[C@H](NCc2ccc3c(c2)Cc2c(-c4ccc(C(=O)O)cc4)n[nH]c2-3)CC1

>  <Name>  (288) 
nan

>  <Pocket>  (288) 
nan

>  <ATP_Site>  (288) 
nan

>  <Peripheral>  (288) 
nan

>  <Num_H_Atoms_ProtBoundConf>  (288) 
nan

>  <Num_Resolved_Atoms>  (288) 
nan

>  <Num_Not_Resolved_Atoms>  (288) 
nan

$$$$
CHEMBL3957257
     RDKit          3D

  0  0  0  0  0  0  0  0  0  0999 V3000
M  V30 BEGIN CTAB
M  V30 COUNTS 52 53 0 0 0
M  V30 BEGIN ATOM
M  V30 1 C 3.340966 -4.267911 4.205152 0
M  V30 2 N 2.837953 -4.936046 2.996041 0
M  V30 3 C 2.031859 -4.216424 2.075698 0
M  V30 4 C 1.496310 -4.715694 0.908971 0
M  V30 5 C 0.726413 -3.864097 0.124580 0
M  V30 6 O 0.234066 -4.463401 -1.032242 0
M  V30 7 C 0.441661 -2.538626 0.409768 0
M  V30 8 C 0.954877 -1.993394 1.561527 0
M  V30 9 C 1.727088 -2.870007 2.338027 0
M  V30 10 C 0.870191 -0.657548 2.128924 0
M  V30 11 C 1.652121 0.414937 2.119992 0
M  V30 12 C 1.259899 1.640705 2.813382 0
M  V30 13 C 1.273504 2.895523 2.014502 0 CFG=2
M  V30 14 O 0.817120 3.912161 2.900075 0
M  V30 15 C 0.383246 2.927673 0.814525 0 CFG=1
M  V30 16 O 0.755961 2.019087 -0.159757 0
M  V30 17 C -1.056303 2.696853 1.140632 0
M  V30 18 O -1.516934 3.259875 2.190216 0
M  V30 19 C -1.855018 1.852847 0.257501 0
M  V30 20 C -1.604560 1.188765 -0.887609 0
M  V30 21 C -2.647263 0.385980 -1.579711 0 CFG=1
M  V30 22 C -3.011302 1.064183 -2.880721 0
M  V30 23 C -2.287138 -1.059831 -1.755983 0 CFG=2
M  V30 24 C -3.380642 -1.895466 -2.382008 0
M  V30 25 O -1.771641 -1.555801 -0.560661 0
M  V30 26 C -0.421060 -1.971494 -0.625307 0
M  V30 27 O 0.270925 -1.900104 -1.683693 0
M  V30 28 H 4.002022 -3.434955 3.956706 0
M  V30 29 H 3.766176 -4.997737 4.903956 0
M  V30 30 H 2.443001 -3.821048 4.713817 0
M  V30 31 H 3.020146 -5.927825 2.732930 0
M  V30 32 H 1.701211 -5.731251 0.668865 0
M  V30 33 H 0.663257 -4.329167 -1.919075 0
M  V30 34 H 2.114236 -2.420261 3.267736 0
M  V30 35 H -0.068795 -0.958536 2.550920 0
M  V30 36 H 2.580249 0.328792 1.578509 0
M  V30 37 H 1.975615 1.773287 3.684064 0
M  V30 38 H 0.239172 1.487657 3.239622 0
M  V30 39 H 2.313056 3.235247 1.760248 0
M  V30 40 H 0.300210 3.510345 3.627052 0
M  V30 41 H 0.433505 3.941566 0.309642 0
M  V30 42 H 1.393578 2.432007 -0.813753 0
M  V30 43 H -2.883881 1.754284 0.633713 0
M  V30 44 H -0.796990 1.018991 -1.565230 0
M  V30 45 H -3.579813 0.508193 -0.950443 0
M  V30 46 H -3.965612 0.645116 -3.287192 0
M  V30 47 H -3.266183 2.119863 -2.610485 0
M  V30 48 H -2.252337 1.015388 -3.658764 0
M  V30 49 H -1.490829 -1.058716 -2.576520 0
M  V30 50 H -4.215205 -2.104133 -1.717853 0
M  V30 51 H -2.932834 -2.858982 -2.669833 0
M  V30 52 H -3.650913 -1.377414 -3.326763 0
M  V30 END ATOM
M  V30 BEGIN BOND
M  V30 1 1 1 2
M  V30 2 1 2 3
M  V30 3 2 3 4
M  V30 4 1 4 5
M  V30 5 1 5 6
M  V30 6 2 5 7
M  V30 7 1 7 8
M  V30 8 2 8 9
M  V30 9 1 8 10
M  V30 10 2 10 11
M  V30 11 1 11 12
M  V30 12 1 12 13
M  V30 13 1 13 14
M  V30 14 1 13 15
M  V30 15 1 15 16
M  V30 16 1 15 17
M  V30 17 2 17 18
M  V30 18 1 17 19
M  V30 19 2 19 20
M  V30 20 1 20 21
M  V30 21 1 21 22
M  V30 22 1 21 23
M  V30 23 1 23 24
M  V30 24 1 23 25
M  V30 25 1 25 26
M  V30 26 2 26 27
M  V30 27 1 9 3
M  V30 28 1 26 7
M  V30 29 1 1 28
M  V30 30 1 1 29
M  V30 31 1 1 30
M  V30 32 1 2 31
M  V30 33 1 4 32
M  V30 34 1 6 33
M  V30 35 1 9 34
M  V30 36 1 10 35
M  V30 37 1 11 36
M  V30 38 1 12 37
M  V30 39 1 12 38
M  V30 40 1 13 39 CFG=3
M  V30 41 1 14 40
M  V30 42 1 15 41 CFG=3
M  V30 43 1 16 42
M  V30 44 1 19 43
M  V30 45 1 20 44
M  V30 46 1 21 45 CFG=1
M  V30 47 1 22 46
M  V30 48 1 22 47
M  V30 49 1 22 48
M  V30 50 1 23 49 CFG=3
M  V30 51 1 24 50
M  V30 52 1 24 51
M  V30 53 1 24 52
M  V30 END BOND
M  V30 END CTAB
M  END
>  <Dataset>  (289) 
ChEMBL_Kinases

>  <Ligand_Instance>  (289) 
nan

>  <PDB_ID>  (289) 
nan

>  <Standardized_SMILES>  (289) 
CNc1cc(O)c2c(c1)/C=C/C[C@H](O)[C@@H](O)C(=O)/C=C/[C@@H](C)[C@H](C)OC2=O

>  <Name>  (289) 
nan

>  <Pocket>  (289) 
nan

>  <ATP_Site>  (289) 
nan

>  <Peripheral>  (289) 
nan

>  <Num_H_Atoms_ProtBoundConf>  (289) 
nan

>  <Num_Resolved_Atoms>  (289) 
nan

>  <Num_Not_Resolved_Atoms>  (289) 
nan

$$$$
CHEMBL3957252
     RDKit          3D

  0  0  0  0  0  0  0  0  0  0999 V3000
M  V30 BEGIN CTAB
M  V30 COUNTS 49 53 0 0 0
M  V30 BEGIN ATOM
M  V30 1 C 3.114887 -0.914294 5.712304 0
M  V30 2 C 3.909980 -0.784527 4.460215 0
M  V30 3 C 5.166589 -1.307948 4.217802 0
M  V30 4 N 5.476941 -0.930802 2.950845 0
M  V30 5 C 4.459964 -0.211823 2.442988 0
M  V30 6 C 4.393837 0.396951 1.070339 0 CFG=1
M  V30 7 C 4.962065 1.791650 1.101192 0
M  V30 8 O 5.096245 -0.408830 0.164853 0
M  V30 9 C 2.993635 0.554234 0.635592 0
M  V30 10 C 1.831063 0.677220 0.291849 0
M  V30 11 C 0.453136 0.821361 -0.102474 0
M  V30 12 C -0.070161 2.054143 -0.434841 0
M  V30 13 C -1.391830 2.187817 -0.812340 0
M  V30 14 C -2.184715 1.058462 -0.851302 0
M  V30 15 C -1.633580 -0.189312 -0.509096 0
M  V30 16 C -0.317995 -0.320836 -0.133574 0
M  V30 17 C -2.334501 -1.503477 -0.494493 0
M  V30 18 N -1.783528 -2.685370 -0.162317 0
M  V30 19 C -2.734962 -3.658862 -0.268137 0
M  V30 20 C -2.635099 -5.072179 -0.021849 0
M  V30 21 N -1.349052 -5.562393 0.401453 0
M  V30 22 O -3.582962 -5.871249 -0.153764 0
M  V30 23 C -3.888643 -3.021618 -0.678527 0
M  V30 24 N -3.651755 -1.704481 -0.818968 0
M  V30 25 C -4.619744 -0.672693 -1.240532 0
M  V30 26 C -4.577794 0.543989 -0.363059 0
M  V30 27 C -3.619326 1.282930 -1.273426 0
M  V30 28 C -3.955818 0.204132 -2.311031 0
M  V30 29 O 3.548889 -0.149930 3.375770 0
M  V30 30 H 3.140575 -1.950470 6.108150 0
M  V30 31 H 3.506846 -0.204342 6.469303 0
M  V30 32 H 2.050873 -0.639250 5.484154 0
M  V30 33 H 5.767478 -1.889429 4.891306 0
M  V30 34 H 6.060222 1.736607 0.950949 0
M  V30 35 H 4.544639 2.431159 0.296621 0
M  V30 36 H 4.806443 2.281117 2.089674 0
M  V30 37 H 4.564086 -1.233404 -0.007829 0
M  V30 38 H 0.554231 2.929703 -0.402023 0
M  V30 39 H -1.859121 3.127461 -1.084149 0
M  V30 40 H 0.010204 -1.306179 0.107768 0
M  V30 41 H -1.322857 -5.384784 1.445631 0
M  V30 42 H -0.470112 -6.004525 0.099556 0
M  V30 43 H -4.842925 -3.497183 -0.862387 0
M  V30 44 H -5.580343 -1.092066 -1.515255 0
M  V30 45 H -5.553877 1.077044 -0.361259 0
M  V30 46 H -4.194875 0.382042 0.663761 0
M  V30 47 H -3.852491 2.304591 -1.541403 0
M  V30 48 H -4.735107 0.516454 -3.035671 0
M  V30 49 H -3.076757 -0.294260 -2.746770 0
M  V30 END ATOM
M  V30 BEGIN BOND
M  V30 1 1 1 2
M  V30 2 2 2 3
M  V30 3 1 3 4
M  V30 4 2 4 5
M  V30 5 1 5 6
M  V30 6 1 6 7
M  V30 7 1 6 8
M  V30 8 1 6 9 CFG=3
M  V30 9 3 9 10
M  V30 10 1 10 11
M  V30 11 1 11 12
M  V30 12 2 12 13
M  V30 13 1 13 14
M  V30 14 2 14 15
M  V30 15 1 15 16
M  V30 16 1 15 17
M  V30 17 2 17 18
M  V30 18 1 18 19
M  V30 19 1 19 20
M  V30 20 1 20 21
M  V30 21 2 20 22
M  V30 22 2 19 23
M  V30 23 1 23 24
M  V30 24 1 24 25
M  V30 25 1 25 26
M  V30 26 1 26 27
M  V30 27 1 27 28
M  V30 28 1 5 29
M  V30 29 1 29 2
M  V30 30 2 16 11
M  V30 31 1 24 17
M  V30 32 1 28 25
M  V30 33 1 27 14
M  V30 34 1 1 30
M  V30 35 1 1 31
M  V30 36 1 1 32
M  V30 37 1 3 33
M  V30 38 1 7 34
M  V30 39 1 7 35
M  V30 40 1 7 36
M  V30 41 1 8 37
M  V30 42 1 12 38
M  V30 43 1 13 39
M  V30 44 1 16 40
M  V30 45 1 21 41
M  V30 46 1 21 42
M  V30 47 1 23 43
M  V30 48 1 25 44
M  V30 49 1 26 45
M  V30 50 1 26 46
M  V30 51 1 27 47
M  V30 52 1 28 48
M  V30 53 1 28 49
M  V30 END BOND
M  V30 END CTAB
M  END
>  <Dataset>  (290) 
ChEMBL_Kinases

>  <Ligand_Instance>  (290) 
nan

>  <PDB_ID>  (290) 
nan

>  <Standardized_SMILES>  (290) 
Cc1cnc([C@@](C)(O)C#Cc2ccc3c(c2)-c2nc(C(N)=O)cn2C2CC3C2)o1

>  <Name>  (290) 
nan

>  <Pocket>  (290) 
nan

>  <ATP_Site>  (290) 
nan

>  <Peripheral>  (290) 
nan

>  <Num_H_Atoms_ProtBoundConf>  (290) 
nan

>  <Num_Resolved_Atoms>  (290) 
nan

>  <Num_Not_Resolved_Atoms>  (290) 
nan

$$$$
CHEMBL3957090
     RDKit          3D

  0  0  0  0  0  0  0  0  0  0999 V3000
M  V30 BEGIN CTAB
M  V30 COUNTS 43 47 0 0 0
M  V30 BEGIN ATOM
M  V30 1 O 4.429929 -0.582503 0.621778 0
M  V30 2 C 3.290066 -0.289584 0.189022 0
M  V30 3 N 3.236024 0.420912 -1.039868 0
M  V30 4 C 4.312434 0.853518 -1.861454 0
M  V30 5 C 4.830411 0.055186 -2.875712 0
M  V30 6 C 5.883744 0.537269 -3.643605 0
M  V30 7 C 6.349573 1.799215 -3.338345 0
M  V30 8 O 7.416271 2.250680 -4.138569 0
M  V30 9 C 5.841268 2.602095 -2.331064 0
M  V30 10 C 4.791075 2.114196 -1.569920 0
M  V30 11 C 2.056848 -0.643867 0.885108 0
M  V30 12 C 0.771861 -0.354850 0.468435 0
M  V30 13 C -0.323754 -0.742410 1.213252 0
M  V30 14 C -0.174313 -1.434790 2.404797 0
M  V30 15 C -1.118978 -1.909532 3.290934 0
M  V30 16 C -2.570950 -1.797806 3.192974 0
M  V30 17 N -3.215850 -1.190664 2.182047 0
M  V30 18 C -4.536127 -1.301879 2.462257 0
M  V30 19 C -5.573953 -0.823737 1.701142 0
M  V30 20 C -6.851726 -1.048785 2.176082 0
M  V30 21 F -7.944152 -0.610616 1.487946 0
M  V30 22 C -7.012702 -1.729454 3.367839 0
M  V30 23 C -5.951076 -2.212036 4.135083 0
M  V30 24 C -4.680629 -1.986156 3.659184 0
M  V30 25 N -3.430801 -2.289366 4.102751 0
M  V30 26 N -0.399718 -2.497686 4.264019 0
M  V30 27 N 0.904084 -2.393287 3.996793 0
M  V30 28 C 1.102368 -1.732616 2.837302 0
M  V30 29 C 2.196996 -1.343546 2.089931 0
M  V30 30 H 2.344217 0.717346 -1.495117 0
M  V30 31 H 4.421435 -0.927313 -3.066579 0
M  V30 32 H 6.317179 -0.051974 -4.443873 0
M  V30 33 H 7.220018 2.284454 -5.150381 0
M  V30 34 H 6.270034 3.585532 -2.159604 0
M  V30 35 H 4.415692 2.750277 -0.799509 0
M  V30 36 H 0.678139 0.177527 -0.449155 0
M  V30 37 H -1.321479 -0.507336 0.871225 0
M  V30 38 H -5.436565 -0.297138 0.778290 0
M  V30 39 H -8.040091 -1.889097 3.712745 0
M  V30 40 H -6.106623 -2.736230 5.054951 0
M  V30 41 H -3.258154 -2.809491 4.993885 0
M  V30 42 H 1.696119 -2.756325 4.574452 0
M  V30 43 H 3.146820 -1.637514 2.537321 0
M  V30 END ATOM
M  V30 BEGIN BOND
M  V30 1 2 1 2
M  V30 2 1 2 3
M  V30 3 1 3 4
M  V30 4 2 4 5
M  V30 5 1 5 6
M  V30 6 2 6 7
M  V30 7 1 7 8
M  V30 8 1 7 9
M  V30 9 2 9 10
M  V30 10 1 2 11
M  V30 11 2 11 12
M  V30 12 1 12 13
M  V30 13 2 13 14
M  V30 14 1 14 15
M  V30 15 1 15 16
M  V30 16 2 16 17
M  V30 17 1 17 18
M  V30 18 2 18 19
M  V30 19 1 19 20
M  V30 20 1 20 21
M  V30 21 2 20 22
M  V30 22 1 22 23
M  V30 23 2 23 24
M  V30 24 1 24 25
M  V30 25 2 15 26
M  V30 26 1 26 27
M  V30 27 1 27 28
M  V30 28 2 28 29
M  V30 29 1 10 4
M  V30 30 1 29 11
M  V30 31 1 28 14
M  V30 32 1 25 16
M  V30 33 1 24 18
M  V30 34 1 3 30
M  V30 35 1 5 31
M  V30 36 1 6 32
M  V30 37 1 8 33
M  V30 38 1 9 34
M  V30 39 1 10 35
M  V30 40 1 12 36
M  V30 41 1 13 37
M  V30 42 1 19 38
M  V30 43 1 22 39
M  V30 44 1 23 40
M  V30 45 1 25 41
M  V30 46 1 27 42
M  V30 47 1 29 43
M  V30 END BOND
M  V30 END CTAB
M  END
>  <Dataset>  (291) 
ChEMBL_Kinases

>  <Ligand_Instance>  (291) 
nan

>  <PDB_ID>  (291) 
nan

>  <Standardized_SMILES>  (291) 
O=C(Nc1ccc(O)cc1)c1ccc2c(-c3nc4cc(F)ccc4[nH]3)n[nH]c2c1

>  <Name>  (291) 
nan

>  <Pocket>  (291) 
nan

>  <ATP_Site>  (291) 
nan

>  <Peripheral>  (291) 
nan

>  <Num_H_Atoms_ProtBoundConf>  (291) 
nan

>  <Num_Resolved_Atoms>  (291) 
nan

>  <Num_Not_Resolved_Atoms>  (291) 
nan

$$$$
CHEMBL3956950
     RDKit          3D

  0  0  0  0  0  0  0  0  0  0999 V3000
M  V30 BEGIN CTAB
M  V30 COUNTS 42 45 0 0 0
M  V30 BEGIN ATOM
M  V30 1 C 0.882739 -8.193202 0.632852 0
M  V30 2 C 1.097585 -7.042525 -0.296429 0
M  V30 3 C 0.677837 -5.847151 0.259077 0
M  V30 4 C 0.805018 -4.672899 -0.471446 0
M  V30 5 C 1.352261 -4.770254 -1.730321 0
M  V30 6 S 1.535454 -3.265907 -2.714089 0
M  V30 7 C 0.929354 -1.855923 -1.796370 0
M  V30 8 C -0.358339 -1.356222 -1.795159 0
M  V30 9 C -0.661402 -0.250742 -1.023659 0
M  V30 10 C 0.346853 0.320572 -0.273139 0
M  V30 11 C 0.053809 1.490963 0.552054 0
M  V30 12 N 0.916289 2.157739 1.333050 0
M  V30 13 C 0.285171 3.187239 1.946159 0
M  V30 14 C 0.779931 4.126864 2.829101 0
M  V30 15 C -0.133296 5.059186 3.281144 0
M  V30 16 C 0.307844 6.086244 4.216134 0
M  V30 17 N 1.650749 6.175719 4.691460 0
M  V30 18 O -0.298837 7.030300 4.769947 0
M  V30 19 C -1.464143 5.096317 2.908224 0
M  V30 20 C -1.900077 4.120046 2.014437 0
M  V30 21 C -1.033839 3.160374 1.526855 0
M  V30 22 N -1.139506 2.103701 0.670029 0
M  V30 23 C 1.629095 -0.191101 -0.285339 0
M  V30 24 N 1.907160 -1.268482 -1.042454 0
M  V30 25 C 1.778325 -5.945631 -2.308081 0
M  V30 26 C 1.637118 -7.090811 -1.555018 0
M  V30 27 H 1.698657 -8.224075 1.370241 0
M  V30 28 H 0.888151 -9.161432 0.092380 0
M  V30 29 H -0.105002 -8.106033 1.151663 0
M  V30 30 H 0.236663 -5.697581 1.247950 0
M  V30 31 H 0.503039 -3.673224 -0.122909 0
M  V30 32 H -1.049846 -1.899196 -2.427891 0
M  V30 33 H -1.674679 0.113528 -1.045305 0
M  V30 34 H 1.813396 4.148873 3.158375 0
M  V30 35 H 2.088736 5.593364 5.443814 0
M  V30 36 H 2.503290 6.725551 4.511650 0
M  V30 37 H -2.146549 5.846642 3.287889 0
M  V30 38 H -2.938622 4.102410 1.687039 0
M  V30 39 H -2.043605 1.859115 0.206054 0
M  V30 40 H 2.368942 0.301439 0.322621 0
M  V30 41 H 2.207593 -6.014310 -3.298366 0
M  V30 42 H 1.931576 -8.072031 -1.892510 0
M  V30 END ATOM
M  V30 BEGIN BOND
M  V30 1 1 1 2
M  V30 2 2 2 3
M  V30 3 1 3 4
M  V30 4 2 4 5
M  V30 5 1 5 6
M  V30 6 1 6 7
M  V30 7 2 7 8
M  V30 8 1 8 9
M  V30 9 2 9 10
M  V30 10 1 10 11
M  V30 11 2 11 12
M  V30 12 1 12 13
M  V30 13 2 13 14
M  V30 14 1 14 15
M  V30 15 1 15 16
M  V30 16 1 16 17
M  V30 17 2 16 18
M  V30 18 2 15 19
M  V30 19 1 19 20
M  V30 20 2 20 21
M  V30 21 1 21 22
M  V30 22 1 10 23
M  V30 23 2 23 24
M  V30 24 1 5 25
M  V30 25 2 25 26
M  V30 26 1 26 2
M  V30 27 1 24 7
M  V30 28 1 22 11
M  V30 29 1 21 13
M  V30 30 1 1 27
M  V30 31 1 1 28
M  V30 32 1 1 29
M  V30 33 1 3 30
M  V30 34 1 4 31
M  V30 35 1 8 32
M  V30 36 1 9 33
M  V30 37 1 14 34
M  V30 38 1 17 35
M  V30 39 1 17 36
M  V30 40 1 19 37
M  V30 41 1 20 38
M  V30 42 1 22 39
M  V30 43 1 23 40
M  V30 44 1 25 41
M  V30 45 1 26 42
M  V30 END BOND
M  V30 END CTAB
M  END
>  <Dataset>  (292) 
ChEMBL_Kinases

>  <Ligand_Instance>  (292) 
nan

>  <PDB_ID>  (292) 
nan

>  <Standardized_SMILES>  (292) 
Cc1ccc(Sc2ccc(-c3nc4cc(C(N)=O)ccc4[nH]3)cn2)cc1

>  <Name>  (292) 
nan

>  <Pocket>  (292) 
nan

>  <ATP_Site>  (292) 
nan

>  <Peripheral>  (292) 
nan

>  <Num_H_Atoms_ProtBoundConf>  (292) 
nan

>  <Num_Resolved_Atoms>  (292) 
nan

>  <Num_Not_Resolved_Atoms>  (292) 
nan

$$$$
CHEMBL3956937
     RDKit          3D

  0  0  0  0  0  0  0  0  0  0999 V3000
M  V30 BEGIN CTAB
M  V30 COUNTS 47 50 0 0 0
M  V30 BEGIN ATOM
M  V30 1 N -0.715087 -9.198062 -1.174166 0
M  V30 2 C -1.169314 -8.156992 -0.321441 0
M  V30 3 O -1.907172 -8.396170 0.649598 0
M  V30 4 C -0.716410 -6.807220 -0.659384 0
M  V30 5 C 0.102523 -6.501979 -1.728793 0
M  V30 6 C 0.491685 -5.203375 -1.989382 0
M  V30 7 C 0.077200 -4.155805 -1.190115 0
M  V30 8 N 0.290266 -2.813177 -1.197236 0
M  V30 9 C -0.374306 -2.265918 -0.158787 0
M  V30 10 C -0.395939 -0.839684 0.177272 0
M  V30 11 C 0.317846 0.029191 -0.625542 0
M  V30 12 C 0.282583 1.378590 -0.287046 0
M  V30 13 C -0.426921 1.858433 0.799311 0
M  V30 14 C -0.438252 3.301785 1.124829 0
M  V30 15 O -0.637632 4.044855 -0.036270 0
M  V30 16 C 0.791154 3.760438 1.859400 0
M  V30 17 C 0.709426 5.231797 2.155642 0
M  V30 18 C 1.300941 5.601515 3.482774 0
M  V30 19 O 2.456208 4.835388 3.672355 0
M  V30 20 C 1.997898 3.577366 4.042644 0
M  V30 21 C 1.149303 2.899948 3.020399 0
M  V30 22 C -1.121973 0.933945 1.564234 0
M  V30 23 C -1.125572 -0.423042 1.277967 0
M  V30 24 N -1.003670 -3.260534 0.499956 0
M  V30 25 C -0.751847 -4.459163 -0.106281 0
M  V30 26 C -1.147760 -5.762223 0.162707 0
M  V30 27 H -1.068418 -9.674145 -2.033113 0
M  V30 28 H 0.202326 -9.504995 -0.770633 0
M  V30 29 H 0.400584 -7.350054 -2.323871 0
M  V30 30 H 1.132458 -4.996048 -2.832889 0
M  V30 31 H 0.890047 -2.326996 -1.924092 0
M  V30 32 H 0.881045 -0.316236 -1.480238 0
M  V30 33 H 0.843386 2.045521 -0.921167 0
M  V30 34 H -1.317419 3.485239 1.776890 0
M  V30 35 H -1.122767 4.901885 0.179254 0
M  V30 36 H 1.631902 3.666146 1.109815 0
M  V30 37 H -0.375924 5.504710 2.217453 0
M  V30 38 H 1.170199 5.861860 1.378102 0
M  V30 39 H 0.571047 5.381067 4.310902 0
M  V30 40 H 1.555170 6.657453 3.547235 0
M  V30 41 H 2.920685 2.982805 4.304579 0
M  V30 42 H 1.484956 3.688871 5.042662 0
M  V30 43 H 1.723281 2.023492 2.651462 0
M  V30 44 H 0.205801 2.611422 3.522190 0
M  V30 45 H -1.698413 1.244486 2.429865 0
M  V30 46 H -1.683726 -1.107788 1.904588 0
M  V30 47 H -1.791312 -5.932873 1.017959 0
M  V30 END ATOM
M  V30 BEGIN BOND
M  V30 1 1 1 2
M  V30 2 2 2 3
M  V30 3 1 2 4
M  V30 4 2 4 5
M  V30 5 1 5 6
M  V30 6 2 6 7
M  V30 7 1 7 8
M  V30 8 1 8 9
M  V30 9 1 9 10
M  V30 10 2 10 11
M  V30 11 1 11 12
M  V30 12 2 12 13
M  V30 13 1 13 14
M  V30 14 1 14 15
M  V30 15 1 14 16
M  V30 16 1 16 17
M  V30 17 1 17 18
M  V30 18 1 18 19
M  V30 19 1 19 20
M  V30 20 1 20 21
M  V30 21 1 13 22
M  V30 22 2 22 23
M  V30 23 2 9 24
M  V30 24 1 24 25
M  V30 25 2 25 26
M  V30 26 1 26 4
M  V30 27 1 25 7
M  V30 28 1 23 10
M  V30 29 1 21 16
M  V30 30 1 1 27
M  V30 31 1 1 28
M  V30 32 1 5 29
M  V30 33 1 6 30
M  V30 34 1 8 31
M  V30 35 1 11 32
M  V30 36 1 12 33
M  V30 37 1 14 34
M  V30 38 1 15 35
M  V30 39 1 16 36
M  V30 40 1 17 37
M  V30 41 1 17 38
M  V30 42 1 18 39
M  V30 43 1 18 40
M  V30 44 1 20 41
M  V30 45 1 20 42
M  V30 46 1 21 43
M  V30 47 1 21 44
M  V30 48 1 22 45
M  V30 49 1 23 46
M  V30 50 1 26 47
M  V30 END BOND
M  V30 END CTAB
M  END
>  <Dataset>  (293) 
ChEMBL_Kinases

>  <Ligand_Instance>  (293) 
nan

>  <PDB_ID>  (293) 
nan

>  <Standardized_SMILES>  (293) 
NC(=O)c1ccc2[nH]c(-c3ccc(C(O)C4CCOCC4)cc3)nc2c1

>  <Name>  (293) 
nan

>  <Pocket>  (293) 
nan

>  <ATP_Site>  (293) 
nan

>  <Peripheral>  (293) 
nan

>  <Num_H_Atoms_ProtBoundConf>  (293) 
nan

>  <Num_Resolved_Atoms>  (293) 
nan

>  <Num_Not_Resolved_Atoms>  (293) 
nan

$$$$
CHEMBL395808
     RDKit          3D

  0  0  0  0  0  0  0  0  0  0999 V3000
M  V30 BEGIN CTAB
M  V30 COUNTS 32 34 0 0 0
M  V30 BEGIN ATOM
M  V30 1 C -1.566198 -0.762635 4.505053 0
M  V30 2 O -1.740712 -2.094301 4.090071 0
M  V30 3 C -1.282223 -2.440603 2.825129 0
M  V30 4 C -0.669524 -1.527982 1.977219 0
M  V30 5 C -0.248323 -1.967280 0.740934 0
M  V30 6 C 0.395247 -1.001978 -0.145604 0
M  V30 7 C 0.862164 -1.305745 -1.403996 0
M  V30 8 C 1.466301 -0.363804 -2.214296 0
M  V30 9 O 1.896411 -0.619280 -3.358571 0
M  V30 10 C 1.584185 0.912627 -1.702976 0
M  V30 11 C 2.174875 1.929212 -2.436662 0
M  V30 12 C 2.249292 3.175384 -1.844058 0
M  V30 13 C 1.768649 3.448083 -0.573178 0
M  V30 14 C 1.172545 2.422643 0.167519 0
M  V30 15 C 1.101856 1.172609 -0.436008 0
M  V30 16 O 0.533580 0.228674 0.290715 0
M  V30 17 C -0.454124 -3.289181 0.403794 0
M  V30 18 C -1.059992 -4.209350 1.231397 0
M  V30 19 C -1.485208 -3.772806 2.475213 0
M  V30 20 O -2.099210 -4.672341 3.334136 0
M  V30 21 H -0.520044 -0.516527 4.767557 0
M  V30 22 H -2.181361 -0.534904 5.413873 0
M  V30 23 H -1.893090 -0.005347 3.758052 0
M  V30 24 H -0.539746 -0.499146 2.309402 0
M  V30 25 H 0.761464 -2.292810 -1.777486 0
M  V30 26 H 2.551931 1.737999 -3.419727 0
M  V30 27 H 2.709560 3.981733 -2.407041 0
M  V30 28 H 1.861779 4.451055 -0.172551 0
M  V30 29 H 0.806347 2.646714 1.145788 0
M  V30 30 H -0.133762 -3.651875 -0.553996 0
M  V30 31 H -1.212235 -5.240653 0.949285 0
M  V30 32 H -3.112548 -4.682482 3.468389 0
M  V30 END ATOM
M  V30 BEGIN BOND
M  V30 1 1 1 2
M  V30 2 1 2 3
M  V30 3 2 3 4
M  V30 4 1 4 5
M  V30 5 1 5 6
M  V30 6 2 6 7
M  V30 7 1 7 8
M  V30 8 2 8 9
M  V30 9 1 8 10
M  V30 10 2 10 11
M  V30 11 1 11 12
M  V30 12 2 12 13
M  V30 13 1 13 14
M  V30 14 2 14 15
M  V30 15 1 15 16
M  V30 16 2 5 17
M  V30 17 1 17 18
M  V30 18 2 18 19
M  V30 19 1 19 20
M  V30 20 1 19 3
M  V30 21 1 16 6
M  V30 22 1 15 10
M  V30 23 1 1 21
M  V30 24 1 1 22
M  V30 25 1 1 23
M  V30 26 1 4 24
M  V30 27 1 7 25
M  V30 28 1 11 26
M  V30 29 1 12 27
M  V30 30 1 13 28
M  V30 31 1 14 29
M  V30 32 1 17 30
M  V30 33 1 18 31
M  V30 34 1 20 32
M  V30 END BOND
M  V30 END CTAB
M  END
>  <Dataset>  (294) 
ChEMBL_Kinases

>  <Ligand_Instance>  (294) 
nan

>  <PDB_ID>  (294) 
nan

>  <Standardized_SMILES>  (294) 
COc1cc(-c2cc(=O)c3ccccc3o2)ccc1O

>  <Name>  (294) 
nan

>  <Pocket>  (294) 
nan

>  <ATP_Site>  (294) 
nan

>  <Peripheral>  (294) 
nan

>  <Num_H_Atoms_ProtBoundConf>  (294) 
nan

>  <Num_Resolved_Atoms>  (294) 
nan

>  <Num_Not_Resolved_Atoms>  (294) 
nan

$$$$
CHEMBL4873277
     RDKit          3D

  0  0  0  0  0  0  0  0  0  0999 V3000
M  V30 BEGIN CTAB
M  V30 COUNTS 41 43 0 0 0
M  V30 BEGIN ATOM
M  V30 1 O 0.011712 -1.327888 1.831833 0
M  V30 2 C 0.696723 -1.981713 2.686318 0
M  V30 3 N 2.071292 -1.632957 2.754185 0
M  V30 4 C 2.468627 -0.587335 1.836918 0
M  V30 5 C 2.900848 -0.990719 0.575632 0
M  V30 6 C 3.302412 -0.103189 -0.380383 0
M  V30 7 C 3.271471 1.242018 -0.065048 0
M  V30 8 O 3.640289 2.249527 -0.910224 0
M  V30 9 C 2.742558 2.880915 -1.782662 0
M  V30 10 C 3.210709 3.888762 -2.598009 0
M  V30 11 C 2.331335 4.513444 -3.458504 0
M  V30 12 O 2.810595 5.528331 -4.277167 0
M  V30 13 N 1.038912 4.138812 -3.495027 0
M  V30 14 C 0.595897 3.148644 -2.688843 0
M  V30 15 N 1.426953 2.520653 -1.839876 0
M  V30 16 C 2.844813 1.677843 1.186442 0
M  V30 17 C 2.438534 0.762850 2.150767 0
M  V30 18 N 0.014751 -2.957917 3.449064 0
M  V30 19 C -1.398845 -3.164955 3.228948 0
M  V30 20 C -2.203308 -2.374026 4.022349 0
M  V30 21 C -3.583782 -2.468683 3.916097 0
M  V30 22 C -4.092211 -3.374429 2.996576 0
M  V30 23 C -3.300811 -4.172524 2.195827 0
M  V30 24 C -3.879185 -5.133537 1.219893 0
M  V30 25 F -4.141448 -6.286669 1.921531 0
M  V30 26 F -5.011889 -4.596912 0.649059 0
M  V30 27 F -2.940342 -5.408309 0.245260 0
M  V30 28 C -1.931672 -4.061104 2.318942 0
M  V30 29 H 2.625316 -2.180472 3.463856 0
M  V30 30 H 2.923203 -2.063618 0.330541 0
M  V30 31 H 3.644554 -0.397492 -1.374511 0
M  V30 32 H 4.245141 4.186216 -2.566499 0
M  V30 33 H 2.246717 5.965850 -4.979233 0
M  V30 34 H -0.447832 2.813311 -2.687187 0
M  V30 35 H 2.801104 2.713629 1.484088 0
M  V30 36 H 2.096656 1.046275 3.142326 0
M  V30 37 H 0.618355 -3.479174 4.147575 0
M  V30 38 H -1.843597 -1.665027 4.741834 0
M  V30 39 H -4.277413 -1.879537 4.506371 0
M  V30 40 H -5.182096 -3.442291 2.919632 0
M  V30 41 H -1.232210 -4.642655 1.736391 0
M  V30 END ATOM
M  V30 BEGIN BOND
M  V30 1 2 1 2
M  V30 2 1 2 3
M  V30 3 1 3 4
M  V30 4 2 4 5
M  V30 5 1 5 6
M  V30 6 2 6 7
M  V30 7 1 7 8
M  V30 8 1 8 9
M  V30 9 2 9 10
M  V30 10 1 10 11
M  V30 11 1 11 12
M  V30 12 2 11 13
M  V30 13 1 13 14
M  V30 14 2 14 15
M  V30 15 1 7 16
M  V30 16 2 16 17
M  V30 17 1 2 18
M  V30 18 1 18 19
M  V30 19 2 19 20
M  V30 20 1 20 21
M  V30 21 2 21 22
M  V30 22 1 22 23
M  V30 23 1 23 24
M  V30 24 1 24 25
M  V30 25 1 24 26
M  V30 26 1 24 27
M  V30 27 2 23 28
M  V30 28 1 17 4
M  V30 29 1 28 19
M  V30 30 1 15 9
M  V30 31 1 3 29
M  V30 32 1 5 30
M  V30 33 1 6 31
M  V30 34 1 10 32
M  V30 35 1 12 33
M  V30 36 1 14 34
M  V30 37 1 16 35
M  V30 38 1 17 36
M  V30 39 1 18 37
M  V30 40 1 20 38
M  V30 41 1 21 39
M  V30 42 1 22 40
M  V30 43 1 28 41
M  V30 END BOND
M  V30 END CTAB
M  END
>  <Dataset>  (295) 
ChEMBL_Kinases

>  <Ligand_Instance>  (295) 
nan

>  <PDB_ID>  (295) 
nan

>  <Standardized_SMILES>  (295) 
O=C(Nc1ccc(Oc2cc(O)ncn2)cc1)Nc1cccc(C(F)(F)F)c1

>  <Name>  (295) 
nan

>  <Pocket>  (295) 
nan

>  <ATP_Site>  (295) 
nan

>  <Peripheral>  (295) 
nan

>  <Num_H_Atoms_ProtBoundConf>  (295) 
nan

>  <Num_Resolved_Atoms>  (295) 
nan

>  <Num_Not_Resolved_Atoms>  (295) 
nan

$$$$
CHEMBL487335
     RDKit          3D

  0  0  0  0  0  0  0  0  0  0999 V3000
M  V30 BEGIN CTAB
M  V30 COUNTS 39 43 0 0 0
M  V30 BEGIN ATOM
M  V30 1 N 1.844818 -5.376488 3.070342 0
M  V30 2 C 0.638042 -4.744708 2.710822 0
M  V30 3 C 0.610250 -3.462698 2.210035 0
M  V30 4 C -0.535137 -2.756335 1.827333 0
M  V30 5 C -0.337879 -1.429441 1.317082 0
M  V30 6 C 0.612315 -1.387446 0.289403 0
M  V30 7 C 0.936333 -0.212725 -0.350888 0
M  V30 8 N 1.809031 0.084046 -1.359691 0
M  V30 9 C 1.695453 1.401121 -1.567200 0
M  V30 10 C 2.407252 2.137680 -2.513736 0
M  V30 11 C 2.208606 3.496679 -2.640785 0
M  V30 12 C 1.268605 4.074788 -1.778571 0
M  V30 13 O 1.101039 5.454301 -1.944055 0
M  V30 14 C 0.602511 3.304991 -0.872671 0
M  V30 15 C 0.773367 1.976128 -0.723363 0
M  V30 16 C 0.304161 0.947418 0.036277 0
M  V30 17 C -0.625183 0.947017 1.031967 0
M  V30 18 C -0.942980 -0.227645 1.665710 0
M  V30 19 C -1.941365 -0.063303 2.704240 0
M  V30 20 O -2.451572 -0.922281 3.470101 0
M  V30 21 N -2.243289 1.325842 2.685751 0
M  V30 22 C -1.450954 1.932976 1.679229 0
M  V30 23 O -1.578172 3.154091 1.513612 0
M  V30 24 C -1.697946 -3.461053 1.990871 0
M  V30 25 C -1.758798 -4.741044 2.482713 0
M  V30 26 C -0.583303 -5.368249 2.837717 0
M  V30 27 Cl -0.681855 -7.007892 3.465821 0
M  V30 28 H 2.540033 -5.991307 2.602427 0
M  V30 29 H 1.946765 -5.071231 4.065763 0
M  V30 30 H 1.597103 -2.984375 2.117417 0
M  V30 31 H 1.160921 -2.267436 -0.078048 0
M  V30 32 H 2.423927 -0.604837 -1.846067 0
M  V30 33 H 3.129899 1.684783 -3.174468 0
M  V30 34 H 2.747699 4.089823 -3.366472 0
M  V30 35 H 1.417937 6.019129 -1.153979 0
M  V30 36 H -0.071434 3.854537 -0.288639 0
M  V30 37 H -2.953774 1.740350 3.350401 0
M  V30 38 H -2.603715 -2.957326 1.699454 0
M  V30 39 H -2.731746 -5.228684 2.580259 0
M  V30 END ATOM
M  V30 BEGIN BOND
M  V30 1 1 1 2
M  V30 2 2 2 3
M  V30 3 1 3 4
M  V30 4 1 4 5
M  V30 5 2 5 6
M  V30 6 1 6 7
M  V30 7 1 7 8
M  V30 8 1 8 9
M  V30 9 2 9 10
M  V30 10 1 10 11
M  V30 11 2 11 12
M  V30 12 1 12 13
M  V30 13 1 12 14
M  V30 14 2 14 15
M  V30 15 1 15 16
M  V30 16 1 16 17
M  V30 17 2 17 18
M  V30 18 1 18 19
M  V30 19 2 19 20
M  V30 20 1 19 21
M  V30 21 1 21 22
M  V30 22 2 22 23
M  V30 23 2 4 24
M  V30 24 1 24 25
M  V30 25 2 25 26
M  V30 26 1 26 27
M  V30 27 1 26 2
M  V30 28 1 18 5
M  V30 29 2 16 7
M  V30 30 1 22 17
M  V30 31 1 15 9
M  V30 32 1 1 28
M  V30 33 1 1 29
M  V30 34 1 3 30
M  V30 35 1 6 31
M  V30 36 1 8 32
M  V30 37 1 10 33
M  V30 38 1 11 34
M  V30 39 1 13 35
M  V30 40 1 14 36
M  V30 41 1 21 37
M  V30 42 1 24 38
M  V30 43 1 25 39
M  V30 END BOND
M  V30 END CTAB
M  END
>  <Dataset>  (296) 
ChEMBL_Kinases

>  <Ligand_Instance>  (296) 
nan

>  <PDB_ID>  (296) 
nan

>  <Standardized_SMILES>  (296) 
Nc1cc(-c2cc3[nH]c4ccc(O)cc4c3c3c2C(=O)NC3=O)ccc1Cl

>  <Name>  (296) 
nan

>  <Pocket>  (296) 
nan

>  <ATP_Site>  (296) 
nan

>  <Peripheral>  (296) 
nan

>  <Num_H_Atoms_ProtBoundConf>  (296) 
nan

>  <Num_Resolved_Atoms>  (296) 
nan

>  <Num_Not_Resolved_Atoms>  (296) 
nan

$$$$
CHEMBL77002
     RDKit          3D

  0  0  0  0  0  0  0  0  0  0999 V3000
M  V30 BEGIN CTAB
M  V30 COUNTS 32 34 0 0 0
M  V30 BEGIN ATOM
M  V30 1 C -3.348892 -2.950029 2.051000 0
M  V30 2 O -2.173741 -3.684994 1.712308 0
M  V30 3 C -1.081732 -2.919264 1.275015 0
M  V30 4 C 0.013168 -3.700628 0.967622 0
M  V30 5 C 1.179695 -3.119791 0.520554 0
M  V30 6 O 2.373155 -3.724610 0.164609 0
M  V30 7 C 2.472802 -5.119415 0.248630 0
M  V30 8 C 1.208793 -1.728337 0.392912 0
M  V30 9 C 0.101247 -0.969110 0.706489 0
M  V30 10 C 0.125351 0.497481 0.574210 0
M  V30 11 C 1.231887 1.226941 0.135075 0
M  V30 12 C 0.887011 2.572157 0.138944 0
M  V30 13 N 1.553099 3.717227 -0.185099 0
M  V30 14 C 0.895187 4.903760 -0.061024 0
M  V30 15 C -0.411441 4.908354 0.384283 0
M  V30 16 N -1.122523 3.827055 0.718279 0
M  V30 17 C -0.493278 2.629798 0.604891 0
M  V30 18 N -0.878596 1.368566 0.842990 0
M  V30 19 C -1.079260 -1.547886 1.158153 0
M  V30 20 H -3.656808 -2.408758 1.149261 0
M  V30 21 H -3.058437 -2.175080 2.793350 0
M  V30 22 H -4.161104 -3.608127 2.387579 0
M  V30 23 H 0.062158 -4.779320 1.042153 0
M  V30 24 H 2.096803 -5.653246 -0.666325 0
M  V30 25 H 3.543131 -5.409102 0.320837 0
M  V30 26 H 1.960306 -5.521767 1.124774 0
M  V30 27 H 2.081453 -1.172430 0.048204 0
M  V30 28 H 2.211689 0.882689 -0.170021 0
M  V30 29 H 2.547072 3.630977 -0.516853 0
M  V30 30 H 1.436507 5.803450 -0.321764 0
M  V30 31 H -0.845553 5.900410 0.448463 0
M  V30 32 H -1.971262 -1.021267 1.417874 0
M  V30 END ATOM
M  V30 BEGIN BOND
M  V30 1 1 1 2
M  V30 2 1 2 3
M  V30 3 2 3 4
M  V30 4 1 4 5
M  V30 5 1 5 6
M  V30 6 1 6 7
M  V30 7 2 5 8
M  V30 8 1 8 9
M  V30 9 1 9 10
M  V30 10 1 10 11
M  V30 11 2 11 12
M  V30 12 1 12 13
M  V30 13 1 13 14
M  V30 14 2 14 15
M  V30 15 1 15 16
M  V30 16 2 16 17
M  V30 17 1 17 18
M  V30 18 2 9 19
M  V30 19 1 19 3
M  V30 20 2 18 10
M  V30 21 1 17 12
M  V30 22 1 1 20
M  V30 23 1 1 21
M  V30 24 1 1 22
M  V30 25 1 4 23
M  V30 26 1 7 24
M  V30 27 1 7 25
M  V30 28 1 7 26
M  V30 29 1 8 27
M  V30 30 1 11 28
M  V30 31 1 13 29
M  V30 32 1 14 30
M  V30 33 1 15 31
M  V30 34 1 19 32
M  V30 END BOND
M  V30 END CTAB
M  END
>  <Dataset>  (297) 
ChEMBL_Kinases

>  <Ligand_Instance>  (297) 
nan

>  <PDB_ID>  (297) 
nan

>  <Standardized_SMILES>  (297) 
COc1cc(OC)cc(-c2cc3[nH]ccnc-3n2)c1

>  <Name>  (297) 
nan

>  <Pocket>  (297) 
nan

>  <ATP_Site>  (297) 
nan

>  <Peripheral>  (297) 
nan

>  <Num_H_Atoms_ProtBoundConf>  (297) 
nan

>  <Num_Resolved_Atoms>  (297) 
nan

>  <Num_Not_Resolved_Atoms>  (297) 
nan

$$$$
CHEMBL4873395
     RDKit          3D

  0  0  0  0  0  0  0  0  0  0999 V3000
M  V30 BEGIN CTAB
M  V30 COUNTS 96 103 0 0 0
M  V30 BEGIN ATOM
M  V30 1 C -0.443540 1.370928 5.675479 0
M  V30 2 O -0.957884 1.066585 4.515432 0
M  V30 3 C -1.461626 0.810635 3.377963 0
M  V30 4 C -1.833557 1.807051 2.498708 0
M  V30 5 C -2.375204 1.491974 1.269335 0
M  V30 6 N -2.841501 2.349839 0.231933 0
M  V30 7 C -3.645086 3.552128 0.121743 0
M  V30 8 C -4.883405 3.308784 -0.720573 0
M  V30 9 N -4.441862 3.141761 -2.100584 0
M  V30 10 C -5.533256 2.824807 -3.001359 0
M  V30 11 C -3.558975 1.990595 -2.115451 0
M  V30 12 C -2.445418 2.075285 -1.144337 0
M  V30 13 C -2.544508 0.160084 0.923819 0
M  V30 14 C -2.192122 -0.881928 1.762582 0
M  V30 15 C -1.645524 -0.505648 2.998758 0
M  V30 16 N -1.255460 -1.580013 3.873038 0
M  V30 17 C -1.511204 -2.950941 3.528488 0
M  V30 18 N -2.515358 -3.629603 4.137923 0
M  V30 19 C -2.795598 -4.932011 3.823041 0
M  V30 20 C -2.029089 -5.548392 2.861925 0
M  V30 21 C -2.273694 -6.836547 2.515890 0
M  V30 22 C -3.347035 -7.599833 3.154808 0
M  V30 23 C -1.479135 -7.403528 1.545410 0
M  V30 24 C -0.474340 -6.666141 0.958133 0
M  V30 25 O 0.179528 -7.320084 0.076894 0
M  V30 26 N -0.188136 -5.364023 1.271932 0
M  V30 27 C 0.868275 -4.704720 0.578764 0 CFG=1
M  V30 28 C 0.262615 -4.134435 -0.699351 0
M  V30 29 C 1.252073 -3.360555 -1.522597 0
M  V30 30 C 2.047860 -2.369427 -0.720393 0 CFG=1
M  V30 31 N 2.201040 -1.095304 -1.362582 0
M  V30 32 C 3.479748 -0.599757 -1.735774 0
M  V30 33 O 4.571668 -1.175043 -1.561145 0
M  V30 34 C 3.440596 0.733781 -2.389954 0
M  V30 35 C 4.805778 1.255615 -2.769210 0
M  V30 36 C 4.612083 2.637731 -3.364084 0
M  V30 37 C 4.037336 3.613819 -2.363901 0
M  V30 38 C 2.704032 3.089042 -1.943766 0
M  V30 39 C 1.733429 2.986377 -3.098765 0
M  V30 40 C 2.335408 2.076007 -4.120161 0
M  V30 41 C 3.673950 2.603031 -4.554499 0
M  V30 42 C 2.538514 0.690387 -3.595119 0
M  V30 43 C 2.867276 1.706989 -1.369022 0
M  V30 44 C 1.414398 -2.313128 0.636776 0
M  V30 45 C 1.654655 -3.676596 1.242893 0
M  V30 46 C -1.003931 -4.881195 2.226449 0
M  V30 47 N -0.805465 -3.610489 2.602771 0
M  V30 48 H -1.132035 1.617052 6.527278 0
M  V30 49 H 0.187857 2.319757 5.600573 0
M  V30 50 H 0.308908 0.601099 6.007589 0
M  V30 51 H -1.745999 2.876011 2.660895 0
M  V30 52 H -4.020644 3.890125 1.130560 0
M  V30 53 H -3.111832 4.413353 -0.314562 0
M  V30 54 H -5.593407 4.123616 -0.582168 0
M  V30 55 H -5.285111 2.297576 -0.430792 0
M  V30 56 H -6.151494 3.680947 -3.267483 0
M  V30 57 H -5.050921 2.494945 -3.968992 0
M  V30 58 H -6.098574 1.929935 -2.643235 0
M  V30 59 H -4.163905 1.077445 -1.987940 0
M  V30 60 H -3.087758 1.868274 -3.134005 0
M  V30 61 H -1.694458 2.865832 -1.401806 0
M  V30 62 H -1.899894 1.109919 -1.140504 0
M  V30 63 H -2.960943 -0.195639 -0.011202 0
M  V30 64 H -2.319522 -1.933421 1.505968 0
M  V30 65 H -0.779259 -1.450858 4.778602 0
M  V30 66 H -3.592184 -5.412096 4.332687 0
M  V30 67 H -4.270606 -6.965327 3.190291 0
M  V30 68 H -3.637650 -8.471880 2.517930 0
M  V30 69 H -3.088869 -7.931615 4.184330 0
M  V30 70 H -1.687664 -8.431150 1.282333 0
M  V30 71 H 1.585313 -5.542500 0.287067 0
M  V30 72 H 0.027372 -5.038234 -1.314768 0
M  V30 73 H -0.608538 -3.486354 -0.524274 0
M  V30 74 H 0.652421 -2.788234 -2.257537 0
M  V30 75 H 1.883488 -4.064376 -2.117260 0
M  V30 76 H 3.058118 -2.799321 -0.590787 0
M  V30 77 H 1.293560 -0.604086 -1.509105 0
M  V30 78 H 5.275801 0.649793 -3.575185 0
M  V30 79 H 5.460306 1.341888 -1.901476 0
M  V30 80 H 5.592504 3.052921 -3.715339 0
M  V30 81 H 3.878361 4.555975 -2.898235 0
M  V30 82 H 4.645052 3.736704 -1.452335 0
M  V30 83 H 2.312374 3.729095 -1.133408 0
M  V30 84 H 1.516824 3.981242 -3.540347 0
M  V30 85 H 0.809143 2.517879 -2.721597 0
M  V30 86 H 1.661305 2.030929 -5.000258 0
M  V30 87 H 3.517049 3.645151 -4.878692 0
M  V30 88 H 4.094559 2.038742 -5.406563 0
M  V30 89 H 3.101917 0.113240 -4.382926 0
M  V30 90 H 1.593301 0.179833 -3.339818 0
M  V30 91 H 3.524987 1.697737 -0.473760 0
M  V30 92 H 1.909986 1.266175 -1.022531 0
M  V30 93 H 0.345795 -2.123350 0.626226 0
M  V30 94 H 1.969845 -1.522895 1.214450 0
M  V30 95 H 2.759744 -3.943605 1.159415 0
M  V30 96 H 1.526096 -3.541293 2.328124 0
M  V30 END ATOM
M  V30 BEGIN BOND
M  V30 1 1 1 2
M  V30 2 1 2 3
M  V30 3 2 3 4
M  V30 4 1 4 5
M  V30 5 1 5 6
M  V30 6 1 6 7
M  V30 7 1 7 8
M  V30 8 1 8 9
M  V30 9 1 9 10
M  V30 10 1 9 11
M  V30 11 1 11 12
M  V30 12 2 5 13
M  V30 13 1 13 14
M  V30 14 2 14 15
M  V30 15 1 15 16
M  V30 16 1 16 17
M  V30 17 2 17 18
M  V30 18 1 18 19
M  V30 19 2 19 20
M  V30 20 1 20 21
M  V30 21 1 21 22
M  V30 22 2 21 23
M  V30 23 1 23 24
M  V30 24 2 24 25
M  V30 25 1 24 26
M  V30 26 1 26 27
M  V30 27 1 27 28
M  V30 28 1 28 29
M  V30 29 1 29 30
M  V30 30 1 30 31
M  V30 31 1 31 32
M  V30 32 2 32 33
M  V30 33 1 32 34
M  V30 34 1 34 35
M  V30 35 1 35 36
M  V30 36 1 36 37
M  V30 37 1 37 38
M  V30 38 1 38 39
M  V30 39 1 39 40
M  V30 40 1 40 41
M  V30 41 1 40 42
M  V30 42 1 38 43
M  V30 43 1 30 44
M  V30 44 1 44 45
M  V30 45 1 26 46
M  V30 46 2 46 47
M  V30 47 1 15 3
M  V30 48 1 47 17
M  V30 49 1 12 6
M  V30 50 1 46 20
M  V30 51 1 45 27
M  V30 52 1 42 34
M  V30 53 1 43 34
M  V30 54 1 41 36
M  V30 55 1 1 48
M  V30 56 1 1 49
M  V30 57 1 1 50
M  V30 58 1 4 51
M  V30 59 1 7 52
M  V30 60 1 7 53
M  V30 61 1 8 54
M  V30 62 1 8 55
M  V30 63 1 10 56
M  V30 64 1 10 57
M  V30 65 1 10 58
M  V30 66 1 11 59
M  V30 67 1 11 60
M  V30 68 1 12 61
M  V30 69 1 12 62
M  V30 70 1 13 63
M  V30 71 1 14 64
M  V30 72 1 16 65
M  V30 73 1 19 66
M  V30 74 1 22 67
M  V30 75 1 22 68
M  V30 76 1 22 69
M  V30 77 1 23 70
M  V30 78 1 27 71 CFG=3
M  V30 79 1 28 72
M  V30 80 1 28 73
M  V30 81 1 29 74
M  V30 82 1 29 75
M  V30 83 1 30 76 CFG=1
M  V30 84 1 31 77
M  V30 85 1 35 78
M  V30 86 1 35 79
M  V30 87 1 36 80
M  V30 88 1 37 81
M  V30 89 1 37 82
M  V30 90 1 38 83
M  V30 91 1 39 84
M  V30 92 1 39 85
M  V30 93 1 40 86
M  V30 94 1 41 87
M  V30 95 1 41 88
M  V30 96 1 42 89
M  V30 97 1 42 90
M  V30 98 1 43 91
M  V30 99 1 43 92
M  V30 100 1 44 93
M  V30 101 1 44 94
M  V30 102 1 45 95
M  V30 103 1 45 96
M  V30 END BOND
M  V30 END CTAB
M  END
>  <Dataset>  (298) 
ChEMBL_Kinases

>  <Ligand_Instance>  (298) 
nan

>  <PDB_ID>  (298) 
nan

>  <Standardized_SMILES>  (298) 
COc1cc(N2CCN(C)CC2)ccc1Nc1ncc2c(C)cc(=O)n([C@H]3CC[C@@H](NC(=O)C45CC6CC(CC(C6)C4)C5)CC3)c2n1

>  <Name>  (298) 
nan

>  <Pocket>  (298) 
nan

>  <ATP_Site>  (298) 
nan

>  <Peripheral>  (298) 
nan

>  <Num_H_Atoms_ProtBoundConf>  (298) 
nan

>  <Num_Resolved_Atoms>  (298) 
nan

>  <Num_Not_Resolved_Atoms>  (298) 
nan

$$$$
CHEMBL7664
     RDKit          3D

  0  0  0  0  0  0  0  0  0  0999 V3000
M  V30 BEGIN CTAB
M  V30 COUNTS 22 22 0 0 0
M  V30 BEGIN ATOM
M  V30 1 O 1.856778 -2.770012 4.600616 0
M  V30 2 C 1.379542 -1.973508 3.752043 0
M  V30 3 O 0.352515 -1.122350 4.185853 0
M  V30 4 C 1.891520 -1.940764 2.332727 0
M  V30 5 N 1.115359 -0.930033 1.637683 0
M  V30 6 C 1.239513 -0.542911 0.269516 0
M  V30 7 O 2.154761 -1.206587 -0.333489 0
M  V30 8 C 0.338006 0.520047 -0.235801 0
M  V30 9 C -0.615791 0.206491 -1.180776 0
M  V30 10 C -1.419679 1.257522 -1.582419 0
M  V30 11 C -1.249291 2.518609 -1.051846 0
M  V30 12 C -0.274692 2.806172 -0.095884 0
M  V30 13 C 0.535425 1.758731 0.312336 0
M  V30 14 Br 1.863770 2.166608 1.620229 0
M  V30 15 H -0.330892 -1.529497 4.835540 0
M  V30 16 H 1.781569 -2.953401 1.954501 0
M  V30 17 H 2.965560 -1.677007 2.410508 0
M  V30 18 H 0.363104 -0.396679 2.173900 0
M  V30 19 H -0.718005 -0.811796 -1.573568 0
M  V30 20 H -2.167338 1.033311 -2.317007 0
M  V30 21 H -1.945331 3.256631 -1.448756 0
M  V30 22 H -0.229875 3.822842 0.250353 0
M  V30 END ATOM
M  V30 BEGIN BOND
M  V30 1 2 1 2
M  V30 2 1 2 3
M  V30 3 1 2 4
M  V30 4 1 4 5
M  V30 5 1 5 6
M  V30 6 2 6 7
M  V30 7 1 6 8
M  V30 8 2 8 9
M  V30 9 1 9 10
M  V30 10 2 10 11
M  V30 11 1 11 12
M  V30 12 2 12 13
M  V30 13 1 13 14
M  V30 14 1 13 8
M  V30 15 1 3 15
M  V30 16 1 4 16
M  V30 17 1 4 17
M  V30 18 1 5 18
M  V30 19 1 9 19
M  V30 20 1 10 20
M  V30 21 1 11 21
M  V30 22 1 12 22
M  V30 END BOND
M  V30 END CTAB
M  END
>  <Dataset>  (299) 
ChEMBL_Kinases

>  <Ligand_Instance>  (299) 
nan

>  <PDB_ID>  (299) 
nan

>  <Standardized_SMILES>  (299) 
O=C(O)CNC(=O)c1ccccc1Br

>  <Name>  (299) 
nan

>  <Pocket>  (299) 
nan

>  <ATP_Site>  (299) 
nan

>  <Peripheral>  (299) 
nan

>  <Num_H_Atoms_ProtBoundConf>  (299) 
nan

>  <Num_Resolved_Atoms>  (299) 
nan

>  <Num_Not_Resolved_Atoms>  (299) 
nan

$$$$
CHEMBL4873406
     RDKit          3D

  0  0  0  0  0  0  0  0  0  0999 V3000
M  V30 BEGIN CTAB
M  V30 COUNTS 51 53 0 0 0
M  V30 BEGIN ATOM
M  V30 1 C 3.247304 -1.973891 8.443909 0
M  V30 2 C 2.444472 -1.673089 7.206576 0
M  V30 3 C 1.466527 -2.747815 6.847992 0
M  V30 4 N 3.290684 -1.300219 6.064871 0
M  V30 5 C 2.683397 -0.979994 4.799840 0
M  V30 6 C 3.449966 -0.626270 3.709148 0
M  V30 7 C 2.724158 -0.349611 2.573235 0
M  V30 8 O 3.448003 0.018047 1.424021 0
M  V30 9 C 2.770970 0.313100 0.233200 0
M  V30 10 C 2.306456 1.547597 -0.172403 0
M  V30 11 C 1.655816 1.662692 -1.383965 0
M  V30 12 C 1.496355 0.520831 -2.147341 0
M  V30 13 N 0.819732 0.611317 -3.418923 0
M  V30 14 C -0.594423 0.407043 -3.303550 0
M  V30 15 O -1.128934 0.175171 -2.169707 0
M  V30 16 N -1.529990 0.436997 -4.391010 0
M  V30 17 C -2.913972 0.217226 -4.138111 0
M  V30 18 C -3.627196 1.360159 -3.863177 0
M  V30 19 C -4.979142 1.256481 -3.603354 0
M  V30 20 C -5.615476 0.029514 -3.616682 0
M  V30 21 C -4.897310 -1.116222 -3.892931 0
M  V30 22 C -5.576741 -2.438118 -3.908516 0
M  V30 23 F -6.086016 -2.639355 -5.162438 0
M  V30 24 F -4.624280 -3.401274 -3.600096 0
M  V30 25 F -6.606199 -2.476753 -3.000950 0
M  V30 26 C -3.550770 -1.009379 -4.151304 0
M  V30 27 C 1.946420 -0.728717 -1.775662 0
M  V30 28 C 2.603869 -0.832938 -0.546606 0
M  V30 29 N 1.377466 -0.401559 2.470043 0
M  V30 30 C 0.668042 -0.750849 3.557212 0
M  V30 31 N 1.341700 -1.029931 4.690587 0
M  V30 32 H 3.418395 -3.083630 8.534893 0
M  V30 33 H 4.220656 -1.469282 8.462592 0
M  V30 34 H 2.689738 -1.687180 9.365318 0
M  V30 35 H 1.837833 -0.756066 7.432035 0
M  V30 36 H 0.475060 -2.319588 6.547108 0
M  V30 37 H 1.822035 -3.311895 5.937518 0
M  V30 38 H 1.283563 -3.446657 7.671345 0
M  V30 39 H 4.334348 -1.259999 6.144860 0
M  V30 40 H 4.512468 -0.578525 3.766602 0
M  V30 41 H 2.495602 2.357483 0.516005 0
M  V30 42 H 1.301058 2.626122 -1.685507 0
M  V30 43 H 1.147841 0.792691 -4.390109 0
M  V30 44 H -1.114546 0.627238 -5.342900 0
M  V30 45 H -3.266056 2.379012 -3.818488 0
M  V30 46 H -5.625628 2.112044 -3.374918 0
M  V30 47 H -6.689711 -0.051780 -3.410104 0
M  V30 48 H -2.936343 -1.876054 -4.374574 0
M  V30 49 H 1.798110 -1.592903 -2.406799 0
M  V30 50 H 2.934652 -1.819076 -0.300448 0
M  V30 51 H -0.402257 -0.848855 3.676320 0
M  V30 END ATOM
M  V30 BEGIN BOND
M  V30 1 1 1 2
M  V30 2 1 2 3
M  V30 3 1 2 4
M  V30 4 1 4 5
M  V30 5 2 5 6
M  V30 6 1 6 7
M  V30 7 1 7 8
M  V30 8 1 8 9
M  V30 9 2 9 10
M  V30 10 1 10 11
M  V30 11 2 11 12
M  V30 12 1 12 13
M  V30 13 1 13 14
M  V30 14 2 14 15
M  V30 15 1 14 16
M  V30 16 1 16 17
M  V30 17 2 17 18
M  V30 18 1 18 19
M  V30 19 2 19 20
M  V30 20 1 20 21
M  V30 21 1 21 22
M  V30 22 1 22 23
M  V30 23 1 22 24
M  V30 24 1 22 25
M  V30 25 2 21 26
M  V30 26 1 12 27
M  V30 27 2 27 28
M  V30 28 2 7 29
M  V30 29 1 29 30
M  V30 30 2 30 31
M  V30 31 1 31 5
M  V30 32 1 28 9
M  V30 33 1 26 17
M  V30 34 1 1 32
M  V30 35 1 1 33
M  V30 36 1 1 34
M  V30 37 1 2 35
M  V30 38 1 3 36
M  V30 39 1 3 37
M  V30 40 1 3 38
M  V30 41 1 4 39
M  V30 42 1 6 40
M  V30 43 1 10 41
M  V30 44 1 11 42
M  V30 45 1 13 43
M  V30 46 1 16 44
M  V30 47 1 18 45
M  V30 48 1 19 46
M  V30 49 1 20 47
M  V30 50 1 26 48
M  V30 51 1 27 49
M  V30 52 1 28 50
M  V30 53 1 30 51
M  V30 END BOND
M  V30 END CTAB
M  END
>  <Dataset>  (300) 
ChEMBL_Kinases

>  <Ligand_Instance>  (300) 
nan

>  <PDB_ID>  (300) 
nan

>  <Standardized_SMILES>  (300) 
CC(C)Nc1cc(Oc2ccc(NC(=O)Nc3cccc(C(F)(F)F)c3)cc2)ncn1

>  <Name>  (300) 
nan

>  <Pocket>  (300) 
nan

>  <ATP_Site>  (300) 
nan

>  <Peripheral>  (300) 
nan

>  <Num_H_Atoms_ProtBoundConf>  (300) 
nan

>  <Num_Resolved_Atoms>  (300) 
nan

>  <Num_Not_Resolved_Atoms>  (300) 
nan

$$$$
CHEMBL4873445
     RDKit          3D

  0  0  0  0  0  0  0  0  0  0999 V3000
M  V30 BEGIN CTAB
M  V30 COUNTS 42 44 0 0 0
M  V30 BEGIN ATOM
M  V30 1 C -0.585506 -4.880347 0.899610 0
M  V30 2 C 0.481233 -3.939942 1.385002 0
M  V30 3 C -0.115377 -2.977269 2.379593 0
M  V30 4 C 1.104811 -3.125008 0.282419 0
M  V30 5 C 2.154155 -2.233725 0.936505 0
M  V30 6 N 2.820891 -1.397413 -0.058971 0
M  V30 7 C 3.937512 -1.760005 -0.727407 0
M  V30 8 C 4.309032 -0.743342 -1.594064 0
M  V30 9 C 3.367010 0.250631 -1.419926 0
M  V30 10 C 3.118543 1.503729 -1.935301 0
M  V30 11 N 2.074974 2.242677 -1.537199 0
M  V30 12 C 1.199896 1.820919 -0.613473 0
M  V30 13 N 0.122006 2.644630 -0.236522 0
M  V30 14 C -0.898468 2.382125 0.710851 0
M  V30 15 C -1.045034 1.243980 1.470480 0
M  V30 16 C -2.038936 1.015551 2.377750 0
M  V30 17 F -2.116209 -0.133766 3.089439 0
M  V30 18 C -2.990490 1.983348 2.574039 0
M  V30 19 O -4.022589 1.813405 3.478067 0
M  V30 20 C -2.905633 3.146777 1.848372 0
M  V30 21 F -3.836034 4.099455 2.036622 0
M  V30 22 C -1.881253 3.315107 0.951306 0
M  V30 23 N 1.439011 0.607765 -0.113407 0
M  V30 24 C 2.454824 -0.154543 -0.476552 0
M  V30 25 H -1.367155 -4.937464 1.685064 0
M  V30 26 H -1.084403 -4.515027 -0.024749 0
M  V30 27 H -0.140116 -5.891939 0.745081 0
M  V30 28 H 1.302798 -4.537350 1.835064 0
M  V30 29 H 0.649417 -2.741852 3.150678 0
M  V30 30 H -0.993893 -3.437538 2.875556 0
M  V30 31 H -0.463719 -2.077778 1.838901 0
M  V30 32 H 0.340215 -2.472686 -0.199461 0
M  V30 33 H 1.587891 -3.745464 -0.493621 0
M  V30 34 H 1.606013 -1.526169 1.608961 0
M  V30 35 H 2.865455 -2.826280 1.512977 0
M  V30 36 H 4.511643 -2.670447 -0.660959 0
M  V30 37 H 5.137721 -0.672115 -2.282925 0
M  V30 38 H 3.807881 1.895695 -2.696802 0
M  V30 39 H 0.058039 3.574242 -0.713100 0
M  V30 40 H -0.335736 0.449093 1.365842 0
M  V30 41 H -3.883929 1.346107 4.367303 0
M  V30 42 H -1.881599 4.269689 0.410670 0
M  V30 END ATOM
M  V30 BEGIN BOND
M  V30 1 1 1 2
M  V30 2 1 2 3
M  V30 3 1 2 4
M  V30 4 1 4 5
M  V30 5 1 5 6
M  V30 6 1 6 7
M  V30 7 2 7 8
M  V30 8 1 8 9
M  V30 9 2 9 10
M  V30 10 1 10 11
M  V30 11 2 11 12
M  V30 12 1 12 13
M  V30 13 1 13 14
M  V30 14 2 14 15
M  V30 15 1 15 16
M  V30 16 1 16 17
M  V30 17 2 16 18
M  V30 18 1 18 19
M  V30 19 1 18 20
M  V30 20 1 20 21
M  V30 21 2 20 22
M  V30 22 1 12 23
M  V30 23 2 23 24
M  V30 24 1 24 6
M  V30 25 1 24 9
M  V30 26 1 22 14
M  V30 27 1 1 25
M  V30 28 1 1 26
M  V30 29 1 1 27
M  V30 30 1 2 28
M  V30 31 1 3 29
M  V30 32 1 3 30
M  V30 33 1 3 31
M  V30 34 1 4 32
M  V30 35 1 4 33
M  V30 36 1 5 34
M  V30 37 1 5 35
M  V30 38 1 7 36
M  V30 39 1 8 37
M  V30 40 1 10 38
M  V30 41 1 13 39
M  V30 42 1 15 40
M  V30 43 1 19 41
M  V30 44 1 22 42
M  V30 END BOND
M  V30 END CTAB
M  END
>  <Dataset>  (301) 
ChEMBL_Kinases

>  <Ligand_Instance>  (301) 
nan

>  <PDB_ID>  (301) 
nan

>  <Standardized_SMILES>  (301) 
CC(C)CCn1ccc2cnc(Nc3cc(F)c(O)c(F)c3)nc21

>  <Name>  (301) 
nan

>  <Pocket>  (301) 
nan

>  <ATP_Site>  (301) 
nan

>  <Peripheral>  (301) 
nan

>  <Num_H_Atoms_ProtBoundConf>  (301) 
nan

>  <Num_Resolved_Atoms>  (301) 
nan

>  <Num_Not_Resolved_Atoms>  (301) 
nan

$$$$
CHEMBL4873500
     RDKit          3D

  0  0  0  0  0  0  0  0  0  0999 V3000
M  V30 BEGIN CTAB
M  V30 COUNTS 34 35 0 0 0
M  V30 BEGIN ATOM
M  V30 1 C -0.821465 -4.806231 3.135644 0
M  V30 2 C 0.034118 -3.610204 3.446406 0
M  V30 3 C 1.483873 -3.899064 3.223387 0
M  V30 4 N -0.335195 -2.465908 2.593414 0
M  V30 5 C -1.456474 -1.752598 2.515073 0
M  V30 6 C -1.323519 -0.760230 1.541269 0
M  V30 7 C -0.055494 -0.917899 1.035740 0
M  V30 8 C 0.530362 -0.074190 -0.027606 0
M  V30 9 C 1.835811 -0.285715 -0.494765 0
M  V30 10 C 2.224271 0.623526 -1.489629 0
M  V30 11 N 1.424270 1.616811 -1.960986 0
M  V30 12 C 0.162671 1.753123 -1.450692 0
M  V30 13 N -0.511189 2.852514 -2.045701 0
M  V30 14 C -0.647636 4.013281 -1.163890 0
M  V30 15 C -1.029301 2.883769 -3.418288 0
M  V30 16 N -0.323437 0.921268 -0.478570 0
M  V30 17 N 0.519103 -1.949432 1.683202 0
M  V30 18 H -0.223997 -5.508627 2.518810 0
M  V30 19 H -1.035849 -5.328623 4.078836 0
M  V30 20 H -1.737573 -4.453470 2.604813 0
M  V30 21 H -0.169120 -3.321791 4.504152 0
M  V30 22 H 2.006120 -4.277687 4.121280 0
M  V30 23 H 1.591928 -4.521879 2.322619 0
M  V30 24 H 1.969382 -2.914091 2.951681 0
M  V30 25 H -2.243123 -2.057337 3.188060 0
M  V30 26 H -2.107588 -0.068347 1.312262 0
M  V30 27 H 2.345774 -1.096172 -0.040146 0
M  V30 28 H 3.234582 0.379635 -1.781648 0
M  V30 29 H -1.572905 4.588614 -1.341087 0
M  V30 30 H -0.728163 3.683617 -0.094021 0
M  V30 31 H 0.202722 4.682288 -1.264184 0
M  V30 32 H -0.163992 3.247818 -4.034905 0
M  V30 33 H -1.146315 1.803643 -3.725038 0
M  V30 34 H -1.934257 3.476104 -3.507250 0
M  V30 END ATOM
M  V30 BEGIN BOND
M  V30 1 1 1 2
M  V30 2 1 2 3
M  V30 3 1 2 4
M  V30 4 1 4 5
M  V30 5 2 5 6
M  V30 6 1 6 7
M  V30 7 1 7 8
M  V30 8 2 8 9
M  V30 9 1 9 10
M  V30 10 2 10 11
M  V30 11 1 11 12
M  V30 12 1 12 13
M  V30 13 1 13 14
M  V30 14 1 13 15
M  V30 15 2 12 16
M  V30 16 2 7 17
M  V30 17 1 17 4
M  V30 18 1 16 8
M  V30 19 1 1 18
M  V30 20 1 1 19
M  V30 21 1 1 20
M  V30 22 1 2 21
M  V30 23 1 3 22
M  V30 24 1 3 23
M  V30 25 1 3 24
M  V30 26 1 5 25
M  V30 27 1 6 26
M  V30 28 1 9 27
M  V30 29 1 10 28
M  V30 30 1 14 29
M  V30 31 1 14 30
M  V30 32 1 14 31
M  V30 33 1 15 32
M  V30 34 1 15 33
M  V30 35 1 15 34
M  V30 END BOND
M  V30 END CTAB
M  END
>  <Dataset>  (302) 
ChEMBL_Kinases

>  <Ligand_Instance>  (302) 
nan

>  <PDB_ID>  (302) 
nan

>  <Standardized_SMILES>  (302) 
CC(C)n1ccc(-c2ccnc(N(C)C)n2)n1

>  <Name>  (302) 
nan

>  <Pocket>  (302) 
nan

>  <ATP_Site>  (302) 
nan

>  <Peripheral>  (302) 
nan

>  <Num_H_Atoms_ProtBoundConf>  (302) 
nan

>  <Num_Resolved_Atoms>  (302) 
nan

>  <Num_Not_Resolved_Atoms>  (302) 
nan

$$$$
CHEMBL4873514
     RDKit          3D

  0  0  0  0  0  0  0  0  0  0999 V3000
M  V30 BEGIN CTAB
M  V30 COUNTS 62 68 0 0 0
M  V30 BEGIN ATOM
M  V30 1 C 3.206619 -0.988627 5.192677 0
M  V30 2 C 3.938699 -1.837702 4.178272 0
M  V30 3 N 3.694262 -1.418971 2.809743 0
M  V30 4 C 4.368958 -0.522888 2.043618 0
M  V30 5 O 5.360471 0.106085 2.440702 0
M  V30 6 C 3.781042 -0.435976 0.790025 0
M  V30 7 C 4.037552 0.291319 -0.357806 0
M  V30 8 N 3.248975 0.135658 -1.436911 0
M  V30 9 C 2.218466 -0.727358 -1.385958 0
M  V30 10 N 1.276255 -1.037820 -2.404638 0
M  V30 11 C 0.097695 -0.246210 -2.475867 0
M  V30 12 C -0.041693 0.789528 -1.546197 0
M  V30 13 C -1.189072 1.581961 -1.594529 0
M  V30 14 C -2.169472 1.363972 -2.527119 0
M  V30 15 C -2.040965 0.343769 -3.449065 0
M  V30 16 C -0.903007 -0.444078 -3.403155 0
M  V30 17 C -2.960730 -0.077160 -4.537407 0
M  V30 18 C -4.042460 0.957052 -4.660575 0
M  V30 19 N -4.446469 1.372103 -3.347811 0
M  V30 20 C -3.423022 2.142147 -2.666868 0
M  V30 21 C -3.906825 3.033238 -1.582784 0
M  V30 22 C -3.445365 3.588428 -2.915493 0
M  V30 23 N 1.958396 -1.441276 -0.274137 0
M  V30 24 C 2.714701 -1.332850 0.851155 0
M  V30 25 N 2.694404 -1.905773 2.082825 0
M  V30 26 C 1.682698 -2.873413 2.397448 0
M  V30 27 C 1.803849 -4.238269 2.113849 0
M  V30 28 C 0.748071 -5.063657 2.472389 0
M  V30 29 C -0.376097 -4.545420 3.086270 0
M  V30 30 C -0.469057 -3.187335 3.355537 0
M  V30 31 C -1.697831 -2.674111 4.017479 0
M  V30 32 C -2.922557 -3.162032 3.362349 0
M  V30 33 N -3.905979 -3.554053 2.854814 0
M  V30 34 C -1.620475 -1.151651 4.239737 0
M  V30 35 C -1.743382 -2.133251 5.367059 0
M  V30 36 N 0.587202 -2.401029 2.990247 0
M  V30 37 H 2.227436 -1.410632 5.491523 0
M  V30 38 H 3.048347 0.040012 4.841481 0
M  V30 39 H 3.799343 -0.916777 6.148255 0
M  V30 40 H 3.630578 -2.910082 4.288852 0
M  V30 41 H 5.028250 -1.805033 4.415952 0
M  V30 42 H 4.858924 0.964577 -0.365668 0
M  V30 43 H 1.412626 -1.812157 -3.092507 0
M  V30 44 H 0.689661 1.027643 -0.775196 0
M  V30 45 H -1.402942 2.415705 -0.920511 0
M  V30 46 H -0.679375 -1.281500 -4.073791 0
M  V30 47 H -2.415911 -0.264380 -5.487348 0
M  V30 48 H -3.432564 -1.021751 -4.182989 0
M  V30 49 H -4.950707 0.461752 -5.111362 0
M  V30 50 H -3.732626 1.831432 -5.291956 0
M  V30 51 H -4.789728 0.561672 -2.821850 0
M  V30 52 H -3.273558 3.309181 -0.712977 0
M  V30 53 H -4.988179 3.108738 -1.341105 0
M  V30 54 H -4.191663 4.020215 -3.616523 0
M  V30 55 H -2.459482 4.097755 -2.976576 0
M  V30 56 H 2.718112 -4.555097 1.631973 0
M  V30 57 H 0.897642 -6.122453 2.226272 0
M  V30 58 H -1.135034 -5.269497 3.322202 0
M  V30 59 H -2.458513 -0.572518 3.860945 0
M  V30 60 H -0.632659 -0.655129 4.201799 0
M  V30 61 H -0.934510 -2.235254 6.104156 0
M  V30 62 H -2.748508 -2.133010 5.840787 0
M  V30 END ATOM
M  V30 BEGIN BOND
M  V30 1 1 1 2
M  V30 2 1 2 3
M  V30 3 1 3 4
M  V30 4 2 4 5
M  V30 5 1 4 6
M  V30 6 2 6 7
M  V30 7 1 7 8
M  V30 8 2 8 9
M  V30 9 1 9 10
M  V30 10 1 10 11
M  V30 11 2 11 12
M  V30 12 1 12 13
M  V30 13 2 13 14
M  V30 14 1 14 15
M  V30 15 2 15 16
M  V30 16 1 15 17
M  V30 17 1 17 18
M  V30 18 1 18 19
M  V30 19 1 19 20
M  V30 20 1 20 21
M  V30 21 1 21 22
M  V30 22 1 9 23
M  V30 23 2 23 24
M  V30 24 1 24 25
M  V30 25 1 25 26
M  V30 26 2 26 27
M  V30 27 1 27 28
M  V30 28 2 28 29
M  V30 29 1 29 30
M  V30 30 1 30 31
M  V30 31 1 31 32
M  V30 32 3 32 33
M  V30 33 1 31 34
M  V30 34 1 34 35
M  V30 35 2 30 36
M  V30 36 1 25 3
M  V30 37 1 36 26
M  V30 38 1 24 6
M  V30 39 1 35 31
M  V30 40 1 16 11
M  V30 41 1 22 20
M  V30 42 1 20 14
M  V30 43 1 1 37
M  V30 44 1 1 38
M  V30 45 1 1 39
M  V30 46 1 2 40
M  V30 47 1 2 41
M  V30 48 1 7 42
M  V30 49 1 10 43
M  V30 50 1 12 44
M  V30 51 1 13 45
M  V30 52 1 16 46
M  V30 53 1 17 47
M  V30 54 1 17 48
M  V30 55 1 18 49
M  V30 56 1 18 50
M  V30 57 1 19 51
M  V30 58 1 21 52
M  V30 59 1 21 53
M  V30 60 1 22 54
M  V30 61 1 22 55
M  V30 62 1 27 56
M  V30 63 1 28 57
M  V30 64 1 29 58
M  V30 65 1 34 59
M  V30 66 1 34 60
M  V30 67 1 35 61
M  V30 68 1 35 62
M  V30 END BOND
M  V30 END CTAB
M  END
>  <Dataset>  (303) 
ChEMBL_Kinases

>  <Ligand_Instance>  (303) 
nan

>  <PDB_ID>  (303) 
nan

>  <Standardized_SMILES>  (303) 
CCn1c(=O)c2cnc(Nc3ccc4c(c3)CCNC43CC3)nc2n1-c1cccc(C2(C#N)CC2)n1

>  <Name>  (303) 
nan

>  <Pocket>  (303) 
nan

>  <ATP_Site>  (303) 
nan

>  <Peripheral>  (303) 
nan

>  <Num_H_Atoms_ProtBoundConf>  (303) 
nan

>  <Num_Resolved_Atoms>  (303) 
nan

>  <Num_Not_Resolved_Atoms>  (303) 
nan

$$$$
CHEMBL4873612
     RDKit          3D

  0  0  0  0  0  0  0  0  0  0999 V3000
M  V30 BEGIN CTAB
M  V30 COUNTS 67 71 0 0 0
M  V30 BEGIN ATOM
M  V30 1 O 0.369269 -2.883536 2.879135 0
M  V30 2 C 0.054661 -1.794179 3.393546 0
M  V30 3 N 0.955063 -0.703602 3.266714 0
M  V30 4 C 2.116161 -1.116624 2.521352 0
M  V30 5 C 3.207769 -1.638109 3.184170 0
M  V30 6 N 4.271762 -2.011039 2.435217 0
M  V30 7 C 4.242411 -1.869371 1.102222 0
M  V30 8 C 3.145916 -1.346551 0.447587 0
M  V30 9 O 3.151007 -1.214734 -0.934585 0
M  V30 10 C 4.313770 -1.635065 -1.622152 0
M  V30 11 C 4.219121 -1.451165 -3.118113 0
M  V30 12 C 4.006328 0.013315 -3.405605 0
M  V30 13 C 2.637163 0.492726 -3.079145 0
M  V30 14 N 1.648814 -0.569259 -3.057738 0
M  V30 15 C 0.346284 0.015489 -3.134185 0
M  V30 16 C -0.737512 -0.997921 -3.127338 0
M  V30 17 C -1.322282 -1.585641 -4.246379 0
M  V30 18 C -2.318327 -2.520479 -4.134742 0
M  V30 19 C -2.798300 -2.932261 -2.907649 0
M  V30 20 F -3.776007 -3.849909 -2.802946 0
M  V30 21 C -2.218226 -2.349521 -1.811396 0
M  V30 22 C -1.226638 -1.417783 -1.887340 0
M  V30 23 C 1.964674 -1.483259 -4.130809 0
M  V30 24 C 3.136876 -2.337901 -3.629303 0
M  V30 25 C 2.026861 -0.946308 1.152873 0
M  V30 26 C -1.224647 -1.703686 4.098023 0
M  V30 27 C -1.994555 -2.848819 4.137855 0
M  V30 28 C -3.223801 -2.805809 4.800477 0
M  V30 29 N -3.663446 -1.660627 5.399134 0
M  V30 30 C -2.895387 -0.546889 5.350214 0
M  V30 31 N -3.287936 0.683171 5.951662 0
M  V30 32 C -4.028156 1.506651 5.059994 0
M  V30 33 O -4.318994 1.199871 3.857071 0
M  V30 34 C -4.573403 2.840646 5.386916 0
M  V30 35 C -5.882073 3.297851 4.862893 0
M  V30 36 C -4.583130 3.940562 4.392032 0
M  V30 37 C -1.668484 -0.546141 4.702844 0
M  V30 38 H 0.712528 0.217808 3.689360 0
M  V30 39 H 3.147675 -1.717765 4.266620 0
M  V30 40 H 5.091236 -2.169733 0.534390 0
M  V30 41 H 4.490986 -2.716761 -1.379222 0
M  V30 42 H 5.151996 -1.064615 -1.179855 0
M  V30 43 H 5.191224 -1.791137 -3.529026 0
M  V30 44 H 4.822765 0.595980 -2.948563 0
M  V30 45 H 4.147216 0.122296 -4.506175 0
M  V30 46 H 2.645105 0.948153 -2.067888 0
M  V30 47 H 2.300679 1.298808 -3.777466 0
M  V30 48 H 0.127740 0.701064 -2.291793 0
M  V30 49 H 0.220844 0.658683 -4.050856 0
M  V30 50 H -0.950446 -1.262078 -5.203242 0
M  V30 51 H -2.712844 -2.922007 -5.047833 0
M  V30 52 H -2.586436 -2.663983 -0.823498 0
M  V30 53 H -0.835248 -1.018805 -0.966722 0
M  V30 54 H 1.120644 -2.140887 -4.427442 0
M  V30 55 H 2.319111 -0.868356 -4.987638 0
M  V30 56 H 2.736975 -3.060859 -2.893398 0
M  V30 57 H 3.491935 -2.878472 -4.539987 0
M  V30 58 H 1.143432 -0.531355 0.690214 0
M  V30 59 H -1.740377 -3.807556 3.696435 0
M  V30 60 H -3.913409 -3.650626 4.894271 0
M  V30 61 H -3.113218 1.042663 6.912538 0
M  V30 62 H -4.342381 3.154815 6.432774 0
M  V30 63 H -6.538569 3.955747 5.470850 0
M  V30 64 H -6.431418 2.748235 4.071559 0
M  V30 65 H -4.289291 3.776469 3.326310 0
M  V30 66 H -4.400010 4.986355 4.718638 0
M  V30 67 H -1.070288 0.333609 4.668913 0
M  V30 END ATOM
M  V30 BEGIN BOND
M  V30 1 2 1 2
M  V30 2 1 2 3
M  V30 3 1 3 4
M  V30 4 2 4 5
M  V30 5 1 5 6
M  V30 6 2 6 7
M  V30 7 1 7 8
M  V30 8 1 8 9
M  V30 9 1 9 10
M  V30 10 1 10 11
M  V30 11 1 11 12
M  V30 12 1 12 13
M  V30 13 1 13 14
M  V30 14 1 14 15
M  V30 15 1 15 16
M  V30 16 2 16 17
M  V30 17 1 17 18
M  V30 18 2 18 19
M  V30 19 1 19 20
M  V30 20 1 19 21
M  V30 21 2 21 22
M  V30 22 1 14 23
M  V30 23 1 23 24
M  V30 24 2 8 25
M  V30 25 1 2 26
M  V30 26 2 26 27
M  V30 27 1 27 28
M  V30 28 2 28 29
M  V30 29 1 29 30
M  V30 30 1 30 31
M  V30 31 1 31 32
M  V30 32 2 32 33
M  V30 33 1 32 34
M  V30 34 1 34 35
M  V30 35 1 35 36
M  V30 36 2 30 37
M  V30 37 1 25 4
M  V30 38 1 37 26
M  V30 39 1 24 11
M  V30 40 1 36 34
M  V30 41 1 22 16
M  V30 42 1 3 38
M  V30 43 1 5 39
M  V30 44 1 7 40
M  V30 45 1 10 41
M  V30 46 1 10 42
M  V30 47 1 11 43
M  V30 48 1 12 44
M  V30 49 1 12 45
M  V30 50 1 13 46
M  V30 51 1 13 47
M  V30 52 1 15 48
M  V30 53 1 15 49
M  V30 54 1 17 50
M  V30 55 1 18 51
M  V30 56 1 21 52
M  V30 57 1 22 53
M  V30 58 1 23 54
M  V30 59 1 23 55
M  V30 60 1 24 56
M  V30 61 1 24 57
M  V30 62 1 25 58
M  V30 63 1 27 59
M  V30 64 1 28 60
M  V30 65 1 31 61
M  V30 66 1 34 62
M  V30 67 1 35 63
M  V30 68 1 35 64
M  V30 69 1 36 65
M  V30 70 1 36 66
M  V30 71 1 37 67
M  V30 END BOND
M  V30 END CTAB
M  END
>  <Dataset>  (304) 
ChEMBL_Kinases

>  <Ligand_Instance>  (304) 
nan

>  <PDB_ID>  (304) 
nan

>  <Standardized_SMILES>  (304) 
O=C(Nc1cncc(OCC2CCN(Cc3ccc(F)cc3)CC2)c1)c1ccnc(NC(=O)C2CC2)c1

>  <Name>  (304) 
nan

>  <Pocket>  (304) 
nan

>  <ATP_Site>  (304) 
nan

>  <Peripheral>  (304) 
nan

>  <Num_H_Atoms_ProtBoundConf>  (304) 
nan

>  <Num_Resolved_Atoms>  (304) 
nan

>  <Num_Not_Resolved_Atoms>  (304) 
nan

$$$$
CHEMBL4873626
     RDKit          3D

  0  0  0  0  0  0  0  0  0  0999 V3000
M  V30 BEGIN CTAB
M  V30 COUNTS 41 43 0 0 0
M  V30 BEGIN ATOM
M  V30 1 C -1.902270 -4.330628 1.351096 0
M  V30 2 O -1.913427 -3.344443 2.347919 0
M  V30 3 C -0.958861 -2.348884 2.392149 0
M  V30 4 C 0.029614 -2.328935 1.427620 0
M  V30 5 C 1.004556 -1.350215 1.434737 0
M  V30 6 N 2.042990 -1.292610 0.458064 0
M  V30 7 C 1.679783 -0.514480 -0.666360 0
M  V30 8 O 0.551989 0.050505 -0.758129 0
M  V30 9 C 2.497086 -0.240155 -1.855588 0 CFG=2
M  V30 10 N 3.809083 -0.859091 -1.819044 0
M  V30 11 C 2.709447 1.241696 -2.058539 0
M  V30 12 C 1.414902 1.988839 -2.240664 0
M  V30 13 C 1.577828 3.509774 -2.452114 0
M  V30 14 C 0.944923 2.961541 -1.229983 0
M  V30 15 C 0.967548 -0.392353 2.428861 0
M  V30 16 C -0.038660 -0.450995 3.372382 0
M  V30 17 C -1.029555 -1.411388 3.399466 0
M  V30 18 C -2.041055 -1.371234 4.446991 0
M  V30 19 C -3.110456 -2.207478 4.676373 0
M  V30 20 N -3.811930 -1.815998 5.766219 0
M  V30 21 C -3.133710 -0.720008 6.186003 0
M  V30 22 O -2.114318 -0.486612 5.403985 0
M  V30 23 H -1.034740 -4.997494 1.542955 0
M  V30 24 H -1.764754 -3.871783 0.329840 0
M  V30 25 H -2.840159 -4.894221 1.277832 0
M  V30 26 H 0.078678 -3.060217 0.648045 0
M  V30 27 H 2.991893 -1.716333 0.440380 0
M  V30 28 H 2.019175 -0.621735 -2.796579 0
M  V30 29 H 3.699659 -1.881893 -1.814087 0
M  V30 30 H 4.253820 -0.609497 -2.745845 0
M  V30 31 H 3.296886 1.413926 -2.984051 0
M  V30 32 H 3.288464 1.700627 -1.230070 0
M  V30 33 H 0.645492 1.525030 -2.884793 0
M  V30 34 H 0.993406 3.980810 -3.264391 0
M  V30 35 H 2.597974 3.920535 -2.361475 0
M  V30 36 H 1.488035 3.123448 -0.274796 0
M  V30 37 H -0.149135 3.117403 -1.134111 0
M  V30 38 H 1.698485 0.395394 2.488141 0
M  V30 39 H -0.049842 0.310949 4.144994 0
M  V30 40 H -3.393485 -3.065589 4.100717 0
M  V30 41 H -3.442524 -0.152259 7.060932 0
M  V30 END ATOM
M  V30 BEGIN BOND
M  V30 1 1 1 2
M  V30 2 1 2 3
M  V30 3 2 3 4
M  V30 4 1 4 5
M  V30 5 1 5 6
M  V30 6 1 6 7
M  V30 7 2 7 8
M  V30 8 1 7 9
M  V30 9 1 9 10
M  V30 10 1 9 11
M  V30 11 1 11 12
M  V30 12 1 12 13
M  V30 13 1 13 14
M  V30 14 2 5 15
M  V30 15 1 15 16
M  V30 16 2 16 17
M  V30 17 1 17 18
M  V30 18 2 18 19
M  V30 19 1 19 20
M  V30 20 2 20 21
M  V30 21 1 21 22
M  V30 22 1 17 3
M  V30 23 1 22 18
M  V30 24 1 14 12
M  V30 25 1 1 23
M  V30 26 1 1 24
M  V30 27 1 1 25
M  V30 28 1 4 26
M  V30 29 1 6 27
M  V30 30 1 9 28 CFG=3
M  V30 31 1 10 29
M  V30 32 1 10 30
M  V30 33 1 11 31
M  V30 34 1 11 32
M  V30 35 1 12 33
M  V30 36 1 13 34
M  V30 37 1 13 35
M  V30 38 1 14 36
M  V30 39 1 14 37
M  V30 40 1 15 38
M  V30 41 1 16 39
M  V30 42 1 19 40
M  V30 43 1 21 41
M  V30 END BOND
M  V30 END CTAB
M  END
>  <Dataset>  (305) 
ChEMBL_Kinases

>  <Ligand_Instance>  (305) 
nan

>  <PDB_ID>  (305) 
nan

>  <Standardized_SMILES>  (305) 
COc1cc(NC(=O)[C@H](N)CC2CC2)ccc1-c1cnco1

>  <Name>  (305) 
nan

>  <Pocket>  (305) 
nan

>  <ATP_Site>  (305) 
nan

>  <Peripheral>  (305) 
nan

>  <Num_H_Atoms_ProtBoundConf>  (305) 
nan

>  <Num_Resolved_Atoms>  (305) 
nan

>  <Num_Not_Resolved_Atoms>  (305) 
nan

$$$$
CHEMBL3702102
     RDKit          3D

  0  0  0  0  0  0  0  0  0  0999 V3000
M  V30 BEGIN CTAB
M  V30 COUNTS 61 66 0 0 0
M  V30 BEGIN ATOM
M  V30 1 O 5.161918 -5.794235 5.390526 0
M  V30 2 C 5.091487 -5.556845 4.013810 0
M  V30 3 C 3.775653 -4.885921 3.694922 0 CFG=1
M  V30 4 C 3.745739 -4.661955 2.184431 0
M  V30 5 N 2.527464 -3.900467 1.912269 0
M  V30 6 C 2.448076 -2.691127 1.208272 0
M  V30 7 C 1.249771 -1.990593 1.223264 0
M  V30 8 C 1.066990 -0.804409 0.564064 0
M  V30 9 C 2.101406 -0.246654 -0.161613 0
M  V30 10 N 2.009883 0.986303 -0.867420 0
M  V30 11 C 0.767400 1.709880 -0.802997 0
M  V30 12 N 1.087086 2.980954 -0.417963 0
M  V30 13 C 0.092010 3.908992 -0.265372 0
M  V30 14 C -1.209646 3.506876 -0.511408 0
M  V30 15 C -2.422066 4.201550 -0.439066 0
M  V30 16 C -2.709740 5.516569 -0.100176 0
M  V30 17 C -4.038635 5.892163 -0.124779 0
M  V30 18 N -4.988671 4.980394 -0.471682 0
M  V30 19 C -4.662940 3.716032 -0.792622 0
M  V30 20 C -3.364091 3.264489 -0.792360 0
M  V30 21 N -2.807329 2.076028 -1.067505 0
M  V30 22 C -3.473145 0.861340 -1.476330 0
M  V30 23 C -2.481822 -0.249263 -1.769794 0
M  V30 24 C -3.397950 -1.293268 -2.413057 0
M  V30 25 C -4.577992 -0.500712 -2.991675 0
M  V30 26 C -4.140644 0.964715 -2.832615 0
M  V30 27 C -1.485715 2.213991 -0.897586 0
M  V30 28 N -0.502479 1.336024 -1.038635 0
M  V30 29 N 3.263909 -0.951958 -0.160997 0
M  V30 30 C 3.438308 -2.106015 0.482198 0
M  V30 31 C 1.355706 -4.534988 2.447431 0
M  V30 32 C 1.671839 -5.864458 3.092863 0
M  V30 33 N 2.710525 -5.744955 4.096333 0
M  V30 34 H 4.342705 -5.527337 5.851052 0
M  V30 35 H 5.935019 -4.928035 3.654574 0
M  V30 36 H 5.096038 -6.540290 3.479795 0
M  V30 37 H 3.716221 -3.889540 4.215436 0
M  V30 38 H 3.679832 -5.672569 1.719678 0
M  V30 39 H 4.652816 -4.131202 1.876417 0
M  V30 40 H 0.371680 -2.345396 1.764207 0
M  V30 41 H 0.112487 -0.267844 0.591445 0
M  V30 42 H 2.825283 1.309169 -1.396735 0
M  V30 43 H 0.300565 4.943319 0.040516 0
M  V30 44 H -1.947663 6.220320 0.172050 0
M  V30 45 H -4.376326 6.891878 0.123545 0
M  V30 46 H -5.475725 3.073752 -1.048287 0
M  V30 47 H -4.213081 0.509743 -0.738496 0
M  V30 48 H -1.812351 0.108790 -2.600563 0
M  V30 49 H -1.936634 -0.614097 -0.905333 0
M  V30 50 H -2.853459 -1.853587 -3.204654 0
M  V30 51 H -3.796918 -1.966531 -1.627443 0
M  V30 52 H -4.777747 -0.774081 -4.031900 0
M  V30 53 H -5.478035 -0.592040 -2.330746 0
M  V30 54 H -3.353601 1.195233 -3.609005 0
M  V30 55 H -4.987329 1.643435 -2.882557 0
M  V30 56 H 4.396041 -2.630337 0.448579 0
M  V30 57 H 0.627407 -4.782242 1.625902 0
M  V30 58 H 0.837678 -3.858424 3.143803 0
M  V30 59 H 1.942215 -6.606925 2.294681 0
M  V30 60 H 0.751852 -6.222534 3.590899 0
M  V30 61 H 3.090909 -6.691722 4.303840 0
M  V30 END ATOM
M  V30 BEGIN BOND
M  V30 1 1 1 2
M  V30 2 1 2 3
M  V30 3 1 3 4
M  V30 4 1 4 5
M  V30 5 1 5 6
M  V30 6 2 6 7
M  V30 7 1 7 8
M  V30 8 2 8 9
M  V30 9 1 9 10
M  V30 10 1 10 11
M  V30 11 2 11 12
M  V30 12 1 12 13
M  V30 13 2 13 14
M  V30 14 1 14 15
M  V30 15 2 15 16
M  V30 16 1 16 17
M  V30 17 2 17 18
M  V30 18 1 18 19
M  V30 19 2 19 20
M  V30 20 1 20 21
M  V30 21 1 21 22
M  V30 22 1 22 23
M  V30 23 1 23 24
M  V30 24 1 24 25
M  V30 25 1 25 26
M  V30 26 1 21 27
M  V30 27 2 27 28
M  V30 28 1 9 29
M  V30 29 2 29 30
M  V30 30 1 5 31
M  V30 31 1 31 32
M  V30 32 1 32 33
M  V30 33 1 33 3
M  V30 34 1 30 6
M  V30 35 1 28 11
M  V30 36 1 27 14
M  V30 37 1 20 15
M  V30 38 1 26 22
M  V30 39 1 1 34
M  V30 40 1 2 35
M  V30 41 1 2 36
M  V30 42 1 3 37 CFG=1
M  V30 43 1 4 38
M  V30 44 1 4 39
M  V30 45 1 7 40
M  V30 46 1 8 41
M  V30 47 1 10 42
M  V30 48 1 13 43
M  V30 49 1 16 44
M  V30 50 1 17 45
M  V30 51 1 19 46
M  V30 52 1 22 47
M  V30 53 1 23 48
M  V30 54 1 23 49
M  V30 55 1 24 50
M  V30 56 1 24 51
M  V30 57 1 25 52
M  V30 58 1 25 53
M  V30 59 1 26 54
M  V30 60 1 26 55
M  V30 61 1 30 56
M  V30 62 1 31 57
M  V30 63 1 31 58
M  V30 64 1 32 59
M  V30 65 1 32 60
M  V30 66 1 33 61
M  V30 END BOND
M  V30 END CTAB
M  END
>  <Dataset>  (306) 
ChEMBL_Kinases

>  <Ligand_Instance>  (306) 
nan

>  <PDB_ID>  (306) 
nan

>  <Standardized_SMILES>  (306) 
OC[C@H]1CN(c2ccc(Nc3ncc4c5ccncc5n(C5CCCC5)c4n3)nc2)CCN1

>  <Name>  (306) 
nan

>  <Pocket>  (306) 
nan

>  <ATP_Site>  (306) 
nan

>  <Peripheral>  (306) 
nan

>  <Num_H_Atoms_ProtBoundConf>  (306) 
nan

>  <Num_Resolved_Atoms>  (306) 
nan

>  <Num_Not_Resolved_Atoms>  (306) 
nan

$$$$
CHEMBL75978
     RDKit          3D

  0  0  0  0  0  0  0  0  0  0999 V3000
M  V30 BEGIN CTAB
M  V30 COUNTS 48 50 0 0 0
M  V30 BEGIN ATOM
M  V30 1 C -3.187367 -6.140251 2.024860 0
M  V30 2 O -3.437739 -5.513144 0.804855 0
M  V30 3 C -2.856707 -4.315639 0.423323 0
M  V30 4 C -1.998670 -3.835552 1.438948 0
M  V30 5 C -1.353005 -2.631188 1.168763 0
M  V30 6 C -1.516531 -1.926455 -0.002851 0
M  V30 7 C -0.789205 -0.677259 -0.185384 0
M  V30 8 C -0.861920 0.173876 -1.258994 0
M  V30 9 C -0.097204 1.320375 -1.262745 0
M  V30 10 O -0.158856 2.107611 -2.246166 0
M  V30 11 C 0.769337 1.682653 -0.221320 0
M  V30 12 C 1.497820 2.849614 -0.311387 0
M  V30 13 O 1.434163 3.710919 -1.383612 0
M  V30 14 C 2.294690 3.038408 0.805217 0
M  V30 15 O 3.103147 4.186616 0.862837 0
M  V30 16 C 4.423450 4.238791 0.392227 0
M  V30 17 C 2.370852 2.193198 1.880203 0
M  V30 18 O 3.169021 2.393897 2.989193 0
M  V30 19 C 4.484078 1.891492 3.123283 0
M  V30 20 C 1.584611 1.036640 1.863922 0
M  V30 21 O 1.679730 0.183137 2.978974 0
M  V30 22 C 0.773506 0.461489 4.040678 0
M  V30 23 C 0.756758 0.753327 0.797676 0
M  V30 24 O 0.030422 -0.319181 0.784006 0
M  V30 25 C -2.371994 -2.427845 -0.990124 0
M  V30 26 C -3.030468 -3.610201 -0.767705 0
M  V30 27 O -3.874480 -4.314782 -1.483258 0
M  V30 28 C -4.527035 -4.383143 -2.676567 0
M  V30 29 H -3.609006 -5.505112 2.839647 0
M  V30 30 H -3.756941 -7.102177 2.061175 0
M  V30 31 H -2.120555 -6.295885 2.242828 0
M  V30 32 H -1.787461 -4.289245 2.399060 0
M  V30 33 H -0.679943 -2.230617 1.935277 0
M  V30 34 H -1.529419 -0.108376 -2.051825 0
M  V30 35 H 2.240256 3.793530 -2.002125 0
M  V30 36 H 5.183611 4.091913 1.178131 0
M  V30 37 H 4.613246 5.266843 -0.041077 0
M  V30 38 H 4.534842 3.449823 -0.381227 0
M  V30 39 H 4.501101 0.823314 3.494137 0
M  V30 40 H 5.063625 1.930543 2.185269 0
M  V30 41 H 5.018438 2.460518 3.907895 0
M  V30 42 H 1.270448 0.329608 5.039426 0
M  V30 43 H 0.456645 1.519335 4.033963 0
M  V30 44 H -0.079940 -0.245734 4.027609 0
M  V30 45 H -2.546282 -1.944400 -1.910786 0
M  V30 46 H -5.108464 -3.433856 -2.859139 0
M  V30 47 H -3.893941 -4.631946 -3.558320 0
M  V30 48 H -5.336636 -5.172696 -2.634045 0
M  V30 END ATOM
M  V30 BEGIN BOND
M  V30 1 1 1 2
M  V30 2 1 2 3
M  V30 3 2 3 4
M  V30 4 1 4 5
M  V30 5 2 5 6
M  V30 6 1 6 7
M  V30 7 2 7 8
M  V30 8 1 8 9
M  V30 9 2 9 10
M  V30 10 1 9 11
M  V30 11 2 11 12
M  V30 12 1 12 13
M  V30 13 1 12 14
M  V30 14 1 14 15
M  V30 15 1 15 16
M  V30 16 2 14 17
M  V30 17 1 17 18
M  V30 18 1 18 19
M  V30 19 1 17 20
M  V30 20 1 20 21
M  V30 21 1 21 22
M  V30 22 2 20 23
M  V30 23 1 23 24
M  V30 24 1 6 25
M  V30 25 2 25 26
M  V30 26 1 26 27
M  V30 27 1 27 28
M  V30 28 1 26 3
M  V30 29 1 24 7
M  V30 30 1 23 11
M  V30 31 1 1 29
M  V30 32 1 1 30
M  V30 33 1 1 31
M  V30 34 1 4 32
M  V30 35 1 5 33
M  V30 36 1 8 34
M  V30 37 1 13 35
M  V30 38 1 16 36
M  V30 39 1 16 37
M  V30 40 1 16 38
M  V30 41 1 19 39
M  V30 42 1 19 40
M  V30 43 1 19 41
M  V30 44 1 22 42
M  V30 45 1 22 43
M  V30 46 1 22 44
M  V30 47 1 25 45
M  V30 48 1 28 46
M  V30 49 1 28 47
M  V30 50 1 28 48
M  V30 END BOND
M  V30 END CTAB
M  END
>  <Dataset>  (307) 
ChEMBL_Kinases

>  <Ligand_Instance>  (307) 
nan

>  <PDB_ID>  (307) 
nan

>  <Standardized_SMILES>  (307) 
COc1ccc(-c2cc(=O)c3c(O)c(OC)c(OC)c(OC)c3o2)cc1OC

>  <Name>  (307) 
5-DEMETHYLNOBILETIN

>  <Pocket>  (307) 
nan

>  <ATP_Site>  (307) 
nan

>  <Peripheral>  (307) 
nan

>  <Num_H_Atoms_ProtBoundConf>  (307) 
nan

>  <Num_Resolved_Atoms>  (307) 
nan

>  <Num_Not_Resolved_Atoms>  (307) 
nan

$$$$
CHEMBL4873680
     RDKit          3D

  0  0  0  0  0  0  0  0  0  0999 V3000
M  V30 BEGIN CTAB
M  V30 COUNTS 34 37 0 0 0
M  V30 BEGIN ATOM
M  V30 1 O 0.041859 -6.383608 3.740057 0
M  V30 2 C 0.226010 -5.163111 3.550118 0
M  V30 3 C 0.158502 -4.382893 2.321863 0
M  V30 4 C -0.155040 -5.056872 1.160892 0
M  V30 5 C -0.208749 -4.282036 0.020687 0
M  V30 6 C 0.040049 -2.926657 0.074315 0
M  V30 7 C 0.351387 -2.297479 1.269485 0
M  V30 8 C 0.413677 -3.052928 2.440454 0
M  V30 9 N 0.547753 -0.967864 1.037000 0
M  V30 10 C 0.360647 -0.772379 -0.287774 0
M  V30 11 C 0.439602 0.387527 -1.042485 0
M  V30 12 N 0.763931 1.638440 -0.427075 0
M  V30 13 C -0.217248 2.502170 0.090308 0
M  V30 14 O -1.450895 2.257222 0.059574 0
M  V30 15 C 0.195797 3.796261 0.721020 0
M  V30 16 C -0.808035 4.888075 0.738771 0
M  V30 17 C -0.559387 4.089791 2.005161 0
M  V30 18 N 0.218930 0.400316 -2.374719 0
M  V30 19 C -0.092782 -0.757657 -3.012978 0
M  V30 20 C -0.177775 -1.934189 -2.276765 0
M  V30 21 C 0.045330 -1.959010 -0.917271 0
M  V30 22 H 0.458306 -4.771326 4.524009 0
M  V30 23 H -0.344477 -6.141044 1.175216 0
M  V30 24 H -0.449204 -4.750417 -0.920930 0
M  V30 25 H 0.653116 -2.593703 3.385646 0
M  V30 26 H 0.793534 -0.283512 1.782072 0
M  V30 27 H 1.784931 1.918732 -0.361932 0
M  V30 28 H 1.271371 4.027177 0.756688 0
M  V30 29 H -0.425338 5.937117 0.758298 0
M  V30 30 H -1.717920 4.720444 0.141302 0
M  V30 31 H -0.055896 4.606343 2.835911 0
M  V30 32 H -1.404010 3.435050 2.308949 0
M  V30 33 H -0.276312 -0.791464 -4.073987 0
M  V30 34 H -0.423272 -2.879998 -2.743638 0
M  V30 END ATOM
M  V30 BEGIN BOND
M  V30 1 2 1 2
M  V30 2 1 2 3
M  V30 3 2 3 4
M  V30 4 1 4 5
M  V30 5 2 5 6
M  V30 6 1 6 7
M  V30 7 2 7 8
M  V30 8 1 7 9
M  V30 9 1 9 10
M  V30 10 2 10 11
M  V30 11 1 11 12
M  V30 12 1 12 13
M  V30 13 2 13 14
M  V30 14 1 13 15
M  V30 15 1 15 16
M  V30 16 1 16 17
M  V30 17 1 11 18
M  V30 18 2 18 19
M  V30 19 1 19 20
M  V30 20 2 20 21
M  V30 21 1 8 3
M  V30 22 1 21 10
M  V30 23 1 21 6
M  V30 24 1 17 15
M  V30 25 1 2 22
M  V30 26 1 4 23
M  V30 27 1 5 24
M  V30 28 1 8 25
M  V30 29 1 9 26
M  V30 30 1 12 27
M  V30 31 1 15 28
M  V30 32 1 16 29
M  V30 33 1 16 30
M  V30 34 1 17 31
M  V30 35 1 17 32
M  V30 36 1 19 33
M  V30 37 1 20 34
M  V30 END BOND
M  V30 END CTAB
M  END
>  <Dataset>  (308) 
ChEMBL_Kinases

>  <Ligand_Instance>  (308) 
nan

>  <PDB_ID>  (308) 
nan

>  <Standardized_SMILES>  (308) 
O=Cc1ccc2c(c1)[nH]c1c(NC(=O)C3CC3)nccc12

>  <Name>  (308) 
nan

>  <Pocket>  (308) 
nan

>  <ATP_Site>  (308) 
nan

>  <Peripheral>  (308) 
nan

>  <Num_H_Atoms_ProtBoundConf>  (308) 
nan

>  <Num_Resolved_Atoms>  (308) 
nan

>  <Num_Not_Resolved_Atoms>  (308) 
nan

$$$$
CHEMBL3702097
     RDKit          3D

  0  0  0  0  0  0  0  0  0  0999 V3000
M  V30 BEGIN CTAB
M  V30 COUNTS 63 68 0 0 0
M  V30 BEGIN ATOM
M  V30 1 C 3.510084 0.728429 6.487167 0
M  V30 2 O 3.930957 1.600143 5.435885 0
M  V30 3 C 4.428475 1.123690 4.247370 0
M  V30 4 O 4.450196 -0.151310 4.243089 0
M  V30 5 N 4.933997 1.566981 3.003985 0
M  V30 6 C 5.341624 0.551144 2.047418 0
M  V30 7 C 4.504086 0.611487 0.797678 0
M  V30 8 N 3.604326 1.773738 0.826453 0
M  V30 9 C 2.206769 1.736018 0.577260 0
M  V30 10 C 1.445761 0.590096 0.653274 0
M  V30 11 C 0.082229 0.557537 0.390715 0
M  V30 12 C -0.482305 1.769391 0.039840 0
M  V30 13 N -1.874784 1.815181 -0.242211 0
M  V30 14 C -2.729069 0.684847 -0.143362 0
M  V30 15 N -3.625978 0.811488 0.842508 0
M  V30 16 C -4.488911 -0.196665 1.051293 0
M  V30 17 C -4.474123 -1.355251 0.278012 0
M  V30 18 C -5.246119 -2.494343 0.315273 0
M  V30 19 C -6.291651 -2.880756 1.115180 0
M  V30 20 C -6.889701 -4.106674 0.922629 0
M  V30 21 N -6.385575 -4.859080 -0.070432 0
M  V30 22 C -5.362548 -4.481465 -0.853527 0
M  V30 23 F -4.953785 -5.339699 -1.809392 0
M  V30 24 C -4.725225 -3.267911 -0.708438 0
M  V30 25 N -3.706542 -2.658957 -1.338188 0
M  V30 26 C -2.902645 -3.054415 -2.391505 0
M  V30 27 C -3.029160 -4.151198 -3.278628 0
M  V30 28 C -1.890167 -3.783971 -4.283889 0
M  V30 29 C -0.778014 -3.417718 -3.323814 0
M  V30 30 C -1.428458 -3.256582 -1.958645 0
M  V30 31 C -3.554357 -1.453742 -0.711044 0
M  V30 32 N -2.688924 -0.423166 -0.908556 0
M  V30 33 N 0.236027 2.902642 -0.042128 0
M  V30 34 C 1.558055 2.895816 0.220089 0
M  V30 35 C 4.344474 2.969514 1.161338 0
M  V30 36 C 5.166247 2.861963 2.400646 0
M  V30 37 H 3.559573 -0.334809 6.180542 0
M  V30 38 H 2.427516 0.938511 6.734762 0
M  V30 39 H 4.062837 0.892941 7.430243 0
M  V30 40 H 6.422486 0.719007 1.807179 0
M  V30 41 H 5.228196 -0.452949 2.493505 0
M  V30 42 H 5.189701 0.784788 -0.062162 0
M  V30 43 H 3.909691 -0.298112 0.708145 0
M  V30 44 H 1.896604 -0.342974 0.926524 0
M  V30 45 H -0.501417 -0.352445 0.455526 0
M  V30 46 H -2.332374 2.691300 -0.534588 0
M  V30 47 H -5.239289 -0.162392 1.826414 0
M  V30 48 H -6.606156 -2.184384 1.879679 0
M  V30 49 H -7.703413 -4.347321 1.584827 0
M  V30 50 H -2.776440 -2.129739 -3.054871 0
M  V30 51 H -2.584861 -5.147937 -2.970733 0
M  V30 52 H -3.884513 -4.248923 -3.973794 0
M  V30 53 H -2.168060 -2.855346 -4.825726 0
M  V30 54 H -1.665544 -4.629107 -4.940490 0
M  V30 55 H -0.321003 -2.433160 -3.569761 0
M  V30 56 H -0.009564 -4.216072 -3.263178 0
M  V30 57 H -1.380728 -4.236982 -1.412387 0
M  V30 58 H -1.056906 -2.415786 -1.378853 0
M  V30 59 H 1.997676 3.867291 0.112235 0
M  V30 60 H 4.916882 3.357011 0.289328 0
M  V30 61 H 3.549985 3.747560 1.368660 0
M  V30 62 H 6.252509 2.947554 2.118234 0
M  V30 63 H 4.925879 3.692709 3.097691 0
M  V30 END ATOM
M  V30 BEGIN BOND
M  V30 1 1 1 2
M  V30 2 1 2 3
M  V30 3 2 3 4
M  V30 4 1 3 5
M  V30 5 1 5 6
M  V30 6 1 6 7
M  V30 7 1 7 8
M  V30 8 1 8 9
M  V30 9 2 9 10
M  V30 10 1 10 11
M  V30 11 2 11 12
M  V30 12 1 12 13
M  V30 13 1 13 14
M  V30 14 2 14 15
M  V30 15 1 15 16
M  V30 16 2 16 17
M  V30 17 1 17 18
M  V30 18 2 18 19
M  V30 19 1 19 20
M  V30 20 2 20 21
M  V30 21 1 21 22
M  V30 22 1 22 23
M  V30 23 2 22 24
M  V30 24 1 24 25
M  V30 25 1 25 26
M  V30 26 1 26 27
M  V30 27 1 27 28
M  V30 28 1 28 29
M  V30 29 1 29 30
M  V30 30 1 25 31
M  V30 31 2 31 32
M  V30 32 1 12 33
M  V30 33 2 33 34
M  V30 34 1 8 35
M  V30 35 1 35 36
M  V30 36 1 36 5
M  V30 37 1 34 9
M  V30 38 1 32 14
M  V30 39 1 31 17
M  V30 40 1 24 18
M  V30 41 1 30 26
M  V30 42 1 1 37
M  V30 43 1 1 38
M  V30 44 1 1 39
M  V30 45 1 6 40
M  V30 46 1 6 41
M  V30 47 1 7 42
M  V30 48 1 7 43
M  V30 49 1 10 44
M  V30 50 1 11 45
M  V30 51 1 13 46
M  V30 52 1 16 47
M  V30 53 1 19 48
M  V30 54 1 20 49
M  V30 55 1 26 50
M  V30 56 1 27 51
M  V30 57 1 27 52
M  V30 58 1 28 53
M  V30 59 1 28 54
M  V30 60 1 29 55
M  V30 61 1 29 56
M  V30 62 1 30 57
M  V30 63 1 30 58
M  V30 64 1 34 59
M  V30 65 1 35 60
M  V30 66 1 35 61
M  V30 67 1 36 62
M  V30 68 1 36 63
M  V30 END BOND
M  V30 END CTAB
M  END
>  <Dataset>  (309) 
ChEMBL_Kinases

>  <Ligand_Instance>  (309) 
nan

>  <PDB_ID>  (309) 
nan

>  <Standardized_SMILES>  (309) 
COC(=O)N1CCN(c2ccc(Nc3ncc4c5ccnc(F)c5n(C5CCCC5)c4n3)nc2)CC1

>  <Name>  (309) 
nan

>  <Pocket>  (309) 
nan

>  <ATP_Site>  (309) 
nan

>  <Peripheral>  (309) 
nan

>  <Num_H_Atoms_ProtBoundConf>  (309) 
nan

>  <Num_Resolved_Atoms>  (309) 
nan

>  <Num_Not_Resolved_Atoms>  (309) 
nan

$$$$
CHEMBL3702098
     RDKit          3D

  0  0  0  0  0  0  0  0  0  0999 V3000
M  V30 BEGIN CTAB
M  V30 COUNTS 70 75 0 0 0
M  V30 BEGIN ATOM
M  V30 1 C 3.078183 -3.957951 3.561220 0
M  V30 2 N 2.286304 -4.239971 2.431961 0
M  V30 3 C 0.945101 -4.629001 2.621350 0
M  V30 4 C 2.906349 -4.495534 1.191479 0
M  V30 5 C 3.547032 -3.329939 0.585919 0
M  V30 6 O 4.063669 -3.675396 -0.508632 0
M  V30 7 N 3.963866 -1.972923 0.472396 0
M  V30 8 C 4.667520 -1.846696 -0.818164 0
M  V30 9 C 4.896371 -0.382517 -1.133320 0
M  V30 10 N 4.004927 0.446732 -0.308149 0
M  V30 11 C 2.915047 1.254842 -0.730900 0
M  V30 12 C 1.854121 0.408174 -1.108480 0
M  V30 13 C 0.666692 1.013150 -1.556889 0
M  V30 14 C 0.509900 2.389389 -1.638000 0
M  V30 15 N -0.732041 2.993234 -2.065682 0
M  V30 16 C -1.708057 1.987613 -2.329008 0
M  V30 17 N -2.254261 1.385141 -3.427059 0
M  V30 18 C -3.156234 0.407734 -3.296040 0
M  V30 19 C -3.574255 -0.034741 -2.067494 0
M  V30 20 C -4.447443 -0.998448 -1.648912 0
M  V30 21 C -5.231238 -1.871641 -2.380071 0
M  V30 22 C -6.029211 -2.762547 -1.695624 0
M  V30 23 N -6.013220 -2.747015 -0.344017 0
M  V30 24 C -5.239988 -1.885788 0.346660 0
M  V30 25 F -5.310640 -1.981386 1.691576 0
M  V30 26 C -4.418038 -0.967614 -0.268696 0
M  V30 27 N -3.565316 -0.024217 0.161016 0
M  V30 28 C -3.290865 0.280162 1.546406 0
M  V30 29 C -4.566176 0.773851 2.182143 0
M  V30 30 C -4.415242 2.254516 2.433373 0
M  V30 31 C -3.087976 2.652968 1.854299 0
M  V30 32 C -2.321477 1.378903 1.766141 0
M  V30 33 C -3.036873 0.559081 -0.944519 0
M  V30 34 N -2.154091 1.515721 -1.156729 0
M  V30 35 N 1.556542 3.155187 -1.266098 0
M  V30 36 C 2.701982 2.607305 -0.833517 0
M  V30 37 C 4.380171 0.287405 1.082272 0
M  V30 38 C 3.677530 -1.007911 1.515884 0
M  V30 39 H 3.179760 -4.861217 4.239124 0
M  V30 40 H 2.531093 -3.222740 4.214472 0
M  V30 41 H 4.065313 -3.525433 3.355962 0
M  V30 42 H 0.366342 -3.732049 2.991831 0
M  V30 43 H 0.753145 -5.515606 3.237981 0
M  V30 44 H 0.501933 -4.832410 1.617157 0
M  V30 45 H 3.630509 -5.345702 1.215717 0
M  V30 46 H 2.101171 -4.820746 0.477303 0
M  V30 47 H 3.940483 -2.194272 -1.604061 0
M  V30 48 H 5.563890 -2.444066 -0.888386 0
M  V30 49 H 4.722546 -0.238657 -2.215445 0
M  V30 50 H 5.931991 -0.141210 -0.892556 0
M  V30 51 H 1.845649 -0.673911 -1.093572 0
M  V30 52 H -0.150773 0.351147 -1.849536 0
M  V30 53 H -0.756349 4.027995 -2.124199 0
M  V30 54 H -3.515094 0.009662 -4.230121 0
M  V30 55 H -5.238984 -1.881275 -3.460457 0
M  V30 56 H -6.672742 -3.480510 -2.200043 0
M  V30 57 H -3.017861 -0.659906 2.111691 0
M  V30 58 H -4.827751 0.224895 3.114893 0
M  V30 59 H -5.448864 0.678464 1.486984 0
M  V30 60 H -5.196510 2.866798 1.905388 0
M  V30 61 H -4.517568 2.526998 3.508459 0
M  V30 62 H -2.612868 3.362148 2.581671 0
M  V30 63 H -3.177272 3.118001 0.856626 0
M  V30 64 H -1.446677 1.401990 1.087313 0
M  V30 65 H -1.859730 1.192653 2.783488 0
M  V30 66 H 3.594495 3.131612 -0.513620 0
M  V30 67 H 3.922792 1.072605 1.722538 0
M  V30 68 H 5.460394 0.181608 1.242524 0
M  V30 69 H 3.978773 -1.311796 2.513390 0
M  V30 70 H 2.561873 -0.839265 1.507893 0
M  V30 END ATOM
M  V30 BEGIN BOND
M  V30 1 1 1 2
M  V30 2 1 2 3
M  V30 3 1 2 4
M  V30 4 1 4 5
M  V30 5 2 5 6
M  V30 6 1 5 7
M  V30 7 1 7 8
M  V30 8 1 8 9
M  V30 9 1 9 10
M  V30 10 1 10 11
M  V30 11 2 11 12
M  V30 12 1 12 13
M  V30 13 2 13 14
M  V30 14 1 14 15
M  V30 15 1 15 16
M  V30 16 2 16 17
M  V30 17 1 17 18
M  V30 18 2 18 19
M  V30 19 1 19 20
M  V30 20 2 20 21
M  V30 21 1 21 22
M  V30 22 2 22 23
M  V30 23 1 23 24
M  V30 24 1 24 25
M  V30 25 2 24 26
M  V30 26 1 26 27
M  V30 27 1 27 28
M  V30 28 1 28 29
M  V30 29 1 29 30
M  V30 30 1 30 31
M  V30 31 1 31 32
M  V30 32 1 27 33
M  V30 33 2 33 34
M  V30 34 1 14 35
M  V30 35 2 35 36
M  V30 36 1 10 37
M  V30 37 1 37 38
M  V30 38 1 38 7
M  V30 39 1 36 11
M  V30 40 1 34 16
M  V30 41 1 33 19
M  V30 42 1 26 20
M  V30 43 1 32 28
M  V30 44 1 1 39
M  V30 45 1 1 40
M  V30 46 1 1 41
M  V30 47 1 3 42
M  V30 48 1 3 43
M  V30 49 1 3 44
M  V30 50 1 4 45
M  V30 51 1 4 46
M  V30 52 1 8 47
M  V30 53 1 8 48
M  V30 54 1 9 49
M  V30 55 1 9 50
M  V30 56 1 12 51
M  V30 57 1 13 52
M  V30 58 1 15 53
M  V30 59 1 18 54
M  V30 60 1 21 55
M  V30 61 1 22 56
M  V30 62 1 28 57
M  V30 63 1 29 58
M  V30 64 1 29 59
M  V30 65 1 30 60
M  V30 66 1 30 61
M  V30 67 1 31 62
M  V30 68 1 31 63
M  V30 69 1 32 64
M  V30 70 1 32 65
M  V30 71 1 36 66
M  V30 72 1 37 67
M  V30 73 1 37 68
M  V30 74 1 38 69
M  V30 75 1 38 70
M  V30 END BOND
M  V30 END CTAB
M  END
>  <Dataset>  (310) 
ChEMBL_Kinases

>  <Ligand_Instance>  (310) 
nan

>  <PDB_ID>  (310) 
nan

>  <Standardized_SMILES>  (310) 
CN(C)CC(=O)N1CCN(c2ccc(Nc3ncc4c5ccnc(F)c5n(C5CCCC5)c4n3)nc2)CC1

>  <Name>  (310) 
nan

>  <Pocket>  (310) 
nan

>  <ATP_Site>  (310) 
nan

>  <Peripheral>  (310) 
nan

>  <Num_H_Atoms_ProtBoundConf>  (310) 
nan

>  <Num_Resolved_Atoms>  (310) 
nan

>  <Num_Not_Resolved_Atoms>  (310) 
nan

$$$$
CHEMBL4873767
     RDKit          3D

  0  0  0  0  0  0  0  0  0  0999 V3000
M  V30 BEGIN CTAB
M  V30 COUNTS 40 43 0 0 0
M  V30 BEGIN ATOM
M  V30 1 O -1.728178 -6.312304 3.105756 0
M  V30 2 C -1.227919 -5.415982 2.177861 0
M  V30 3 C -0.171763 -4.625489 2.574828 0
M  V30 4 C 0.316441 -3.737404 1.639814 0
M  V30 5 N 1.411761 -2.908050 2.003341 0
M  V30 6 C 2.115048 -1.842960 1.401660 0
M  V30 7 C 3.478309 -1.950753 1.115855 0
M  V30 8 C 4.255538 -0.972566 0.534059 0
M  V30 9 N 3.611810 0.155310 0.235355 0
M  V30 10 C 2.306149 0.386034 0.458103 0
M  V30 11 C 1.686545 1.579125 0.131516 0
M  V30 12 C 0.344466 1.793398 0.374297 0
M  V30 13 C -0.246798 3.077605 0.003049 0
M  V30 14 C -1.303071 3.710134 0.649978 0
M  V30 15 C -1.773558 4.925751 0.200623 0
M  V30 16 C -1.200993 5.531632 -0.899379 0
M  V30 17 C -0.151133 4.942853 -1.573891 0
M  V30 18 C 0.304289 3.725621 -1.106889 0
M  V30 19 C -0.381719 0.777225 0.959615 0
M  V30 20 C 0.250891 -0.404541 1.278456 0
M  V30 21 C 1.583232 -0.627727 1.041135 0
M  V30 22 C -0.256637 -3.681120 0.386347 0
M  V30 23 C -1.313398 -4.470191 -0.014435 0
M  V30 24 C -1.797527 -5.356270 0.923953 0
M  V30 25 Cl -3.144284 -6.415736 0.527221 0
M  V30 26 H -2.747308 -6.431691 3.154045 0
M  V30 27 H 0.257472 -4.690217 3.563099 0
M  V30 28 H 1.888902 -3.030109 2.922174 0
M  V30 29 H 3.966309 -2.896200 1.378835 0
M  V30 30 H 5.305806 -1.150546 0.352061 0
M  V30 31 H 2.327655 2.308637 -0.317999 0
M  V30 32 H -1.674786 3.147000 1.498265 0
M  V30 33 H -2.598154 5.342328 0.766077 0
M  V30 34 H -1.587381 6.487225 -1.234273 0
M  V30 35 H 0.282856 5.434031 -2.433106 0
M  V30 36 H 1.136603 3.315003 -1.685880 0
M  V30 37 H -1.430721 0.922124 1.158498 0
M  V30 38 H -0.371509 -1.157982 1.739121 0
M  V30 39 H 0.201130 -2.946445 -0.281242 0
M  V30 40 H -1.720894 -4.385200 -1.002078 0
M  V30 END ATOM
M  V30 BEGIN BOND
M  V30 1 1 1 2
M  V30 2 2 2 3
M  V30 3 1 3 4
M  V30 4 1 4 5
M  V30 5 1 5 6
M  V30 6 2 6 7
M  V30 7 1 7 8
M  V30 8 2 8 9
M  V30 9 1 9 10
M  V30 10 2 10 11
M  V30 11 1 11 12
M  V30 12 1 12 13
M  V30 13 2 13 14
M  V30 14 1 14 15
M  V30 15 2 15 16
M  V30 16 1 16 17
M  V30 17 2 17 18
M  V30 18 2 12 19
M  V30 19 1 19 20
M  V30 20 2 20 21
M  V30 21 2 4 22
M  V30 22 1 22 23
M  V30 23 2 23 24
M  V30 24 1 24 25
M  V30 25 1 24 2
M  V30 26 1 21 6
M  V30 27 1 21 10
M  V30 28 1 18 13
M  V30 29 1 1 26
M  V30 30 1 3 27
M  V30 31 1 5 28
M  V30 32 1 7 29
M  V30 33 1 8 30
M  V30 34 1 11 31
M  V30 35 1 14 32
M  V30 36 1 15 33
M  V30 37 1 16 34
M  V30 38 1 17 35
M  V30 39 1 18 36
M  V30 40 1 19 37
M  V30 41 1 20 38
M  V30 42 1 22 39
M  V30 43 1 23 40
M  V30 END BOND
M  V30 END CTAB
M  END
>  <Dataset>  (311) 
ChEMBL_Kinases

>  <Ligand_Instance>  (311) 
nan

>  <PDB_ID>  (311) 
nan

>  <Standardized_SMILES>  (311) 
Oc1cc(Nc2ccnc3cc(-c4ccccc4)ccc23)ccc1Cl

>  <Name>  (311) 
nan

>  <Pocket>  (311) 
nan

>  <ATP_Site>  (311) 
nan

>  <Peripheral>  (311) 
nan

>  <Num_H_Atoms_ProtBoundConf>  (311) 
nan

>  <Num_Resolved_Atoms>  (311) 
nan

>  <Num_Not_Resolved_Atoms>  (311) 
nan

$$$$
CHEMBL3702099
     RDKit          3D

  0  0  0  0  0  0  0  0  0  0999 V3000
M  V30 BEGIN CTAB
M  V30 COUNTS 68 73 0 0 0
M  V30 BEGIN ATOM
M  V30 1 C 5.012055 -4.972982 5.480024 0
M  V30 2 C 5.315883 -3.569009 5.090546 0
M  V30 3 O 6.395998 -3.224781 4.580035 0
M  V30 4 O 4.353418 -2.600413 5.305539 0
M  V30 5 C 4.517069 -1.247508 4.983547 0
M  V30 6 C 3.285217 -0.475647 5.346820 0
M  V30 7 O 2.218374 -0.931448 5.872558 0
M  V30 8 N 3.122101 0.906156 5.154795 0
M  V30 9 C 1.864955 1.480973 5.566759 0
M  V30 10 C 1.183100 2.071060 4.326742 0
M  V30 11 N 2.017728 1.975501 3.157232 0
M  V30 12 C 1.691696 1.328184 1.956317 0
M  V30 13 C 0.517666 0.665081 1.777863 0
M  V30 14 C 0.183134 0.021465 0.592529 0
M  V30 15 C 1.080613 0.054589 -0.453686 0
M  V30 16 N 0.806463 -0.581095 -1.693701 0
M  V30 17 C -0.397437 -1.293335 -1.938763 0
M  V30 18 N -0.329714 -2.604681 -1.644217 0
M  V30 19 C -1.380507 -3.426928 -1.816287 0
M  V30 20 C -2.589499 -2.952665 -2.309392 0
M  V30 21 C -3.852854 -3.405475 -2.625263 0
M  V30 22 C -4.322467 -4.707491 -2.505348 0
M  V30 23 C -5.616354 -4.967662 -2.869414 0
M  V30 24 N -6.369012 -3.953616 -3.324347 0
M  V30 25 C -5.902623 -2.707645 -3.433629 0
M  V30 26 F -6.721306 -1.732103 -3.896651 0
M  V30 27 C -4.611160 -2.351735 -3.090476 0
M  V30 28 N -3.837572 -1.233711 -3.072105 0
M  V30 29 C -4.435437 0.012668 -3.524415 0
M  V30 30 C -3.613583 1.214583 -3.161612 0
M  V30 31 C -2.675476 1.428777 -4.287766 0
M  V30 32 C -2.958465 0.319958 -5.308126 0
M  V30 33 C -4.443921 0.041033 -5.032130 0
M  V30 34 C -2.635797 -1.608184 -2.603997 0
M  V30 35 N -1.563096 -0.824230 -2.416767 0
M  V30 36 N 2.242214 0.707588 -0.284819 0
M  V30 37 C 2.541178 1.322844 0.874806 0
M  V30 38 C 3.250639 2.670679 3.460583 0
M  V30 39 C 3.953318 1.948192 4.616147 0
M  V30 40 H 4.631330 -5.034554 6.520343 0
M  V30 41 H 5.946750 -5.577432 5.410899 0
M  V30 42 H 4.244627 -5.416966 4.812022 0
M  V30 43 H 5.391719 -0.801626 5.538394 0
M  V30 44 H 4.634237 -1.164211 3.891435 0
M  V30 45 H 1.189722 0.758342 6.072630 0
M  V30 46 H 2.087451 2.268596 6.326599 0
M  V30 47 H 0.190102 1.613941 4.214328 0
M  V30 48 H 1.009050 3.153399 4.557623 0
M  V30 49 H -0.239833 0.585098 2.531245 0
M  V30 50 H -0.741275 -0.502479 0.447526 0
M  V30 51 H 1.490076 -0.542385 -2.468683 0
M  V30 52 H -1.366889 -4.495745 -1.589445 0
M  V30 53 H -3.698800 -5.505404 -2.137175 0
M  V30 54 H -5.972325 -6.000070 -2.769550 0
M  V30 55 H -5.482698 0.106099 -3.119259 0
M  V30 56 H -4.315543 2.090716 -3.099647 0
M  V30 57 H -3.114638 1.108470 -2.172934 0
M  V30 58 H -2.884801 2.385448 -4.831242 0
M  V30 59 H -1.608679 1.398514 -4.064616 0
M  V30 60 H -2.784165 0.632968 -6.335231 0
M  V30 61 H -2.412834 -0.613407 -5.069521 0
M  V30 62 H -5.056964 0.931475 -5.349904 0
M  V30 63 H -4.761715 -0.879421 -5.517242 0
M  V30 64 H 3.502015 1.805984 0.873329 0
M  V30 65 H 3.021126 3.729814 3.739894 0
M  V30 66 H 3.950192 2.740999 2.604810 0
M  V30 67 H 4.108099 2.700632 5.418730 0
M  V30 68 H 4.930899 1.545354 4.249476 0
M  V30 END ATOM
M  V30 BEGIN BOND
M  V30 1 1 1 2
M  V30 2 2 2 3
M  V30 3 1 2 4
M  V30 4 1 4 5
M  V30 5 1 5 6
M  V30 6 2 6 7
M  V30 7 1 6 8
M  V30 8 1 8 9
M  V30 9 1 9 10
M  V30 10 1 10 11
M  V30 11 1 11 12
M  V30 12 2 12 13
M  V30 13 1 13 14
M  V30 14 2 14 15
M  V30 15 1 15 16
M  V30 16 1 16 17
M  V30 17 2 17 18
M  V30 18 1 18 19
M  V30 19 2 19 20
M  V30 20 1 20 21
M  V30 21 2 21 22
M  V30 22 1 22 23
M  V30 23 2 23 24
M  V30 24 1 24 25
M  V30 25 1 25 26
M  V30 26 2 25 27
M  V30 27 1 27 28
M  V30 28 1 28 29
M  V30 29 1 29 30
M  V30 30 1 30 31
M  V30 31 1 31 32
M  V30 32 1 32 33
M  V30 33 1 28 34
M  V30 34 2 34 35
M  V30 35 1 15 36
M  V30 36 2 36 37
M  V30 37 1 11 38
M  V30 38 1 38 39
M  V30 39 1 39 8
M  V30 40 1 37 12
M  V30 41 1 35 17
M  V30 42 1 34 20
M  V30 43 1 27 21
M  V30 44 1 33 29
M  V30 45 1 1 40
M  V30 46 1 1 41
M  V30 47 1 1 42
M  V30 48 1 5 43
M  V30 49 1 5 44
M  V30 50 1 9 45
M  V30 51 1 9 46
M  V30 52 1 10 47
M  V30 53 1 10 48
M  V30 54 1 13 49
M  V30 55 1 14 50
M  V30 56 1 16 51
M  V30 57 1 19 52
M  V30 58 1 22 53
M  V30 59 1 23 54
M  V30 60 1 29 55
M  V30 61 1 30 56
M  V30 62 1 30 57
M  V30 63 1 31 58
M  V30 64 1 31 59
M  V30 65 1 32 60
M  V30 66 1 32 61
M  V30 67 1 33 62
M  V30 68 1 33 63
M  V30 69 1 37 64
M  V30 70 1 38 65
M  V30 71 1 38 66
M  V30 72 1 39 67
M  V30 73 1 39 68
M  V30 END BOND
M  V30 END CTAB
M  END
>  <Dataset>  (312) 
ChEMBL_Kinases

>  <Ligand_Instance>  (312) 
nan

>  <PDB_ID>  (312) 
nan

>  <Standardized_SMILES>  (312) 
CC(=O)OCC(=O)N1CCN(c2ccc(Nc3ncc4c5ccnc(F)c5n(C5CCCC5)c4n3)nc2)CC1

>  <Name>  (312) 
nan

>  <Pocket>  (312) 
nan

>  <ATP_Site>  (312) 
nan

>  <Peripheral>  (312) 
nan

>  <Num_H_Atoms_ProtBoundConf>  (312) 
nan

>  <Num_Resolved_Atoms>  (312) 
nan

>  <Num_Not_Resolved_Atoms>  (312) 
nan

$$$$
CHEMBL4873779
     RDKit          3D

  0  0  0  0  0  0  0  0  0  0999 V3000
M  V30 BEGIN CTAB
M  V30 COUNTS 43 45 0 0 0
M  V30 BEGIN ATOM
M  V30 1 C 1.533717 -3.721047 -1.353137 0
M  V30 2 C 2.424909 -3.396721 -0.170915 0 CFG=2
M  V30 3 N 3.614477 -2.679998 -0.552400 0
M  V30 4 C 4.945686 -2.963518 -0.634926 0
M  V30 5 N 5.612746 -1.877508 -1.065626 0
M  V30 6 N 4.713741 -0.908217 -1.256507 0
M  V30 7 C 3.481610 -1.401184 -0.940648 0
M  V30 8 C 2.413820 -0.428555 -1.110882 0
M  V30 9 C 2.195418 0.269390 -2.271159 0
M  V30 10 C 1.219848 1.201746 -2.526206 0
M  V30 11 C 0.436858 1.359589 -1.397369 0
M  V30 12 C 0.542048 0.715183 -0.140887 0
M  V30 13 N -0.374236 1.005299 0.956486 0
M  V30 14 C -0.196295 2.043526 2.015545 0
M  V30 15 O 0.564872 3.017112 2.515164 0
M  V30 16 C -1.407785 1.909074 2.865350 0
M  V30 17 C -1.641719 2.704680 3.985701 0
M  V30 18 C -2.711517 2.681605 4.847983 0
M  V30 19 C -3.676785 1.745421 4.560772 0
M  V30 20 N -3.562186 0.924298 3.509944 0
M  V30 21 C -4.563411 -0.069961 3.184178 0
M  V30 22 C -2.488095 1.023025 2.732103 0
M  V30 23 O -2.390134 0.239667 1.739130 0
M  V30 24 N 1.581541 -0.180690 -0.091677 0
M  V30 25 C 2.787913 -4.751881 0.439461 0
M  V30 26 F 1.637899 -5.392845 0.830479 0
M  V30 27 F 3.417502 -5.555028 -0.492025 0
M  V30 28 F 3.632450 -4.512883 1.517188 0
M  V30 29 H 1.395428 -2.846907 -2.019880 0
M  V30 30 H 0.547189 -4.019911 -0.893807 0
M  V30 31 H 1.936760 -4.619470 -1.834739 0
M  V30 32 H 1.851583 -2.877136 0.634362 0
M  V30 33 H 5.254534 -3.962628 -0.358170 0
M  V30 34 H 2.899564 0.040013 -3.082053 0
M  V30 35 H 1.046987 1.741229 -3.416753 0
M  V30 36 H -0.408514 2.068608 -1.395627 0
M  V30 37 H 0.408756 1.604314 1.009900 0
M  V30 38 H -0.878751 3.451615 4.220941 0
M  V30 39 H -2.763285 3.358449 5.678578 0
M  V30 40 H -4.553067 1.653206 5.181635 0
M  V30 41 H -4.475986 -0.918580 3.896507 0
M  V30 42 H -4.481103 -0.448292 2.167324 0
M  V30 43 H -5.550021 0.396531 3.405452 0
M  V30 END ATOM
M  V30 BEGIN BOND
M  V30 1 1 1 2
M  V30 2 1 2 3
M  V30 3 1 3 4
M  V30 4 2 4 5
M  V30 5 1 5 6
M  V30 6 2 6 7
M  V30 7 1 7 8
M  V30 8 2 8 9
M  V30 9 1 9 10
M  V30 10 2 10 11
M  V30 11 1 11 12
M  V30 12 1 12 13
M  V30 13 1 13 14
M  V30 14 2 14 15
M  V30 15 1 14 16
M  V30 16 2 16 17
M  V30 17 1 17 18
M  V30 18 2 18 19
M  V30 19 1 19 20
M  V30 20 1 20 21
M  V30 21 1 20 22
M  V30 22 2 22 23
M  V30 23 2 12 24
M  V30 24 1 2 25
M  V30 25 1 25 26
M  V30 26 1 25 27
M  V30 27 1 25 28
M  V30 28 1 7 3
M  V30 29 1 24 8
M  V30 30 1 22 16
M  V30 31 1 1 29
M  V30 32 1 1 30
M  V30 33 1 1 31
M  V30 34 1 2 32 CFG=1
M  V30 35 1 4 33
M  V30 36 1 9 34
M  V30 37 1 10 35
M  V30 38 1 11 36
M  V30 39 1 13 37
M  V30 40 1 17 38
M  V30 41 1 18 39
M  V30 42 1 19 40
M  V30 43 1 21 41
M  V30 44 1 21 42
M  V30 45 1 21 43
M  V30 END BOND
M  V30 END CTAB
M  END
>  <Dataset>  (313) 
ChEMBL_Kinases

>  <Ligand_Instance>  (313) 
nan

>  <PDB_ID>  (313) 
nan

>  <Standardized_SMILES>  (313) 
C[C@H](n1cnnc1-c1cccc(NC(=O)c2cccn(C)c2=O)n1)C(F)(F)F

>  <Name>  (313) 
nan

>  <Pocket>  (313) 
nan

>  <ATP_Site>  (313) 
nan

>  <Peripheral>  (313) 
nan

>  <Num_H_Atoms_ProtBoundConf>  (313) 
nan

>  <Num_Resolved_Atoms>  (313) 
nan

>  <Num_Not_Resolved_Atoms>  (313) 
nan

$$$$
CHEMBL3702100
     RDKit          3D

  0  0  0  0  0  0  0  0  0  0999 V3000
M  V30 BEGIN CTAB
M  V30 COUNTS 70 75 0 0 0
M  V30 BEGIN ATOM
M  V30 1 C 4.995482 -2.178772 2.425206 0
M  V30 2 N 5.323578 -1.616618 1.142791 0
M  V30 3 C 6.483932 -0.804367 1.264709 0
M  V30 4 C 6.149768 0.417823 2.116746 0
M  V30 5 O 5.734491 0.067381 3.390999 0
M  V30 6 C 5.409231 -2.645516 0.143037 0
M  V30 7 C 5.826786 -2.082830 -1.192368 0
M  V30 8 C 4.843407 -1.076040 -1.739517 0
M  V30 9 N 3.485126 -1.475356 -1.449715 0
M  V30 10 C 2.353723 -0.658061 -1.214030 0
M  V30 11 C 1.094008 -1.063502 -0.894551 0
M  V30 12 C 0.018783 -0.240606 -0.669093 0
M  V30 13 C 0.197909 1.139255 -0.767281 0
M  V30 14 N -0.909381 1.971291 -0.552613 0
M  V30 15 C -2.286625 1.873960 -0.296006 0
M  V30 16 N -2.893942 3.061810 -0.056059 0
M  V30 17 C -4.200327 3.157888 0.167944 0
M  V30 18 C -4.934723 2.018061 0.153106 0
M  V30 19 C -6.289505 1.885651 0.323276 0
M  V30 20 C -7.308235 2.799375 0.562407 0
M  V30 21 C -8.619203 2.391769 0.668092 0
M  V30 22 N -8.861036 1.074926 0.527117 0
M  V30 23 C -7.853530 0.219993 0.297520 0
M  V30 24 F -8.268310 -1.039171 0.111984 0
M  V30 25 C -6.525056 0.537943 0.181330 0
M  V30 26 N -5.411560 -0.200300 -0.062559 0
M  V30 27 C -5.212226 -1.595740 -0.242718 0
M  V30 28 C -5.809921 -2.500670 0.797833 0
M  V30 29 C -5.206223 -1.843329 2.061859 0
M  V30 30 C -3.742871 -1.603006 1.606192 0
M  V30 31 C -3.721700 -1.913823 0.152636 0
M  V30 32 C -4.394564 0.732196 -0.087041 0
M  V30 33 N -3.101311 0.838081 -0.284559 0
M  V30 34 N 1.431953 1.522411 -1.081002 0
M  V30 35 C 2.465897 0.707666 -1.298352 0
M  V30 36 C 3.477209 -2.934825 -1.430684 0
M  V30 37 C 4.042447 -3.279882 -0.041459 0
M  V30 38 H 4.691170 -3.253702 2.343547 0
M  V30 39 H 5.890073 -2.205826 3.081189 0
M  V30 40 H 4.173527 -1.552832 2.838137 0
M  V30 41 H 7.306223 -1.393376 1.718998 0
M  V30 42 H 6.851087 -0.377725 0.302343 0
M  V30 43 H 7.051024 1.060429 2.266474 0
M  V30 44 H 5.390257 1.050574 1.591001 0
M  V30 45 H 6.520608 -0.052997 3.977865 0
M  V30 46 H 6.099201 -3.451797 0.425510 0
M  V30 47 H 5.927470 -2.942064 -1.928015 0
M  V30 48 H 6.857933 -1.652666 -1.195267 0
M  V30 49 H 4.981539 -1.103322 -2.852854 0
M  V30 50 H 5.069056 -0.058217 -1.347832 0
M  V30 51 H 0.919532 -2.144368 -0.813621 0
M  V30 52 H -0.908884 -0.691874 -0.413816 0
M  V30 53 H -0.518090 2.969946 -0.622223 0
M  V30 54 H -4.647150 4.131589 0.360045 0
M  V30 55 H -7.079969 3.835779 0.667115 0
M  V30 56 H -9.365518 3.133948 0.855936 0
M  V30 57 H -5.402274 -1.949624 -1.279922 0
M  V30 58 H -5.232268 -3.502220 0.679044 0
M  V30 59 H -6.838957 -2.678977 0.875528 0
M  V30 60 H -5.752424 -0.893990 2.195749 0
M  V30 61 H -5.276002 -2.486180 2.929628 0
M  V30 62 H -3.508461 -0.593566 1.926520 0
M  V30 63 H -3.150992 -2.358426 2.209546 0
M  V30 64 H -3.053255 -1.424268 -0.500334 0
M  V30 65 H -3.636357 -3.018384 0.060772 0
M  V30 66 H 3.384346 1.233571 -1.540251 0
M  V30 67 H 2.431647 -3.293636 -1.458481 0
M  V30 68 H 4.011574 -3.409500 -2.247938 0
M  V30 69 H 4.038267 -4.369855 0.112937 0
M  V30 70 H 3.274354 -2.855831 0.666001 0
M  V30 END ATOM
M  V30 BEGIN BOND
M  V30 1 1 1 2
M  V30 2 1 2 3
M  V30 3 1 3 4
M  V30 4 1 4 5
M  V30 5 1 2 6
M  V30 6 1 6 7
M  V30 7 1 7 8
M  V30 8 1 8 9
M  V30 9 1 9 10
M  V30 10 2 10 11
M  V30 11 1 11 12
M  V30 12 2 12 13
M  V30 13 1 13 14
M  V30 14 1 14 15
M  V30 15 2 15 16
M  V30 16 1 16 17
M  V30 17 2 17 18
M  V30 18 1 18 19
M  V30 19 2 19 20
M  V30 20 1 20 21
M  V30 21 2 21 22
M  V30 22 1 22 23
M  V30 23 1 23 24
M  V30 24 2 23 25
M  V30 25 1 25 26
M  V30 26 1 26 27
M  V30 27 1 27 28
M  V30 28 1 28 29
M  V30 29 1 29 30
M  V30 30 1 30 31
M  V30 31 1 26 32
M  V30 32 2 32 33
M  V30 33 1 13 34
M  V30 34 2 34 35
M  V30 35 1 9 36
M  V30 36 1 36 37
M  V30 37 1 37 6
M  V30 38 1 35 10
M  V30 39 1 33 15
M  V30 40 1 32 18
M  V30 41 1 25 19
M  V30 42 1 31 27
M  V30 43 1 1 38
M  V30 44 1 1 39
M  V30 45 1 1 40
M  V30 46 1 3 41
M  V30 47 1 3 42
M  V30 48 1 4 43
M  V30 49 1 4 44
M  V30 50 1 5 45
M  V30 51 1 6 46
M  V30 52 1 7 47
M  V30 53 1 7 48
M  V30 54 1 8 49
M  V30 55 1 8 50
M  V30 56 1 11 51
M  V30 57 1 12 52
M  V30 58 1 14 53
M  V30 59 1 17 54
M  V30 60 1 20 55
M  V30 61 1 21 56
M  V30 62 1 27 57
M  V30 63 1 28 58
M  V30 64 1 28 59
M  V30 65 1 29 60
M  V30 66 1 29 61
M  V30 67 1 30 62
M  V30 68 1 30 63
M  V30 69 1 31 64
M  V30 70 1 31 65
M  V30 71 1 35 66
M  V30 72 1 36 67
M  V30 73 1 36 68
M  V30 74 1 37 69
M  V30 75 1 37 70
M  V30 END BOND
M  V30 END CTAB
M  END
>  <Dataset>  (314) 
ChEMBL_Kinases

>  <Ligand_Instance>  (314) 
nan

>  <PDB_ID>  (314) 
nan

>  <Standardized_SMILES>  (314) 
CN(CCO)C1CCN(c2ccc(Nc3ncc4c5ccnc(F)c5n(C5CCCC5)c4n3)nc2)CC1

>  <Name>  (314) 
nan

>  <Pocket>  (314) 
nan

>  <ATP_Site>  (314) 
nan

>  <Peripheral>  (314) 
nan

>  <Num_H_Atoms_ProtBoundConf>  (314) 
nan

>  <Num_Resolved_Atoms>  (314) 
nan

>  <Num_Not_Resolved_Atoms>  (314) 
nan

$$$$
CHEMBL4873815
     RDKit          3D

  0  0  0  0  0  0  0  0  0  0999 V3000
M  V30 BEGIN CTAB
M  V30 COUNTS 51 54 0 0 0
M  V30 BEGIN ATOM
M  V30 1 C 5.454047 0.615336 3.566853 0
M  V30 2 N 6.181743 0.621199 2.306051 0
M  V30 3 N 7.486636 0.832329 2.295091 0
M  V30 4 C 7.855260 0.777575 1.002889 0
M  V30 5 C 6.770365 0.528551 0.184071 0
M  V30 6 Br 6.776064 0.363585 -1.693358 0
M  V30 7 C 5.706800 0.433205 1.058077 0
M  V30 8 C 4.316812 0.175432 0.699293 0
M  V30 9 C 3.364069 0.961565 1.311405 0
M  V30 10 C 2.031996 0.777956 1.023196 0
M  V30 11 F 1.073042 1.530276 1.604369 0
M  V30 12 C 1.556737 -0.163372 0.139350 0
M  V30 13 C 0.200667 -0.481558 -0.270805 0
M  V30 14 O -0.090039 -1.391755 -1.111880 0
M  V30 15 N -0.997156 0.136459 0.171137 0
M  V30 16 C -2.330841 -0.163679 -0.220344 0 CFG=2
M  V30 17 C -3.001822 0.923416 -1.025250 0
M  V30 18 N -4.371755 0.479376 -1.208246 0
M  V30 19 C -5.080918 0.734038 -0.001664 0
M  V30 20 C -4.483732 -0.035763 1.122572 0
M  V30 21 C -3.188067 -0.700174 0.893585 0 CFG=1
M  V30 22 C -3.306263 -2.203319 0.826979 0
M  V30 23 C -3.993336 -2.841172 -0.184706 0
M  V30 24 C -4.125345 -4.203226 -0.284921 0
M  V30 25 C -3.545423 -5.005802 0.670901 0
M  V30 26 F -3.609154 -6.359403 0.675473 0
M  V30 27 C -2.843702 -4.432830 1.710180 0
M  V30 28 F -2.226220 -5.132692 2.716124 0
M  V30 29 C -2.741738 -3.063293 1.763490 0
M  V30 30 C 2.535053 -0.954785 -0.475087 0
M  V30 31 C 3.870148 -0.776242 -0.191146 0
M  V30 32 F 4.800244 -1.539695 -0.784696 0
M  V30 33 H 5.235011 1.679853 3.808624 0
M  V30 34 H 4.490448 0.064650 3.485720 0
M  V30 35 H 6.085432 0.227981 4.396388 0
M  V30 36 H 8.893633 0.919565 0.700345 0
M  V30 37 H 3.576021 1.756612 2.040208 0
M  V30 38 H -0.932760 0.909189 0.868032 0
M  V30 39 H -2.252861 -1.011329 -0.968157 0
M  V30 40 H -2.993618 1.913379 -0.578957 0
M  V30 41 H -2.574628 1.008187 -2.045617 0
M  V30 42 H -4.815003 0.832420 -2.066740 0
M  V30 43 H -6.145162 0.425479 -0.170598 0
M  V30 44 H -5.113534 1.831514 0.258962 0
M  V30 45 H -4.449881 0.602230 2.061506 0
M  V30 46 H -5.213952 -0.849022 1.431979 0
M  V30 47 H -2.573426 -0.549062 1.837854 0
M  V30 48 H -4.468168 -2.290705 -0.958877 0
M  V30 49 H -4.647251 -4.719108 -1.051848 0
M  V30 50 H -2.190886 -2.588588 2.577635 0
M  V30 51 H 2.294115 -1.731492 -1.190785 0
M  V30 END ATOM
M  V30 BEGIN BOND
M  V30 1 1 1 2
M  V30 2 1 2 3
M  V30 3 2 3 4
M  V30 4 1 4 5
M  V30 5 1 5 6
M  V30 6 2 5 7
M  V30 7 1 7 8
M  V30 8 2 8 9
M  V30 9 1 9 10
M  V30 10 1 10 11
M  V30 11 2 10 12
M  V30 12 1 12 13
M  V30 13 2 13 14
M  V30 14 1 13 15
M  V30 15 1 15 16
M  V30 16 1 16 17
M  V30 17 1 17 18
M  V30 18 1 18 19
M  V30 19 1 19 20
M  V30 20 1 20 21
M  V30 21 1 21 22
M  V30 22 2 22 23
M  V30 23 1 23 24
M  V30 24 2 24 25
M  V30 25 1 25 26
M  V30 26 1 25 27
M  V30 27 1 27 28
M  V30 28 2 27 29
M  V30 29 1 12 30
M  V30 30 2 30 31
M  V30 31 1 31 32
M  V30 32 1 7 2
M  V30 33 1 31 8
M  V30 34 1 21 16
M  V30 35 1 29 22
M  V30 36 1 1 33
M  V30 37 1 1 34
M  V30 38 1 1 35
M  V30 39 1 4 36
M  V30 40 1 9 37
M  V30 41 1 15 38
M  V30 42 1 16 39 CFG=3
M  V30 43 1 17 40
M  V30 44 1 17 41
M  V30 45 1 18 42
M  V30 46 1 19 43
M  V30 47 1 19 44
M  V30 48 1 20 45
M  V30 49 1 20 46
M  V30 50 1 21 47 CFG=1
M  V30 51 1 23 48
M  V30 52 1 24 49
M  V30 53 1 29 50
M  V30 54 1 30 51
M  V30 END BOND
M  V30 END CTAB
M  END
>  <Dataset>  (315) 
ChEMBL_Kinases

>  <Ligand_Instance>  (315) 
nan

>  <PDB_ID>  (315) 
nan

>  <Standardized_SMILES>  (315) 
Cn1ncc(Br)c1-c1cc(F)c(C(=O)N[C@@H]2CNCC[C@H]2c2ccc(F)c(F)c2)cc1F

>  <Name>  (315) 
nan

>  <Pocket>  (315) 
nan

>  <ATP_Site>  (315) 
nan

>  <Peripheral>  (315) 
nan

>  <Num_H_Atoms_ProtBoundConf>  (315) 
nan

>  <Num_Resolved_Atoms>  (315) 
nan

>  <Num_Not_Resolved_Atoms>  (315) 
nan

$$$$
CHEMBL3702101
     RDKit          3D

  0  0  0  0  0  0  0  0  0  0999 V3000
M  V30 BEGIN CTAB
M  V30 COUNTS 61 66 0 0 0
M  V30 BEGIN ATOM
M  V30 1 O 6.827625 -4.858963 2.307136 0
M  V30 2 C 5.627764 -5.601137 2.362526 0
M  V30 3 C 4.501812 -4.618080 2.159733 0 CFG=1
M  V30 4 C 4.666087 -3.774249 0.912692 0
M  V30 5 N 3.371659 -3.295299 0.431449 0
M  V30 6 C 2.830020 -1.959838 0.304759 0
M  V30 7 C 1.454178 -1.756651 0.502652 0
M  V30 8 C 1.041589 -0.427038 0.331480 0
M  V30 9 C 1.840869 0.648448 0.000069 0
M  V30 10 N 1.296207 1.960093 -0.118807 0
M  V30 11 C -0.080231 2.206875 0.150475 0
M  V30 12 N -0.165245 3.294630 0.950260 0
M  V30 13 C -1.315254 3.825495 1.406532 0
M  V30 14 C -2.507593 3.238348 1.048313 0
M  V30 15 C -3.827633 3.435276 1.271860 0
M  V30 16 C -4.481480 4.405973 2.023018 0
M  V30 17 C -5.850535 4.400495 2.102524 0
M  V30 18 N -6.538856 3.453319 1.450694 0
M  V30 19 C -5.897772 2.507649 0.718550 0
M  V30 20 F -6.666916 1.590468 0.093067 0
M  V30 21 C -4.524004 2.458762 0.598698 0
M  V30 22 N -3.660061 1.647588 -0.046097 0
M  V30 23 C -3.986279 0.504957 -0.866007 0
M  V30 24 C -3.389249 -0.785432 -0.353549 0
M  V30 25 C -2.593469 -1.366797 -1.514057 0
M  V30 26 C -3.321344 -0.809915 -2.705389 0
M  V30 27 C -3.470399 0.655053 -2.284721 0
M  V30 28 C -2.432094 2.117773 0.224223 0
M  V30 29 N -1.253410 1.652317 -0.185806 0
M  V30 30 N 3.147513 0.382920 -0.175471 0
M  V30 31 C 3.630036 -0.888520 -0.026785 0
M  V30 32 C 2.609190 -4.456558 0.023206 0
M  V30 33 C 2.869554 -5.661422 0.862758 0
M  V30 34 N 3.199801 -5.245541 2.200703 0
M  V30 35 H 6.704674 -4.153066 3.010413 0
M  V30 36 H 5.629092 -6.398628 1.594680 0
M  V30 37 H 5.540405 -5.984670 3.396439 0
M  V30 38 H 4.532544 -3.937823 3.030674 0
M  V30 39 H 5.169592 -4.336487 0.112634 0
M  V30 40 H 5.265793 -2.886469 1.201379 0
M  V30 41 H 0.772529 -2.520607 0.765374 0
M  V30 42 H -0.037032 -0.297519 0.489312 0
M  V30 43 H 1.940477 2.685796 -0.422341 0
M  V30 44 H -1.362735 4.703246 2.054866 0
M  V30 45 H -3.878383 5.147185 2.534526 0
M  V30 46 H -6.365607 5.154804 2.689089 0
M  V30 47 H -5.083835 0.402849 -0.960217 0
M  V30 48 H -2.657095 -0.623125 0.457181 0
M  V30 49 H -4.120083 -1.552082 -0.069992 0
M  V30 50 H -2.613775 -2.462690 -1.470197 0
M  V30 51 H -1.560247 -0.964064 -1.483269 0
M  V30 52 H -2.798426 -0.908313 -3.654565 0
M  V30 53 H -4.322295 -1.290592 -2.738968 0
M  V30 54 H -2.476417 1.124693 -2.303695 0
M  V30 55 H -4.232843 1.141563 -2.909391 0
M  V30 56 H 4.703692 -1.032034 -0.185767 0
M  V30 57 H 2.877261 -4.651363 -1.053548 0
M  V30 58 H 1.540236 -4.193021 0.029625 0
M  V30 59 H 3.651341 -6.329218 0.440630 0
M  V30 60 H 1.938159 -6.263830 0.916818 0
M  V30 61 H 3.263081 -6.116149 2.803055 0
M  V30 END ATOM
M  V30 BEGIN BOND
M  V30 1 1 1 2
M  V30 2 1 2 3
M  V30 3 1 3 4
M  V30 4 1 4 5
M  V30 5 1 5 6
M  V30 6 2 6 7
M  V30 7 1 7 8
M  V30 8 2 8 9
M  V30 9 1 9 10
M  V30 10 1 10 11
M  V30 11 2 11 12
M  V30 12 1 12 13
M  V30 13 2 13 14
M  V30 14 1 14 15
M  V30 15 2 15 16
M  V30 16 1 16 17
M  V30 17 2 17 18
M  V30 18 1 18 19
M  V30 19 1 19 20
M  V30 20 2 19 21
M  V30 21 1 21 22
M  V30 22 1 22 23
M  V30 23 1 23 24
M  V30 24 1 24 25
M  V30 25 1 25 26
M  V30 26 1 26 27
M  V30 27 1 22 28
M  V30 28 2 28 29
M  V30 29 1 9 30
M  V30 30 2 30 31
M  V30 31 1 5 32
M  V30 32 1 32 33
M  V30 33 1 33 34
M  V30 34 1 34 3
M  V30 35 1 31 6
M  V30 36 1 29 11
M  V30 37 1 28 14
M  V30 38 1 21 15
M  V30 39 1 27 23
M  V30 40 1 1 35
M  V30 41 1 2 36
M  V30 42 1 2 37
M  V30 43 1 3 38 CFG=1
M  V30 44 1 4 39
M  V30 45 1 4 40
M  V30 46 1 7 41
M  V30 47 1 8 42
M  V30 48 1 10 43
M  V30 49 1 13 44
M  V30 50 1 16 45
M  V30 51 1 17 46
M  V30 52 1 23 47
M  V30 53 1 24 48
M  V30 54 1 24 49
M  V30 55 1 25 50
M  V30 56 1 25 51
M  V30 57 1 26 52
M  V30 58 1 26 53
M  V30 59 1 27 54
M  V30 60 1 27 55
M  V30 61 1 31 56
M  V30 62 1 32 57
M  V30 63 1 32 58
M  V30 64 1 33 59
M  V30 65 1 33 60
M  V30 66 1 34 61
M  V30 END BOND
M  V30 END CTAB
M  END
>  <Dataset>  (316) 
ChEMBL_Kinases

>  <Ligand_Instance>  (316) 
nan

>  <PDB_ID>  (316) 
nan

>  <Standardized_SMILES>  (316) 
OC[C@H]1CN(c2ccc(Nc3ncc4c5ccnc(F)c5n(C5CCCC5)c4n3)nc2)CCN1

>  <Name>  (316) 
nan

>  <Pocket>  (316) 
nan

>  <ATP_Site>  (316) 
nan

>  <Peripheral>  (316) 
nan

>  <Num_H_Atoms_ProtBoundConf>  (316) 
nan

>  <Num_Resolved_Atoms>  (316) 
nan

>  <Num_Not_Resolved_Atoms>  (316) 
nan

$$$$
CHEMBL4873821
     RDKit          3D

  0  0  0  0  0  0  0  0  0  0999 V3000
M  V30 BEGIN CTAB
M  V30 COUNTS 39 41 0 0 0
M  V30 BEGIN ATOM
M  V30 1 C 2.281189 -2.729818 3.810196 0
M  V30 2 C 0.972970 -3.048201 3.163940 0
M  V30 3 C 1.097452 -4.323602 2.350670 0
M  V30 4 C 0.502312 -1.934717 2.275490 0
M  V30 5 C 1.286766 -1.463764 1.230348 0
M  V30 6 C 0.801524 -0.438712 0.446457 0
M  V30 7 C 1.631969 0.046986 -0.650562 0
M  V30 8 C 2.890820 -0.383671 -1.022742 0
M  V30 9 N 3.316437 0.327260 -2.099206 0
M  V30 10 N 2.365080 1.203850 -2.429933 0
M  V30 11 N 2.350613 2.094036 -3.409892 0
M  V30 12 C 1.287989 2.904013 -3.593069 0
M  V30 13 C 0.195901 2.788151 -2.726923 0
M  V30 14 C 0.242912 1.847861 -1.713351 0
M  V30 15 C 1.349583 1.041732 -1.564284 0
M  V30 16 N -0.427095 0.075412 0.723123 0
M  V30 17 C -1.176196 -0.391206 1.739366 0
M  V30 18 N -2.426363 0.276135 1.866541 0
M  V30 19 C -3.372487 -0.438515 1.024928 0
M  V30 20 C -2.925835 1.437377 2.606465 0
M  V30 21 N -0.720152 -1.394936 2.519994 0
M  V30 22 H 3.170894 -3.097453 3.249844 0
M  V30 23 H 2.417837 -1.655068 4.014083 0
M  V30 24 H 2.342793 -3.253754 4.806075 0
M  V30 25 H 0.229473 -3.280999 3.957143 0
M  V30 26 H 0.058288 -4.572896 1.989988 0
M  V30 27 H 1.760035 -4.243773 1.487937 0
M  V30 28 H 1.373340 -5.143407 3.054825 0
M  V30 29 H 2.274987 -1.908961 1.043204 0
M  V30 30 H 3.479278 -1.159336 -0.558440 0
M  V30 31 H 1.261678 3.649591 -4.404102 0
M  V30 32 H -0.610980 3.449412 -2.918012 0
M  V30 33 H -0.623113 1.781232 -1.054875 0
M  V30 34 H -4.402085 -0.027818 1.076955 0
M  V30 35 H -3.070326 -0.411968 -0.040192 0
M  V30 36 H -3.418099 -1.515568 1.294581 0
M  V30 37 H -3.857968 1.189831 3.124865 0
M  V30 38 H -3.166960 2.191686 1.824208 0
M  V30 39 H -2.157496 1.872775 3.250471 0
M  V30 END ATOM
M  V30 BEGIN BOND
M  V30 1 1 1 2
M  V30 2 1 2 3
M  V30 3 1 2 4
M  V30 4 2 4 5
M  V30 5 1 5 6
M  V30 6 1 6 7
M  V30 7 1 7 8
M  V30 8 2 8 9
M  V30 9 1 9 10
M  V30 10 1 10 11
M  V30 11 2 11 12
M  V30 12 1 12 13
M  V30 13 2 13 14
M  V30 14 1 14 15
M  V30 15 2 6 16
M  V30 16 1 16 17
M  V30 17 1 17 18
M  V30 18 1 18 19
M  V30 19 1 18 20
M  V30 20 2 17 21
M  V30 21 1 21 4
M  V30 22 2 15 7
M  V30 23 1 15 10
M  V30 24 1 1 22
M  V30 25 1 1 23
M  V30 26 1 1 24
M  V30 27 1 2 25
M  V30 28 1 3 26
M  V30 29 1 3 27
M  V30 30 1 3 28
M  V30 31 1 5 29
M  V30 32 1 8 30
M  V30 33 1 12 31
M  V30 34 1 13 32
M  V30 35 1 14 33
M  V30 36 1 19 34
M  V30 37 1 19 35
M  V30 38 1 19 36
M  V30 39 1 20 37
M  V30 40 1 20 38
M  V30 41 1 20 39
M  V30 END BOND
M  V30 END CTAB
M  END
>  <Dataset>  (317) 
ChEMBL_Kinases

>  <Ligand_Instance>  (317) 
nan

>  <PDB_ID>  (317) 
nan

>  <Standardized_SMILES>  (317) 
CC(C)c1cc(-c2cnn3ncccc23)nc(N(C)C)n1

>  <Name>  (317) 
nan

>  <Pocket>  (317) 
nan

>  <ATP_Site>  (317) 
nan

>  <Peripheral>  (317) 
nan

>  <Num_H_Atoms_ProtBoundConf>  (317) 
nan

>  <Num_Resolved_Atoms>  (317) 
nan

>  <Num_Not_Resolved_Atoms>  (317) 
nan

$$$$
CHEMBL761
     RDKit          3D

  0  0  0  0  0  0  0  0  0  0999 V3000
M  V30 BEGIN CTAB
M  V30 COUNTS 30 32 0 0 0
M  V30 BEGIN ATOM
M  V30 1 C -0.643398 -0.775548 4.179831 0
M  V30 2 C -0.629110 -1.797203 3.224453 0
M  V30 3 C 0.124339 -1.573966 2.098299 0
M  V30 4 C 0.863933 -0.444001 1.821397 0
M  V30 5 C 1.601733 -0.290538 0.661027 0
M  V30 6 C 1.566321 -1.415371 -0.305404 0
M  V30 7 C 0.277800 -1.454311 -1.083089 0
M  V30 8 N -0.626440 -0.576693 -0.901406 0
M  V30 9 C -1.768330 -0.820556 -1.756744 0
M  V30 10 C -1.568716 -2.287215 -2.092624 0
M  V30 11 N -0.120313 -2.400731 -2.077101 0
M  V30 12 C 2.301039 0.904828 0.516515 0
M  V30 13 C 2.243809 1.869750 1.495265 0
M  V30 14 C 1.508438 1.716976 2.651942 0
M  V30 15 C 0.815014 0.542727 2.805422 0
M  V30 16 C 0.077132 0.362990 3.944007 0
M  V30 17 H -1.227709 -0.918955 5.080220 0
M  V30 18 H -1.192137 -2.685718 3.411310 0
M  V30 19 H 0.105143 -2.394321 1.387214 0
M  V30 20 H 2.423394 -1.279288 -1.010916 0
M  V30 21 H 1.743736 -2.397710 0.175238 0
M  V30 22 H -2.687384 -0.657941 -1.175107 0
M  V30 23 H -1.705818 -0.196582 -2.672960 0
M  V30 24 H -2.017854 -2.887369 -1.293234 0
M  V30 25 H -1.960853 -2.564463 -3.067791 0
M  V30 26 H 0.579761 -2.978870 -2.599980 0
M  V30 27 H 2.862741 1.004953 -0.379941 0
M  V30 28 H 2.780713 2.794811 1.391111 0
M  V30 29 H 1.452605 2.465687 3.430964 0
M  V30 30 H 0.023287 1.117485 4.724986 0
M  V30 END ATOM
M  V30 BEGIN BOND
M  V30 1 2 1 2
M  V30 2 1 2 3
M  V30 3 2 3 4
M  V30 4 1 4 5
M  V30 5 1 5 6
M  V30 6 1 6 7
M  V30 7 2 7 8
M  V30 8 1 8 9
M  V30 9 1 9 10
M  V30 10 1 10 11
M  V30 11 2 5 12
M  V30 12 1 12 13
M  V30 13 2 13 14
M  V30 14 1 14 15
M  V30 15 2 15 16
M  V30 16 1 16 1
M  V30 17 1 15 4
M  V30 18 1 11 7
M  V30 19 1 1 17
M  V30 20 1 2 18
M  V30 21 1 3 19
M  V30 22 1 6 20
M  V30 23 1 6 21
M  V30 24 1 9 22
M  V30 25 1 9 23
M  V30 26 1 10 24
M  V30 27 1 10 25
M  V30 28 1 11 26
M  V30 29 1 12 27
M  V30 30 1 13 28
M  V30 31 1 14 29
M  V30 32 1 16 30
M  V30 END BOND
M  V30 END CTAB
M  END
>  <Dataset>  (318) 
ChEMBL_Kinases

>  <Ligand_Instance>  (318) 
nan

>  <PDB_ID>  (318) 
nan

>  <Standardized_SMILES>  (318) 
c1ccc2c(CC3=NCCN3)cccc2c1

>  <Name>  (318) 
NAPHAZOLINE

>  <Pocket>  (318) 
nan

>  <ATP_Site>  (318) 
nan

>  <Peripheral>  (318) 
nan

>  <Num_H_Atoms_ProtBoundConf>  (318) 
nan

>  <Num_Resolved_Atoms>  (318) 
nan

>  <Num_Not_Resolved_Atoms>  (318) 
nan

$$$$
CHEMBL4870155
     RDKit          3D

  0  0  0  0  0  0  0  0  0  0999 V3000
M  V30 BEGIN CTAB
M  V30 COUNTS 60 63 0 0 0
M  V30 BEGIN ATOM
M  V30 1 C 6.099430 -1.915341 0.060717 0
M  V30 2 O 4.865743 -1.352728 0.380257 0
M  V30 3 C 3.702027 -1.440017 -0.364786 0
M  V30 4 C 3.638272 -2.123969 -1.556197 0
M  V30 5 C 2.522081 -2.234197 -2.315138 0
M  V30 6 C 1.374637 -1.616447 -1.857082 0
M  V30 7 C 1.436777 -0.930768 -0.664335 0
M  V30 8 C 2.558564 -0.801239 0.130792 0
M  V30 9 N 2.573360 -0.068918 1.352140 0
M  V30 10 C 1.505578 0.576286 2.032464 0
M  V30 11 N 1.819442 1.298474 3.118121 0
M  V30 12 C 0.915891 1.951964 3.855051 0
M  V30 13 C -0.379058 1.830851 3.416505 0
M  V30 14 C -1.351731 2.549410 4.223143 0
M  V30 15 N -1.047601 3.318372 5.377131 0
M  V30 16 O -2.560306 2.823506 4.350539 0
M  V30 17 C -0.801046 1.118755 2.323884 0
M  V30 18 N -2.137352 1.005445 1.873038 0
M  V30 19 C -3.362756 0.363605 2.127159 0
M  V30 20 C -4.453428 1.191290 2.364924 0
M  V30 21 C -5.723704 0.764604 2.649230 0
M  V30 22 C -5.860997 -0.604707 2.687182 0
M  V30 23 C -4.858919 -1.502509 2.469177 0
M  V30 24 C -3.610322 -0.988681 2.189010 0
M  V30 25 C -2.492238 -1.918970 1.938160 0
M  V30 26 C -1.907330 -1.748586 0.555606 0
M  V30 27 F -1.473685 -1.781102 2.857366 0
M  V30 28 F -2.932910 -3.227830 2.036749 0
M  V30 29 N 0.228456 0.525842 1.698485 0
M  V30 30 C 0.132439 -1.704830 -2.644320 0
M  V30 31 N 0.292144 -2.155293 -3.970820 0
M  V30 32 C -0.433132 -3.379584 -4.238397 0
M  V30 33 C 1.604853 -2.219722 -4.507661 0
M  V30 34 C 2.529761 -2.984457 -3.579103 0
M  V30 35 H 6.721148 -1.121066 -0.436048 0
M  V30 36 H 6.019159 -2.832443 -0.562525 0
M  V30 37 H 6.689461 -2.177264 0.986995 0
M  V30 38 H 4.530258 -2.611531 -1.924139 0
M  V30 39 H 0.502496 -0.470701 -0.382112 0
M  V30 40 H 3.543655 -0.020771 1.790261 0
M  V30 41 H 1.208465 2.521026 4.718291 0
M  V30 42 H -0.997965 3.008067 6.384264 0
M  V30 43 H -0.811600 4.353391 5.448253 0
M  V30 44 H -2.111217 1.668852 1.060095 0
M  V30 45 H -4.334293 2.284088 2.330818 0
M  V30 46 H -6.544726 1.444485 2.826317 0
M  V30 47 H -6.832992 -1.028313 2.905583 0
M  V30 48 H -5.026894 -2.571186 2.511610 0
M  V30 49 H -2.561009 -2.249200 -0.200211 0
M  V30 50 H -0.894211 -2.201867 0.480029 0
M  V30 51 H -1.825573 -0.697982 0.253355 0
M  V30 52 H -0.593988 -2.357527 -2.095195 0
M  V30 53 H -0.378820 -0.699313 -2.698021 0
M  V30 54 H -0.313129 -3.688556 -5.292153 0
M  V30 55 H -1.535067 -3.260367 -4.067993 0
M  V30 56 H -0.114444 -4.224664 -3.595005 0
M  V30 57 H 1.540416 -2.745003 -5.495833 0
M  V30 58 H 2.067967 -1.214632 -4.656176 0
M  V30 59 H 3.538935 -3.103085 -4.011126 0
M  V30 60 H 2.057702 -3.967913 -3.383459 0
M  V30 END ATOM
M  V30 BEGIN BOND
M  V30 1 1 1 2
M  V30 2 1 2 3
M  V30 3 2 3 4
M  V30 4 1 4 5
M  V30 5 2 5 6
M  V30 6 1 6 7
M  V30 7 2 7 8
M  V30 8 1 8 9
M  V30 9 1 9 10
M  V30 10 2 10 11
M  V30 11 1 11 12
M  V30 12 2 12 13
M  V30 13 1 13 14
M  V30 14 1 14 15
M  V30 15 2 14 16
M  V30 16 1 13 17
M  V30 17 1 17 18
M  V30 18 1 18 19
M  V30 19 2 19 20
M  V30 20 1 20 21
M  V30 21 2 21 22
M  V30 22 1 22 23
M  V30 23 2 23 24
M  V30 24 1 24 25
M  V30 25 1 25 26
M  V30 26 1 25 27
M  V30 27 1 25 28
M  V30 28 2 17 29
M  V30 29 1 6 30
M  V30 30 1 30 31
M  V30 31 1 31 32
M  V30 32 1 31 33
M  V30 33 1 33 34
M  V30 34 1 8 3
M  V30 35 1 29 10
M  V30 36 1 34 5
M  V30 37 1 24 19
M  V30 38 1 1 35
M  V30 39 1 1 36
M  V30 40 1 1 37
M  V30 41 1 4 38
M  V30 42 1 7 39
M  V30 43 1 9 40
M  V30 44 1 12 41
M  V30 45 1 15 42
M  V30 46 1 15 43
M  V30 47 1 18 44
M  V30 48 1 20 45
M  V30 49 1 21 46
M  V30 50 1 22 47
M  V30 51 1 23 48
M  V30 52 1 26 49
M  V30 53 1 26 50
M  V30 54 1 26 51
M  V30 55 1 30 52
M  V30 56 1 30 53
M  V30 57 1 32 54
M  V30 58 1 32 55
M  V30 59 1 32 56
M  V30 60 1 33 57
M  V30 61 1 33 58
M  V30 62 1 34 59
M  V30 63 1 34 60
M  V30 END BOND
M  V30 END CTAB
M  END
>  <Dataset>  (319) 
ChEMBL_Kinases

>  <Ligand_Instance>  (319) 
nan

>  <PDB_ID>  (319) 
nan

>  <Standardized_SMILES>  (319) 
COc1cc2c(cc1Nc1ncc(C(N)=O)c(Nc3ccccc3C(C)(F)F)n1)CN(C)CC2

>  <Name>  (319) 
nan

>  <Pocket>  (319) 
nan

>  <ATP_Site>  (319) 
nan

>  <Peripheral>  (319) 
nan

>  <Num_H_Atoms_ProtBoundConf>  (319) 
nan

>  <Num_Resolved_Atoms>  (319) 
nan

>  <Num_Not_Resolved_Atoms>  (319) 
nan

$$$$
CHEMBL4870176
     RDKit          3D

  0  0  0  0  0  0  0  0  0  0999 V3000
M  V30 BEGIN CTAB
M  V30 COUNTS 71 75 0 0 0
M  V30 BEGIN ATOM
M  V30 1 C 5.213321 -0.248457 -3.772768 0
M  V30 2 O 5.911092 -1.460193 -3.926233 0
M  V30 3 C 5.360130 -2.618703 -3.384582 0
M  V30 4 C 6.153600 -3.719371 -3.615345 0
M  V30 5 C 5.783423 -4.978528 -3.156779 0
M  V30 6 F 6.512888 -6.104074 -3.350227 0
M  V30 7 C 4.585766 -5.071047 -2.460237 0
M  V30 8 C 3.790923 -3.969847 -2.229509 0
M  V30 9 C 2.481699 -4.050576 -1.485887 0 CFG=1
M  V30 10 C 2.676130 -3.798127 -0.039409 0
M  V30 11 O 3.692444 -4.636992 0.484337 0
M  V30 12 N 1.472825 -3.263768 -2.139305 0
M  V30 13 C 0.431140 -3.773192 -2.990089 0
M  V30 14 O 0.482217 -5.040824 -3.119982 0
M  V30 15 C -0.524498 -2.766690 -3.580864 0 CFG=1
M  V30 16 C -1.906142 -3.305696 -3.413556 0
M  V30 17 N -0.341248 -1.455536 -2.969510 0
M  V30 18 C 0.126276 -0.140667 -3.343417 0
M  V30 19 C -0.080265 0.635853 -2.092568 0
M  V30 20 C 0.171019 1.987974 -1.875997 0
M  V30 21 C -0.049442 2.616515 -0.667640 0
M  V30 22 C -0.540400 1.891630 0.388730 0
M  V30 23 C -0.845939 2.398293 1.744955 0
M  V30 24 N -2.028293 1.977115 2.204383 0
M  V30 25 C -2.557715 2.275513 3.397152 0
M  V30 26 N -3.829995 1.761087 3.755033 0
M  V30 27 C -4.557476 1.927777 4.946050 0
M  V30 28 C -4.139624 2.611954 6.064668 0
M  V30 29 C -4.840601 2.779592 7.225922 0
M  V30 30 N -6.076713 2.209038 7.278450 0
M  V30 31 C -6.555768 1.524203 6.227882 0
M  V30 32 O -7.795159 0.940470 6.253050 0
M  V30 33 C -8.707453 0.968210 7.331415 0
M  V30 34 C -5.811110 1.384407 5.080476 0
M  V30 35 N -1.806564 3.069320 4.169394 0
M  V30 36 C -0.613494 3.538317 3.794180 0
M  V30 37 C -0.102632 3.211523 2.566137 0
M  V30 38 Cl 1.437085 3.711068 1.876625 0
M  V30 39 C -0.785435 0.543369 0.156608 0
M  V30 40 C -0.580734 -0.122559 -1.029909 0
M  V30 41 C -0.748840 -1.468108 -1.585040 0
M  V30 42 O -1.201558 -2.333292 -0.763692 0
M  V30 43 C 4.158060 -2.699669 -2.688632 0
M  V30 44 H 5.571686 0.531840 -4.502219 0
M  V30 45 H 5.364139 0.114880 -2.746482 0
M  V30 46 H 4.115820 -0.407352 -3.964443 0
M  V30 47 H 7.094910 -3.730585 -4.141841 0
M  V30 48 H 4.229682 -6.036185 -2.064273 0
M  V30 49 H 2.188258 -5.134252 -1.617259 0
M  V30 50 H 3.066642 -2.754014 0.134293 0
M  V30 51 H 1.787161 -4.026143 0.581117 0
M  V30 52 H 3.304828 -5.436127 0.930760 0
M  V30 53 H 1.552564 -2.231726 -1.944236 0
M  V30 54 H -0.216845 -2.677886 -4.650835 0
M  V30 55 H -2.673393 -2.503403 -3.594192 0
M  V30 56 H -2.038487 -3.759637 -2.417011 0
M  V30 57 H -2.021473 -4.123650 -4.187609 0
M  V30 58 H -0.416385 0.278218 -4.210242 0
M  V30 59 H 1.233557 -0.189929 -3.518277 0
M  V30 60 H 0.568193 2.640036 -2.662211 0
M  V30 61 H 0.140635 3.657131 -0.478060 0
M  V30 62 H -4.300796 1.163323 3.012352 0
M  V30 63 H -3.167722 3.078211 6.064443 0
M  V30 64 H -4.460491 3.335750 8.078292 0
M  V30 65 H -8.190408 0.992578 8.307555 0
M  V30 66 H -9.324998 1.889667 7.272578 0
M  V30 67 H -9.401376 0.109713 7.267695 0
M  V30 68 H -6.242027 0.813934 4.245037 0
M  V30 69 H 0.022530 4.178448 4.387961 0
M  V30 70 H -1.176193 -0.050751 0.979417 0
M  V30 71 H 3.614319 -1.788831 -2.556973 0
M  V30 END ATOM
M  V30 BEGIN BOND
M  V30 1 1 1 2
M  V30 2 1 2 3
M  V30 3 2 3 4
M  V30 4 1 4 5
M  V30 5 1 5 6
M  V30 6 2 5 7
M  V30 7 1 7 8
M  V30 8 1 8 9
M  V30 9 1 9 10
M  V30 10 1 10 11
M  V30 11 1 9 12
M  V30 12 1 12 13
M  V30 13 2 13 14
M  V30 14 1 13 15
M  V30 15 1 15 16
M  V30 16 1 15 17
M  V30 17 1 17 18
M  V30 18 1 18 19
M  V30 19 2 19 20
M  V30 20 1 20 21
M  V30 21 2 21 22
M  V30 22 1 22 23
M  V30 23 2 23 24
M  V30 24 1 24 25
M  V30 25 1 25 26
M  V30 26 1 26 27
M  V30 27 2 27 28
M  V30 28 1 28 29
M  V30 29 2 29 30
M  V30 30 1 30 31
M  V30 31 1 31 32
M  V30 32 1 32 33
M  V30 33 2 31 34
M  V30 34 2 25 35
M  V30 35 1 35 36
M  V30 36 2 36 37
M  V30 37 1 37 38
M  V30 38 1 22 39
M  V30 39 2 39 40
M  V30 40 1 40 41
M  V30 41 2 41 42
M  V30 42 2 8 43
M  V30 43 1 43 3
M  V30 44 1 41 17
M  V30 45 1 40 19
M  V30 46 1 37 23
M  V30 47 1 34 27
M  V30 48 1 1 44
M  V30 49 1 1 45
M  V30 50 1 1 46
M  V30 51 1 4 47
M  V30 52 1 7 48
M  V30 53 1 9 49 CFG=1
M  V30 54 1 10 50
M  V30 55 1 10 51
M  V30 56 1 11 52
M  V30 57 1 12 53
M  V30 58 1 15 54 CFG=3
M  V30 59 1 16 55
M  V30 60 1 16 56
M  V30 61 1 16 57
M  V30 62 1 18 58
M  V30 63 1 18 59
M  V30 64 1 20 60
M  V30 65 1 21 61
M  V30 66 1 26 62
M  V30 67 1 28 63
M  V30 68 1 29 64
M  V30 69 1 33 65
M  V30 70 1 33 66
M  V30 71 1 33 67
M  V30 72 1 34 68
M  V30 73 1 36 69
M  V30 74 1 39 70
M  V30 75 1 43 71
M  V30 END BOND
M  V30 END CTAB
M  END
>  <Dataset>  (320) 
ChEMBL_Kinases

>  <Ligand_Instance>  (320) 
nan

>  <PDB_ID>  (320) 
nan

>  <Standardized_SMILES>  (320) 
COc1cc(F)cc([C@@H](CO)NC(=O)[C@@H](C)N2Cc3ccc(-c4nc(Nc5ccnc(OC)c5)ncc4Cl)cc3C2=O)c1

>  <Name>  (320) 
nan

>  <Pocket>  (320) 
nan

>  <ATP_Site>  (320) 
nan

>  <Peripheral>  (320) 
nan

>  <Num_H_Atoms_ProtBoundConf>  (320) 
nan

>  <Num_Resolved_Atoms>  (320) 
nan

>  <Num_Not_Resolved_Atoms>  (320) 
nan

$$$$
CHEMBL4870189
     RDKit          3D

  0  0  0  0  0  0  0  0  0  0999 V3000
M  V30 BEGIN CTAB
M  V30 COUNTS 40 42 0 0 0
M  V30 BEGIN ATOM
M  V30 1 C -0.801553 -2.992927 2.346508 0
M  V30 2 O -1.332360 -3.497442 1.165753 0
M  V30 3 C -0.424757 -4.252182 0.441917 0
M  V30 4 C 0.798056 -3.473824 0.036931 0
M  V30 5 C 0.373528 -2.307659 -0.821773 0
M  V30 6 N 1.502233 -1.507869 -1.255100 0
M  V30 7 C 2.388815 -2.170547 -2.192801 0
M  V30 8 C 1.788670 -0.175101 -0.843324 0
M  V30 9 N 2.873830 0.464560 -1.321393 0
M  V30 10 C 3.183258 1.723304 -0.960746 0
M  V30 11 C 2.319274 2.325209 -0.067069 0
M  V30 12 C 1.198140 1.716122 0.450712 0
M  V30 13 C 0.353567 2.448251 1.389934 0
M  V30 14 C 0.568842 3.750336 1.835424 0
M  V30 15 N -0.417822 4.062585 2.683321 0
M  V30 16 N -1.263528 3.055155 2.822985 0
M  V30 17 N -2.368678 2.881258 3.531762 0
M  V30 18 C -3.072585 1.735042 3.506501 0
M  V30 19 C -2.663630 0.654784 2.717768 0
M  V30 20 C -1.498195 0.850817 1.976385 0
M  V30 21 C -0.801582 2.046980 2.029504 0
M  V30 22 N 0.955095 0.440429 0.034910 0
M  V30 23 H 0.070849 -2.334873 2.171327 0
M  V30 24 H -0.600626 -3.801337 3.090288 0
M  V30 25 H -1.581867 -2.346056 2.802676 0
M  V30 26 H -0.938400 -4.612971 -0.464375 0
M  V30 27 H -0.169106 -5.141027 1.051928 0
M  V30 28 H 1.401382 -4.159423 -0.622830 0
M  V30 29 H 1.446483 -3.197606 0.877540 0
M  V30 30 H -0.327412 -1.690806 -0.190826 0
M  V30 31 H -0.225176 -2.687323 -1.659482 0
M  V30 32 H 1.834347 -2.870684 -2.864860 0
M  V30 33 H 3.166545 -2.785933 -1.710740 0
M  V30 34 H 2.844171 -1.432113 -2.916045 0
M  V30 35 H 4.060844 2.208833 -1.361695 0
M  V30 36 H 2.569018 3.337181 0.222482 0
M  V30 37 H 1.378708 4.407658 1.560085 0
M  V30 38 H -3.974250 1.704452 4.135815 0
M  V30 39 H -3.253056 -0.252059 2.721713 0
M  V30 40 H -1.157596 0.028361 1.354719 0
M  V30 END ATOM
M  V30 BEGIN BOND
M  V30 1 1 1 2
M  V30 2 1 2 3
M  V30 3 1 3 4
M  V30 4 1 4 5
M  V30 5 1 5 6
M  V30 6 1 6 7
M  V30 7 1 6 8
M  V30 8 2 8 9
M  V30 9 1 9 10
M  V30 10 2 10 11
M  V30 11 1 11 12
M  V30 12 1 12 13
M  V30 13 1 13 14
M  V30 14 2 14 15
M  V30 15 1 15 16
M  V30 16 1 16 17
M  V30 17 2 17 18
M  V30 18 1 18 19
M  V30 19 2 19 20
M  V30 20 1 20 21
M  V30 21 2 12 22
M  V30 22 1 22 8
M  V30 23 2 21 13
M  V30 24 1 21 16
M  V30 25 1 1 23
M  V30 26 1 1 24
M  V30 27 1 1 25
M  V30 28 1 3 26
M  V30 29 1 3 27
M  V30 30 1 4 28
M  V30 31 1 4 29
M  V30 32 1 5 30
M  V30 33 1 5 31
M  V30 34 1 7 32
M  V30 35 1 7 33
M  V30 36 1 7 34
M  V30 37 1 10 35
M  V30 38 1 11 36
M  V30 39 1 14 37
M  V30 40 1 18 38
M  V30 41 1 19 39
M  V30 42 1 20 40
M  V30 END BOND
M  V30 END CTAB
M  END
>  <Dataset>  (321) 
ChEMBL_Kinases

>  <Ligand_Instance>  (321) 
nan

>  <PDB_ID>  (321) 
nan

>  <Standardized_SMILES>  (321) 
COCCCN(C)c1nccc(-c2cnn3ncccc23)n1

>  <Name>  (321) 
nan

>  <Pocket>  (321) 
nan

>  <ATP_Site>  (321) 
nan

>  <Peripheral>  (321) 
nan

>  <Num_H_Atoms_ProtBoundConf>  (321) 
nan

>  <Num_Resolved_Atoms>  (321) 
nan

>  <Num_Not_Resolved_Atoms>  (321) 
nan

$$$$
CHEMBL850
     RDKit          3D

  0  0  0  0  0  0  0  0  0  0999 V3000
M  V30 BEGIN CTAB
M  V30 COUNTS 50 53 0 0 0
M  V30 BEGIN ATOM
M  V30 1 C -4.345758 -3.000637 -0.451019 0
M  V30 2 C -2.892624 -2.791940 -0.068863 0 CFG=2
M  V30 3 C -2.329240 -1.629213 -0.820628 0
M  V30 4 N -0.880762 -1.695408 -0.767120 0
M  V30 5 C -0.089265 -0.576032 -0.364776 0
M  V30 6 C 0.323125 0.296265 -1.342509 0
M  V30 7 F -0.016778 0.088748 -2.637145 0
M  V30 8 C 1.089554 1.393443 -1.007715 0
M  V30 9 N 1.505120 2.282247 -2.033010 0
M  V30 10 C 1.428952 1.592671 0.317657 0
M  V30 11 C 2.203175 2.716849 0.590639 0
M  V30 12 O 2.573318 3.506565 -0.314803 0
M  V30 13 C 2.547055 2.924714 1.908734 0
M  V30 14 C 3.356257 4.080162 2.274202 0
M  V30 15 O 3.740579 4.887101 1.387645 0
M  V30 16 O 3.711587 4.305181 3.594142 0
M  V30 17 C 2.127583 2.042614 2.882021 0
M  V30 18 N 1.381191 0.957723 2.623479 0
M  V30 19 C 0.937830 0.027318 3.644438 0
M  V30 20 C 1.770325 -1.140990 3.971752 0
M  V30 21 C 1.668829 -0.015408 4.963977 0
M  V30 22 C 1.035598 0.739086 1.338774 0
M  V30 23 C 0.271918 -0.339963 0.946897 0
M  V30 24 F -0.157012 -1.223018 1.863974 0
M  V30 25 C -0.157339 -2.888303 -1.114891 0
M  V30 26 C -1.088920 -4.062120 -1.084546 0 CFG=2
M  V30 27 C -1.588879 -4.435134 -2.466810 0
M  V30 28 N -2.125090 -3.988500 -0.102431 0
M  V30 29 H -4.616862 -4.031671 -0.129316 0
M  V30 30 H -4.958525 -2.233823 0.091478 0
M  V30 31 H -4.546824 -2.808840 -1.523870 0
M  V30 32 H -2.915356 -2.473194 1.014684 0
M  V30 33 H -2.639409 -0.669287 -0.329656 0
M  V30 34 H -2.701593 -1.602577 -1.863491 0
M  V30 35 H 2.408729 2.124356 -2.561427 0
M  V30 36 H 1.144035 3.167465 -2.490765 0
M  V30 37 H 4.051323 5.191946 3.942888 0
M  V30 38 H 2.425628 2.253340 3.898958 0
M  V30 39 H -0.181698 0.018734 3.793943 0
M  V30 40 H 1.300008 -2.112376 4.169051 0
M  V30 41 H 2.739992 -1.188767 3.418482 0
M  V30 42 H 1.125716 -0.263766 5.891376 0
M  V30 43 H 2.531216 0.643667 5.148085 0
M  V30 44 H 0.213930 -2.767449 -2.162964 0
M  V30 45 H 0.753077 -3.036281 -0.504987 0
M  V30 46 H -0.447870 -4.940584 -0.777789 0
M  V30 47 H -1.891048 -5.500661 -2.422970 0
M  V30 48 H -0.712793 -4.351339 -3.147102 0
M  V30 49 H -2.367531 -3.766162 -2.852202 0
M  V30 50 H -1.812955 -4.348192 0.834792 0
M  V30 END ATOM
M  V30 BEGIN BOND
M  V30 1 1 1 2
M  V30 2 1 2 3
M  V30 3 1 3 4
M  V30 4 1 4 5
M  V30 5 2 5 6
M  V30 6 1 6 7
M  V30 7 1 6 8
M  V30 8 1 8 9
M  V30 9 2 8 10
M  V30 10 1 10 11
M  V30 11 2 11 12
M  V30 12 1 11 13
M  V30 13 1 13 14
M  V30 14 2 14 15
M  V30 15 1 14 16
M  V30 16 2 13 17
M  V30 17 1 17 18
M  V30 18 1 18 19
M  V30 19 1 19 20
M  V30 20 1 20 21
M  V30 21 1 18 22
M  V30 22 2 22 23
M  V30 23 1 23 24
M  V30 24 1 4 25
M  V30 25 1 25 26
M  V30 26 1 26 27
M  V30 27 1 26 28
M  V30 28 1 28 2
M  V30 29 1 23 5
M  V30 30 1 22 10
M  V30 31 1 21 19
M  V30 32 1 1 29
M  V30 33 1 1 30
M  V30 34 1 1 31
M  V30 35 1 2 32 CFG=1
M  V30 36 1 3 33
M  V30 37 1 3 34
M  V30 38 1 9 35
M  V30 39 1 9 36
M  V30 40 1 16 37
M  V30 41 1 17 38
M  V30 42 1 19 39
M  V30 43 1 20 40
M  V30 44 1 20 41
M  V30 45 1 21 42
M  V30 46 1 21 43
M  V30 47 1 25 44
M  V30 48 1 25 45
M  V30 49 1 26 46 CFG=1
M  V30 50 1 27 47
M  V30 51 1 27 48
M  V30 52 1 27 49
M  V30 53 1 28 50
M  V30 END BOND
M  V30 END CTAB
M  END
>  <Dataset>  (322) 
ChEMBL_Kinases

>  <Ligand_Instance>  (322) 
nan

>  <PDB_ID>  (322) 
nan

>  <Standardized_SMILES>  (322) 
C[C@@H]1CN(c2c(F)c(N)c3c(=O)c(C(=O)O)cn(C4CC4)c3c2F)C[C@H](C)N1

>  <Name>  (322) 
SPARFLOXACIN

>  <Pocket>  (322) 
nan

>  <ATP_Site>  (322) 
nan

>  <Peripheral>  (322) 
nan

>  <Num_H_Atoms_ProtBoundConf>  (322) 
nan

>  <Num_Resolved_Atoms>  (322) 
nan

>  <Num_Not_Resolved_Atoms>  (322) 
nan

$$$$
CHEMBL4870223
     RDKit          3D

  0  0  0  0  0  0  0  0  0  0999 V3000
M  V30 BEGIN CTAB
M  V30 COUNTS 85 90 0 0 0
M  V30 BEGIN ATOM
M  V30 1 C 1.193070 -2.866979 6.116261 0
M  V30 2 O 0.122279 -2.412852 5.306789 0
M  V30 3 C 0.167873 -2.484897 3.924333 0
M  V30 4 C 1.271709 -3.007468 3.305048 0
M  V30 5 C 1.375978 -3.102911 1.937397 0
M  V30 6 N 2.503816 -3.644637 1.268048 0
M  V30 7 C 2.526238 -4.133408 -0.111939 0
M  V30 8 C 3.345571 -3.264197 -1.004477 0
M  V30 9 N 4.221199 -2.453606 -0.162910 0
M  V30 10 C 5.140878 -1.675460 -0.973395 0
M  V30 11 C 4.873455 -3.246539 0.857396 0
M  V30 12 C 3.833903 -3.811350 1.792441 0
M  V30 13 C 0.295286 -2.638523 1.224498 0
M  V30 14 C -0.841370 -2.101944 1.828917 0
M  V30 15 C -0.918608 -2.017101 3.230487 0
M  V30 16 N -2.120106 -1.508465 3.785011 0
M  V30 17 C -3.254779 -0.910667 3.200786 0
M  V30 18 N -4.339453 -0.838694 3.954041 0
M  V30 19 C -5.485230 -0.300432 3.573184 0
M  V30 20 C -5.518834 0.215246 2.295985 0
M  V30 21 C -6.691867 0.784306 1.844886 0
M  V30 22 C -6.808752 1.318573 0.581916 0
M  V30 23 C -8.045220 1.953676 0.008114 0
M  V30 24 C -5.686786 1.253754 -0.205064 0
M  V30 25 O -5.714148 1.718653 -1.363517 0
M  V30 26 N -4.514664 0.694293 0.222398 0
M  V30 27 C -3.378584 0.719849 -0.651106 0 CFG=1
M  V30 28 C -2.152089 1.307584 0.063538 0
M  V30 29 C -1.320384 1.995395 -1.012424 0
M  V30 30 C -1.097205 0.943263 -2.078556 0 CFG=1
M  V30 31 N 0.345741 0.942083 -2.324347 0
M  V30 32 C 0.992897 1.273017 -3.536512 0
M  V30 33 O 0.164805 1.588806 -4.443106 0
M  V30 34 C 2.493865 1.174115 -3.453949 0
M  V30 35 C 3.093414 1.586888 -4.791387 0
M  V30 36 C 4.516316 1.952595 -4.381731 0
M  V30 37 C 4.450141 2.392471 -2.949386 0
M  V30 38 C 2.973209 2.313591 -2.552325 0
M  V30 39 C -1.485462 -0.439093 -1.653058 0
M  V30 40 C -2.964436 -0.559711 -1.271512 0
M  V30 41 C -4.430185 0.179282 1.456630 0
M  V30 42 N -3.327642 -0.394517 1.959266 0
M  V30 43 H 2.080783 -2.204985 6.003675 0
M  V30 44 H 0.914942 -2.881038 7.185912 0
M  V30 45 H 1.537172 -3.886332 5.789490 0
M  V30 46 H 2.082957 -3.351617 3.910563 0
M  V30 47 H 2.933971 -5.178841 -0.127282 0
M  V30 48 H 1.493860 -4.210340 -0.519661 0
M  V30 49 H 3.920485 -3.818256 -1.789759 0
M  V30 50 H 2.716593 -2.539067 -1.574201 0
M  V30 51 H 4.595546 -1.520749 -1.951465 0
M  V30 52 H 6.109103 -2.154847 -1.159727 0
M  V30 53 H 5.238414 -0.682938 -0.505799 0
M  V30 54 H 5.538258 -4.028360 0.433591 0
M  V30 55 H 5.514774 -2.539295 1.435429 0
M  V30 56 H 3.927625 -3.360373 2.816273 0
M  V30 57 H 3.989479 -4.915054 1.942893 0
M  V30 58 H 0.338820 -2.694908 0.142382 0
M  V30 59 H -1.609564 -1.778016 1.167000 0
M  V30 60 H -2.086477 -1.627924 4.839716 0
M  V30 61 H -6.379231 -0.244671 4.191334 0
M  V30 62 H -7.591103 0.838237 2.466204 0
M  V30 63 H -8.562684 1.253485 -0.675724 0
M  V30 64 H -7.694845 2.798629 -0.634219 0
M  V30 65 H -8.689034 2.403043 0.774274 0
M  V30 66 H -3.590275 1.429426 -1.512530 0
M  V30 67 H -2.468057 2.009235 0.858551 0
M  V30 68 H -1.516027 0.487151 0.450719 0
M  V30 69 H -1.928194 2.800274 -1.458413 0
M  V30 70 H -0.388054 2.323813 -0.557232 0
M  V30 71 H -1.656570 1.189174 -3.010216 0
M  V30 72 H 0.786342 0.643316 -1.405569 0
M  V30 73 H 2.813836 0.195609 -3.102566 0
M  V30 74 H 2.529613 2.522387 -5.069697 0
M  V30 75 H 3.055870 0.811803 -5.553898 0
M  V30 76 H 4.937550 2.724904 -5.071688 0
M  V30 77 H 5.127574 1.027907 -4.490825 0
M  V30 78 H 4.967948 1.633555 -2.306727 0
M  V30 79 H 4.877894 3.386256 -2.757800 0
M  V30 80 H 2.814166 2.130210 -1.489874 0
M  V30 81 H 2.500725 3.243169 -2.936029 0
M  V30 82 H -1.378227 -1.071967 -2.576746 0
M  V30 83 H -0.835511 -0.893050 -0.898328 0
M  V30 84 H -3.583292 -0.772975 -2.195260 0
M  V30 85 H -3.136596 -1.443318 -0.630696 0
M  V30 END ATOM
M  V30 BEGIN BOND
M  V30 1 1 1 2
M  V30 2 1 2 3
M  V30 3 2 3 4
M  V30 4 1 4 5
M  V30 5 1 5 6
M  V30 6 1 6 7
M  V30 7 1 7 8
M  V30 8 1 8 9
M  V30 9 1 9 10
M  V30 10 1 9 11
M  V30 11 1 11 12
M  V30 12 2 5 13
M  V30 13 1 13 14
M  V30 14 2 14 15
M  V30 15 1 15 16
M  V30 16 1 16 17
M  V30 17 2 17 18
M  V30 18 1 18 19
M  V30 19 2 19 20
M  V30 20 1 20 21
M  V30 21 2 21 22
M  V30 22 1 22 23
M  V30 23 1 22 24
M  V30 24 2 24 25
M  V30 25 1 24 26
M  V30 26 1 26 27
M  V30 27 1 27 28
M  V30 28 1 28 29
M  V30 29 1 29 30
M  V30 30 1 30 31
M  V30 31 1 31 32
M  V30 32 2 32 33
M  V30 33 1 32 34
M  V30 34 1 34 35
M  V30 35 1 35 36
M  V30 36 1 36 37
M  V30 37 1 37 38
M  V30 38 1 30 39
M  V30 39 1 39 40
M  V30 40 1 26 41
M  V30 41 2 41 42
M  V30 42 1 15 3
M  V30 43 1 42 17
M  V30 44 1 12 6
M  V30 45 1 41 20
M  V30 46 1 40 27
M  V30 47 1 38 34
M  V30 48 1 1 43
M  V30 49 1 1 44
M  V30 50 1 1 45
M  V30 51 1 4 46
M  V30 52 1 7 47
M  V30 53 1 7 48
M  V30 54 1 8 49
M  V30 55 1 8 50
M  V30 56 1 10 51
M  V30 57 1 10 52
M  V30 58 1 10 53
M  V30 59 1 11 54
M  V30 60 1 11 55
M  V30 61 1 12 56
M  V30 62 1 12 57
M  V30 63 1 13 58
M  V30 64 1 14 59
M  V30 65 1 16 60
M  V30 66 1 19 61
M  V30 67 1 21 62
M  V30 68 1 23 63
M  V30 69 1 23 64
M  V30 70 1 23 65
M  V30 71 1 27 66 CFG=3
M  V30 72 1 28 67
M  V30 73 1 28 68
M  V30 74 1 29 69
M  V30 75 1 29 70
M  V30 76 1 30 71 CFG=3
M  V30 77 1 31 72
M  V30 78 1 34 73
M  V30 79 1 35 74
M  V30 80 1 35 75
M  V30 81 1 36 76
M  V30 82 1 36 77
M  V30 83 1 37 78
M  V30 84 1 37 79
M  V30 85 1 38 80
M  V30 86 1 38 81
M  V30 87 1 39 82
M  V30 88 1 39 83
M  V30 89 1 40 84
M  V30 90 1 40 85
M  V30 END BOND
M  V30 END CTAB
M  END
>  <Dataset>  (323) 
ChEMBL_Kinases

>  <Ligand_Instance>  (323) 
nan

>  <PDB_ID>  (323) 
nan

>  <Standardized_SMILES>  (323) 
COc1cc(N2CCN(C)CC2)ccc1Nc1ncc2cc(C)c(=O)n([C@H]3CC[C@@H](NC(=O)C4CCCC4)CC3)c2n1

>  <Name>  (323) 
nan

>  <Pocket>  (323) 
nan

>  <ATP_Site>  (323) 
nan

>  <Peripheral>  (323) 
nan

>  <Num_H_Atoms_ProtBoundConf>  (323) 
nan

>  <Num_Resolved_Atoms>  (323) 
nan

>  <Num_Not_Resolved_Atoms>  (323) 
nan

$$$$
CHEMBL4870231
     RDKit          3D

  0  0  0  0  0  0  0  0  0  0999 V3000
M  V30 BEGIN CTAB
M  V30 COUNTS 57 60 0 0 0
M  V30 BEGIN ATOM
M  V30 1 C 2.478137 -2.443706 -0.777556 0
M  V30 2 C 3.152449 -2.008619 0.530866 0
M  V30 3 C 2.613244 -2.939915 1.580500 0
M  V30 4 C 2.453123 -2.339671 2.934519 0
M  V30 5 C 1.786734 -0.980337 2.941085 0
M  V30 6 C 1.364338 -0.682631 1.516460 0
M  V30 7 N 0.558473 0.490855 1.375367 0
M  V30 8 C 1.119116 1.685917 1.840169 0
M  V30 9 O 2.243574 1.890293 2.371002 0
M  V30 10 O 0.435083 2.861627 1.755140 0
M  V30 11 C -0.824932 3.055001 1.126256 0
M  V30 12 C -0.542272 3.924464 -0.079750 0
M  V30 13 C -1.717007 4.278726 -0.911461 0
M  V30 14 C 0.457760 3.228622 -1.012141 0
M  V30 15 C -1.386302 1.756856 0.740704 0
M  V30 16 C -2.661950 1.723621 0.229874 0
M  V30 17 N -3.169174 0.547571 -0.153461 0
M  V30 18 C -2.563170 -0.636413 -0.096291 0
M  V30 19 N -3.256257 -1.787133 -0.550732 0
M  V30 20 C -2.810912 -3.124339 -0.583115 0
M  V30 21 C -3.631894 -4.116870 -1.060814 0
M  V30 22 C -3.269408 -5.440371 -1.124137 0
M  V30 23 F -4.128462 -6.369845 -1.607327 0
M  V30 24 C -2.028508 -5.847966 -0.698938 0
M  V30 25 O -1.697665 -7.189175 -0.777223 0
M  V30 26 C -1.177967 -4.898548 -0.216310 0
M  V30 27 F 0.042971 -5.298137 0.202050 0
M  V30 28 C -1.583672 -3.583173 -0.171310 0
M  V30 29 N -1.318162 -0.601457 0.404149 0
M  V30 30 C -0.743615 0.541512 0.809748 0
M  V30 31 C 2.682892 -0.562745 0.740471 0
M  V30 32 H 2.436659 -1.582676 -1.440448 0
M  V30 33 H 3.016727 -3.320588 -1.163819 0
M  V30 34 H 1.434859 -2.796328 -0.530761 0
M  V30 35 H 4.235450 -2.081465 0.365793 0
M  V30 36 H 1.661051 -3.436978 1.298310 0
M  V30 37 H 3.354078 -3.770638 1.677349 0
M  V30 38 H 1.783379 -3.014289 3.521247 0
M  V30 39 H 3.427178 -2.331834 3.460253 0
M  V30 40 H 0.977351 -0.880763 3.672918 0
M  V30 41 H 2.583043 -0.254440 3.204430 0
M  V30 42 H 0.859495 -1.567739 1.131819 0
M  V30 43 H -1.517048 3.617048 1.783363 0
M  V30 44 H -0.040279 4.858468 0.256397 0
M  V30 45 H -2.003103 3.475488 -1.625937 0
M  V30 46 H -1.364156 5.116297 -1.595115 0
M  V30 47 H -2.573342 4.736347 -0.376617 0
M  V30 48 H 1.475476 3.265104 -0.620647 0
M  V30 49 H 0.424003 3.781008 -1.964916 0
M  V30 50 H 0.089323 2.192326 -1.196055 0
M  V30 51 H -3.336690 2.549299 0.098777 0
M  V30 52 H -4.241339 -1.629190 -0.916795 0
M  V30 53 H -4.645263 -3.882878 -1.422964 0
M  V30 54 H -1.944047 -7.686711 -1.616087 0
M  V30 55 H -0.873996 -2.894010 0.215316 0
M  V30 56 H 3.431196 -0.083751 1.404927 0
M  V30 57 H 2.535442 -0.024869 -0.207439 0
M  V30 END ATOM
M  V30 BEGIN BOND
M  V30 1 1 1 2
M  V30 2 1 2 3
M  V30 3 1 3 4
M  V30 4 1 4 5
M  V30 5 1 5 6
M  V30 6 1 6 7
M  V30 7 1 7 8
M  V30 8 2 8 9
M  V30 9 1 8 10
M  V30 10 1 10 11
M  V30 11 1 11 12
M  V30 12 1 12 13
M  V30 13 1 12 14
M  V30 14 1 11 15
M  V30 15 2 15 16
M  V30 16 1 16 17
M  V30 17 2 17 18
M  V30 18 1 18 19
M  V30 19 1 19 20
M  V30 20 2 20 21
M  V30 21 1 21 22
M  V30 22 1 22 23
M  V30 23 2 22 24
M  V30 24 1 24 25
M  V30 25 1 24 26
M  V30 26 1 26 27
M  V30 27 2 26 28
M  V30 28 1 18 29
M  V30 29 2 29 30
M  V30 30 1 6 31
M  V30 31 1 31 2
M  V30 32 1 30 7
M  V30 33 1 30 15
M  V30 34 1 28 20
M  V30 35 1 1 32
M  V30 36 1 1 33
M  V30 37 1 1 34
M  V30 38 1 2 35
M  V30 39 1 3 36
M  V30 40 1 3 37
M  V30 41 1 4 38
M  V30 42 1 4 39
M  V30 43 1 5 40
M  V30 44 1 5 41
M  V30 45 1 6 42
M  V30 46 1 11 43
M  V30 47 1 12 44
M  V30 48 1 13 45
M  V30 49 1 13 46
M  V30 50 1 13 47
M  V30 51 1 14 48
M  V30 52 1 14 49
M  V30 53 1 14 50
M  V30 54 1 16 51
M  V30 55 1 19 52
M  V30 56 1 21 53
M  V30 57 1 25 54
M  V30 58 1 28 55
M  V30 59 1 31 56
M  V30 60 1 31 57
M  V30 END BOND
M  V30 END CTAB
M  END
>  <Dataset>  (324) 
ChEMBL_Kinases

>  <Ligand_Instance>  (324) 
nan

>  <PDB_ID>  (324) 
nan

>  <Standardized_SMILES>  (324) 
CC1CCCC(N2C(=O)OC(C(C)C)c3cnc(Nc4cc(F)c(O)c(F)c4)nc32)C1

>  <Name>  (324) 
nan

>  <Pocket>  (324) 
nan

>  <ATP_Site>  (324) 
nan

>  <Peripheral>  (324) 
nan

>  <Num_H_Atoms_ProtBoundConf>  (324) 
nan

>  <Num_Resolved_Atoms>  (324) 
nan

>  <Num_Not_Resolved_Atoms>  (324) 
nan

$$$$
CHEMBL4870276
     RDKit          3D

  0  0  0  0  0  0  0  0  0  0999 V3000
M  V30 BEGIN CTAB
M  V30 COUNTS 63 67 0 0 0
M  V30 BEGIN ATOM
M  V30 1 C 4.822639 -1.583199 2.694233 0
M  V30 2 O 4.327287 -0.355322 2.169001 0
M  V30 3 C 4.113412 0.675309 3.074826 0
M  V30 4 C 4.348844 0.583721 4.440196 0
M  V30 5 C 4.113111 1.653982 5.290054 0
M  V30 6 C 3.631148 2.855053 4.790991 0
M  V30 7 F 3.378722 3.942237 5.563250 0
M  V30 8 C 3.390396 2.961888 3.424364 0
M  V30 9 C 3.629132 1.887406 2.584937 0
M  V30 10 C 3.356191 2.059732 1.161467 0
M  V30 11 C 4.366194 2.515255 0.334352 0
M  V30 12 C 4.084948 2.669145 -1.008280 0
M  V30 13 N 2.881382 2.397342 -1.541299 0
M  V30 14 C 1.886319 1.957206 -0.774655 0
M  V30 15 N 0.614465 1.598149 -0.933588 0
M  V30 16 C 0.012146 1.211949 0.202093 0
M  V30 17 C -1.362364 0.760011 0.377830 0
M  V30 18 C -2.161350 0.698027 -0.673497 0
M  V30 19 C -3.559866 0.226209 -0.426459 0
M  V30 20 N -3.483794 -0.906929 0.377946 0
M  V30 21 C -3.641955 -2.204487 -0.090463 0
M  V30 22 C -4.953170 -2.541248 -0.733266 0
M  V30 23 C -4.926129 -3.809855 -1.537676 0
M  V30 24 N -3.772080 -3.923443 -2.385657 0
M  V30 25 C -3.071044 -5.165216 -2.293509 0
M  V30 26 C -1.926161 -5.093805 -3.230319 0
M  V30 27 O -1.210979 -6.139078 -3.236698 0
M  V30 28 O -0.864528 -5.013890 -4.106274 0
M  V30 29 C -2.934005 -2.749465 -2.354981 0
M  V30 30 C -2.448904 -2.603955 -0.929481 0
M  V30 31 C -2.830150 -0.739906 1.611514 0
M  V30 32 C -1.848815 0.374753 1.725937 0
M  V30 33 C 0.973664 1.326700 1.200905 0
M  V30 34 C 2.117355 1.786403 0.577018 0
M  V30 35 H 5.810190 -1.365531 3.194185 0
M  V30 36 H 4.974905 -2.341071 1.914318 0
M  V30 37 H 4.143249 -1.912337 3.505295 0
M  V30 38 H 4.727284 -0.369065 4.807501 0
M  V30 39 H 4.301161 1.559860 6.334616 0
M  V30 40 H 3.008355 3.917712 3.037921 0
M  V30 41 H 5.357533 2.755260 0.682507 0
M  V30 42 H 4.827531 3.026192 -1.740461 0
M  V30 43 H 0.150538 1.627086 -1.887483 0
M  V30 44 H -1.774719 0.983298 -1.633874 0
M  V30 45 H -4.131125 1.090073 0.017054 0
M  V30 46 H -3.993563 0.088999 -1.433293 0
M  V30 47 H -3.561811 -2.886585 0.819184 0
M  V30 48 H -5.282882 -1.686754 -1.359088 0
M  V30 49 H -5.708555 -2.637574 0.075263 0
M  V30 50 H -5.823928 -3.939627 -2.170228 0
M  V30 51 H -4.912354 -4.675606 -0.846439 0
M  V30 52 H -3.761606 -5.952199 -2.694085 0
M  V30 53 H -2.740562 -5.368578 -1.251905 0
M  V30 54 H -0.607469 -4.130139 -4.562851 0
M  V30 55 H -3.536254 -1.886976 -2.701903 0
M  V30 56 H -2.093743 -2.965292 -3.057655 0
M  V30 57 H -2.001396 -3.576570 -0.629849 0
M  V30 58 H -1.689246 -1.789789 -0.912442 0
M  V30 59 H -3.585801 -0.664952 2.453479 0
M  V30 60 H -2.260953 -1.680585 1.881316 0
M  V30 61 H -1.011231 0.159745 2.421981 0
M  V30 62 H -2.337444 1.288551 2.166096 0
M  V30 63 H 0.806372 1.089208 2.246326 0
M  V30 END ATOM
M  V30 BEGIN BOND
M  V30 1 1 1 2
M  V30 2 1 2 3
M  V30 3 2 3 4
M  V30 4 1 4 5
M  V30 5 2 5 6
M  V30 6 1 6 7
M  V30 7 1 6 8
M  V30 8 2 8 9
M  V30 9 1 9 10
M  V30 10 2 10 11
M  V30 11 1 11 12
M  V30 12 2 12 13
M  V30 13 1 13 14
M  V30 14 1 14 15
M  V30 15 1 15 16
M  V30 16 1 16 17
M  V30 17 2 17 18
M  V30 18 1 18 19
M  V30 19 1 19 20
M  V30 20 1 20 21
M  V30 21 1 21 22
M  V30 22 1 22 23
M  V30 23 1 23 24
M  V30 24 1 24 25
M  V30 25 1 25 26
M  V30 26 2 26 27
M  V30 27 1 26 28
M  V30 28 1 24 29
M  V30 29 1 29 30
M  V30 30 1 20 31
M  V30 31 1 31 32
M  V30 32 2 16 33
M  V30 33 1 33 34
M  V30 34 1 9 3
M  V30 35 1 34 10
M  V30 36 2 34 14
M  V30 37 1 32 17
M  V30 38 1 30 21
M  V30 39 1 1 35
M  V30 40 1 1 36
M  V30 41 1 1 37
M  V30 42 1 4 38
M  V30 43 1 5 39
M  V30 44 1 8 40
M  V30 45 1 11 41
M  V30 46 1 12 42
M  V30 47 1 15 43
M  V30 48 1 18 44
M  V30 49 1 19 45
M  V30 50 1 19 46
M  V30 51 1 21 47
M  V30 52 1 22 48
M  V30 53 1 22 49
M  V30 54 1 23 50
M  V30 55 1 23 51
M  V30 56 1 25 52
M  V30 57 1 25 53
M  V30 58 1 28 54
M  V30 59 1 29 55
M  V30 60 1 29 56
M  V30 61 1 30 57
M  V30 62 1 30 58
M  V30 63 1 31 59
M  V30 64 1 31 60
M  V30 65 1 32 61
M  V30 66 1 32 62
M  V30 67 1 33 63
M  V30 END BOND
M  V30 END CTAB
M  END
>  <Dataset>  (325) 
ChEMBL_Kinases

>  <Ligand_Instance>  (325) 
nan

>  <PDB_ID>  (325) 
nan

>  <Standardized_SMILES>  (325) 
COc1ccc(F)cc1-c1ccnc2[nH]c(C3=CCN(C4CCN(CC(=O)O)CC4)CC3)cc12

>  <Name>  (325) 
nan

>  <Pocket>  (325) 
nan

>  <ATP_Site>  (325) 
nan

>  <Peripheral>  (325) 
nan

>  <Num_H_Atoms_ProtBoundConf>  (325) 
nan

>  <Num_Resolved_Atoms>  (325) 
nan

>  <Num_Not_Resolved_Atoms>  (325) 
nan

$$$$
CHEMBL84944
     RDKit          3D

  0  0  0  0  0  0  0  0  0  0999 V3000
M  V30 BEGIN CTAB
M  V30 COUNTS 56 58 0 0 0
M  V30 BEGIN ATOM
M  V30 1 C -0.746506 -4.222843 2.164965 0
M  V30 2 C 0.207939 -3.100203 2.497432 0
M  V30 3 C 0.358480 -2.907640 3.995288 0
M  V30 4 C 1.538593 -3.247431 1.857986 0
M  V30 5 C 2.272407 -4.500850 2.245658 0
M  V30 6 O 1.769750 -5.662959 1.727879 0
M  V30 7 N 1.553350 -3.059640 0.428457 0
M  V30 8 C 1.229063 -1.841049 -0.219374 0
M  V30 9 N 0.909936 -0.852987 0.611894 0
M  V30 10 C 0.576558 0.373329 0.227955 0
M  V30 11 N 0.207425 1.567643 0.850223 0
M  V30 12 C -0.159507 2.745119 1.528865 0
M  V30 13 C -1.410402 2.595774 2.345685 0
M  V30 14 C -1.250163 2.159693 3.667262 0
M  V30 15 C -2.451188 2.058520 4.328986 0
M  V30 16 C -3.715133 2.317561 3.879149 0
M  V30 17 C -3.798158 2.747804 2.553888 0
M  V30 18 O -5.009837 3.051389 1.951777 0
M  V30 19 C -2.640742 2.880999 1.803692 0
M  V30 20 C 0.561424 0.642128 -1.158998 0
M  V30 21 N 0.314225 1.642928 -2.029224 0
M  V30 22 C 0.489947 1.224053 -3.292457 0
M  V30 23 N 0.857346 -0.056533 -3.319855 0
M  V30 24 C 1.129525 -0.814190 -4.520424 0
M  V30 25 C 0.383499 -2.137154 -4.530529 0
M  V30 26 C 0.655230 -0.048074 -5.737321 0
M  V30 27 C 0.899078 -0.405970 -2.023163 0
M  V30 28 N 1.216238 -1.595574 -1.514863 0
M  V30 29 H -0.823929 -4.948651 3.015862 0
M  V30 30 H -0.475329 -4.707540 1.206633 0
M  V30 31 H -1.780551 -3.837024 2.044390 0
M  V30 32 H -0.274825 -2.175342 2.131591 0
M  V30 33 H 0.897335 -1.925839 4.100566 0
M  V30 34 H -0.616942 -2.765770 4.474370 0
M  V30 35 H 0.987575 -3.664802 4.481000 0
M  V30 36 H 2.175569 -2.402411 2.262636 0
M  V30 37 H 2.395261 -4.593246 3.340780 0
M  V30 38 H 3.313486 -4.391064 1.819562 0
M  V30 39 H 1.158216 -6.133913 2.369484 0
M  V30 40 H 1.805901 -3.808641 -0.240595 0
M  V30 41 H 0.294631 1.123136 1.826258 0
M  V30 42 H -0.392556 3.589105 0.796885 0
M  V30 43 H 0.625782 3.172998 2.175478 0
M  V30 44 H -0.311535 1.924343 4.135895 0
M  V30 45 H -2.417670 1.721812 5.374933 0
M  V30 46 H -4.594183 2.208422 4.470571 0
M  V30 47 H -5.159968 4.062144 1.809909 0
M  V30 48 H -2.740326 3.220040 0.769589 0
M  V30 49 H 0.317153 1.947313 -4.055696 0
M  V30 50 H 2.221657 -1.001363 -4.649813 0
M  V30 51 H 0.220594 -2.433484 -5.592747 0
M  V30 52 H 0.961259 -2.934695 -4.020632 0
M  V30 53 H -0.617427 -1.979834 -4.094105 0
M  V30 54 H 1.397934 0.722641 -6.076261 0
M  V30 55 H -0.323657 0.413020 -5.492580 0
M  V30 56 H 0.431673 -0.761061 -6.581951 0
M  V30 END ATOM
M  V30 BEGIN BOND
M  V30 1 1 1 2
M  V30 2 1 2 3
M  V30 3 1 2 4
M  V30 4 1 4 5
M  V30 5 1 5 6
M  V30 6 1 4 7
M  V30 7 1 7 8
M  V30 8 2 8 9
M  V30 9 1 9 10
M  V30 10 1 10 11
M  V30 11 1 11 12
M  V30 12 1 12 13
M  V30 13 2 13 14
M  V30 14 1 14 15
M  V30 15 2 15 16
M  V30 16 1 16 17
M  V30 17 1 17 18
M  V30 18 2 17 19
M  V30 19 2 10 20
M  V30 20 1 20 21
M  V30 21 2 21 22
M  V30 22 1 22 23
M  V30 23 1 23 24
M  V30 24 1 24 25
M  V30 25 1 24 26
M  V30 26 1 23 27
M  V30 27 2 27 28
M  V30 28 1 28 8
M  V30 29 1 19 13
M  V30 30 1 27 20
M  V30 31 1 1 29
M  V30 32 1 1 30
M  V30 33 1 1 31
M  V30 34 1 2 32
M  V30 35 1 3 33
M  V30 36 1 3 34
M  V30 37 1 3 35
M  V30 38 1 4 36
M  V30 39 1 5 37
M  V30 40 1 5 38
M  V30 41 1 6 39
M  V30 42 1 7 40
M  V30 43 1 11 41
M  V30 44 1 12 42
M  V30 45 1 12 43
M  V30 46 1 14 44
M  V30 47 1 15 45
M  V30 48 1 16 46
M  V30 49 1 18 47
M  V30 50 1 19 48
M  V30 51 1 22 49
M  V30 52 1 24 50
M  V30 53 1 25 51
M  V30 54 1 25 52
M  V30 55 1 25 53
M  V30 56 1 26 54
M  V30 57 1 26 55
M  V30 58 1 26 56
M  V30 END BOND
M  V30 END CTAB
M  END
>  <Dataset>  (326) 
ChEMBL_Kinases

>  <Ligand_Instance>  (326) 
nan

>  <PDB_ID>  (326) 
nan

>  <Standardized_SMILES>  (326) 
CC(C)C(CO)Nc1nc(NCc2cccc(O)c2)c2ncn(C(C)C)c2n1

>  <Name>  (326) 
nan

>  <Pocket>  (326) 
nan

>  <ATP_Site>  (326) 
nan

>  <Peripheral>  (326) 
nan

>  <Num_H_Atoms_ProtBoundConf>  (326) 
nan

>  <Num_Resolved_Atoms>  (326) 
nan

>  <Num_Not_Resolved_Atoms>  (326) 
nan

$$$$
CHEMBL487031
     RDKit          3D

  0  0  0  0  0  0  0  0  0  0999 V3000
M  V30 BEGIN CTAB
M  V30 COUNTS 51 55 0 0 0
M  V30 BEGIN ATOM
M  V30 1 C 2.629754 0.405885 2.878454 0
M  V30 2 N 3.602880 -0.345527 2.165501 0
M  V30 3 C 4.594812 -0.866129 3.057978 0
M  V30 4 C 3.153865 -1.248359 1.178319 0
M  V30 5 C 2.563809 -0.707065 -0.063885 0
M  V30 6 N 1.411461 0.114315 0.042509 0
M  V30 7 C 1.200723 1.446476 0.153630 0
M  V30 8 C 2.201270 2.403059 0.177580 0
M  V30 9 C 1.896969 3.741783 0.288162 0
M  V30 10 C 0.551201 4.117195 0.376430 0
M  V30 11 O 0.212956 5.474000 0.489883 0
M  V30 12 C -0.392526 3.113706 0.346661 0
M  V30 13 C -0.132648 1.782213 0.238218 0
M  V30 14 C -0.794118 0.591593 0.176331 0
M  V30 15 C -2.120142 0.320891 0.213994 0
M  V30 16 C -2.567986 -0.976127 0.134128 0
M  V30 17 C -1.661025 -2.024733 0.013322 0
M  V30 18 C -2.052579 -3.424652 -0.077492 0
M  V30 19 C -2.280901 -3.958931 -1.337983 0
M  V30 20 Cl -2.098860 -2.977162 -2.777510 0
M  V30 21 C -2.652742 -5.287394 -1.393407 0
M  V30 22 C -2.803640 -6.090910 -0.269626 0
M  V30 23 C -2.567303 -5.526552 0.986030 0
M  V30 24 C -2.190306 -4.187016 1.077998 0
M  V30 25 Cl -1.884205 -3.421310 2.601940 0
M  V30 26 C -0.322117 -1.720651 -0.022021 0
M  V30 27 C 0.148304 -0.404445 0.058777 0
M  V30 28 C -4.020189 -1.096536 0.188536 0
M  V30 29 O -4.714949 -2.143884 0.138601 0
M  V30 30 N -4.453013 0.271042 0.312468 0
M  V30 31 C -3.305031 1.099568 0.325937 0
M  V30 32 O -3.541081 2.311018 0.429318 0
M  V30 33 H 2.734738 0.143732 3.976022 0
M  V30 34 H 1.572761 0.078697 2.663889 0
M  V30 35 H 2.761917 1.498657 2.857326 0
M  V30 36 H 4.081327 -1.303441 3.960359 0
M  V30 37 H 5.276836 -0.093831 3.481369 0
M  V30 38 H 5.176517 -1.716695 2.636670 0
M  V30 39 H 4.055749 -1.852943 0.857223 0
M  V30 40 H 2.505111 -2.008330 1.685212 0
M  V30 41 H 2.421805 -1.566986 -0.778600 0
M  V30 42 H 3.362018 -0.094181 -0.563995 0
M  V30 43 H 3.252543 2.156042 0.111693 0
M  V30 44 H 2.668611 4.508961 0.308252 0
M  V30 45 H -0.148404 5.915737 -0.361022 0
M  V30 46 H -1.378546 3.468049 0.416536 0
M  V30 47 H -2.828458 -5.692973 -2.388614 0
M  V30 48 H -3.101629 -7.142047 -0.381407 0
M  V30 49 H -2.681147 -6.131441 1.879893 0
M  V30 50 H 0.400693 -2.543253 -0.116845 0
M  V30 51 H -5.497382 0.464176 0.371917 0
M  V30 END ATOM
M  V30 BEGIN BOND
M  V30 1 1 1 2
M  V30 2 1 2 3
M  V30 3 1 2 4
M  V30 4 1 4 5
M  V30 5 1 5 6
M  V30 6 1 6 7
M  V30 7 2 7 8
M  V30 8 1 8 9
M  V30 9 2 9 10
M  V30 10 1 10 11
M  V30 11 1 10 12
M  V30 12 2 12 13
M  V30 13 1 13 14
M  V30 14 2 14 15
M  V30 15 1 15 16
M  V30 16 2 16 17
M  V30 17 1 17 18
M  V30 18 2 18 19
M  V30 19 1 19 20
M  V30 20 1 19 21
M  V30 21 2 21 22
M  V30 22 1 22 23
M  V30 23 2 23 24
M  V30 24 1 24 25
M  V30 25 1 17 26
M  V30 26 2 26 27
M  V30 27 1 16 28
M  V30 28 2 28 29
M  V30 29 1 28 30
M  V30 30 1 30 31
M  V30 31 2 31 32
M  V30 32 1 27 6
M  V30 33 1 13 7
M  V30 34 1 27 14
M  V30 35 1 31 15
M  V30 36 1 24 18
M  V30 37 1 1 33
M  V30 38 1 1 34
M  V30 39 1 1 35
M  V30 40 1 3 36
M  V30 41 1 3 37
M  V30 42 1 3 38
M  V30 43 1 4 39
M  V30 44 1 4 40
M  V30 45 1 5 41
M  V30 46 1 5 42
M  V30 47 1 8 43
M  V30 48 1 9 44
M  V30 49 1 11 45
M  V30 50 1 12 46
M  V30 51 1 21 47
M  V30 52 1 22 48
M  V30 53 1 23 49
M  V30 54 1 26 50
M  V30 55 1 30 51
M  V30 END BOND
M  V30 END CTAB
M  END
>  <Dataset>  (327) 
ChEMBL_Kinases

>  <Ligand_Instance>  (327) 
nan

>  <PDB_ID>  (327) 
nan

>  <Standardized_SMILES>  (327) 
CN(C)CCn1c2ccc(O)cc2c2c3c(c(-c4c(Cl)cccc4Cl)cc21)C(=O)NC3=O

>  <Name>  (327) 
nan

>  <Pocket>  (327) 
nan

>  <ATP_Site>  (327) 
nan

>  <Peripheral>  (327) 
nan

>  <Num_H_Atoms_ProtBoundConf>  (327) 
nan

>  <Num_Resolved_Atoms>  (327) 
nan

>  <Num_Not_Resolved_Atoms>  (327) 
nan

$$$$
CHEMBL84685
     RDKit          3D

  0  0  0  0  0  0  0  0  0  0999 V3000
M  V30 BEGIN CTAB
M  V30 COUNTS 26 28 0 0 0
M  V30 BEGIN ATOM
M  V30 1 N 1.529884 -4.115145 3.043476 0
M  V30 2 C 0.945146 -2.898105 2.596067 0
M  V30 3 C 0.161415 -2.239261 3.518844 0
M  V30 4 C -0.407773 -1.045894 3.069740 0
M  V30 5 C -0.170575 -0.595703 1.773398 0
M  V30 6 C 0.624949 -1.301479 0.894700 0
M  V30 7 C 1.207951 -2.493144 1.306693 0
M  V30 8 C 0.828379 -0.767707 -0.448289 0
M  V30 9 O 1.545520 -1.387892 -1.265539 0
M  V30 10 C 0.213855 0.493470 -0.890516 0
M  V30 11 C 0.407532 0.996826 -2.161572 0
M  V30 12 C -0.164715 2.183031 -2.591849 0
M  V30 13 C -0.954218 2.855663 -1.676275 0
M  V30 14 C -1.180780 2.396963 -0.393137 0
M  V30 15 C -0.579861 1.201734 -0.020225 0
M  V30 16 C -0.782566 0.666296 1.323566 0
M  V30 17 O -1.511493 1.323586 2.112118 0
M  V30 18 H 2.386133 -4.709520 2.987941 0
M  V30 19 H 1.055726 -4.808543 3.686044 0
M  V30 20 H 0.006416 -2.628760 4.515166 0
M  V30 21 H -1.033611 -0.498902 3.773956 0
M  V30 22 H 1.824602 -3.048388 0.638357 0
M  V30 23 H 1.029767 0.430873 -2.827028 0
M  V30 24 H 0.000572 2.562687 -3.598433 0
M  V30 25 H -1.414537 3.786157 -1.985248 0
M  V30 26 H -1.791760 2.904228 0.336192 0
M  V30 END ATOM
M  V30 BEGIN BOND
M  V30 1 1 1 2
M  V30 2 2 2 3
M  V30 3 1 3 4
M  V30 4 2 4 5
M  V30 5 1 5 6
M  V30 6 2 6 7
M  V30 7 1 6 8
M  V30 8 2 8 9
M  V30 9 1 8 10
M  V30 10 2 10 11
M  V30 11 1 11 12
M  V30 12 2 12 13
M  V30 13 1 13 14
M  V30 14 2 14 15
M  V30 15 1 15 16
M  V30 16 2 16 17
M  V30 17 1 7 2
M  V30 18 1 15 10
M  V30 19 1 16 5
M  V30 20 1 1 18
M  V30 21 1 1 19
M  V30 22 1 3 20
M  V30 23 1 4 21
M  V30 24 1 7 22
M  V30 25 1 11 23
M  V30 26 1 12 24
M  V30 27 1 13 25
M  V30 28 1 14 26
M  V30 END BOND
M  V30 END CTAB
M  END
>  <Dataset>  (328) 
ChEMBL_Kinases

>  <Ligand_Instance>  (328) 
nan

>  <PDB_ID>  (328) 
nan

>  <Standardized_SMILES>  (328) 
Nc1ccc2c(c1)C(=O)c1ccccc1C2=O

>  <Name>  (328) 
nan

>  <Pocket>  (328) 
nan

>  <ATP_Site>  (328) 
nan

>  <Peripheral>  (328) 
nan

>  <Num_H_Atoms_ProtBoundConf>  (328) 
nan

>  <Num_Resolved_Atoms>  (328) 
nan

>  <Num_Not_Resolved_Atoms>  (328) 
nan

$$$$
CHEMBL4871915
     RDKit          3D

  0  0  0  0  0  0  0  0  0  0999 V3000
M  V30 BEGIN CTAB
M  V30 COUNTS 43 46 0 0 0
M  V30 BEGIN ATOM
M  V30 1 C 1.685826 -8.298756 0.488493 0
M  V30 2 O 0.742659 -7.454600 -0.140289 0
M  V30 3 C 0.671310 -6.085935 0.045032 0
M  V30 4 C 1.557680 -5.456897 0.889971 0
M  V30 5 C 1.437017 -4.075076 1.036801 0
M  V30 6 C 0.443310 -3.379671 0.339338 0
M  V30 7 N 0.366934 -1.955717 0.531230 0
M  V30 8 C 1.172976 -1.303009 -0.410558 0
M  V30 9 O 1.679558 -2.259466 -1.097736 0
M  V30 10 C 1.544313 0.043679 -0.771837 0
M  V30 11 C 2.401996 0.197817 -1.821615 0
M  V30 12 N 2.604124 1.536391 -1.973445 0
M  V30 13 C 1.918708 2.229666 -1.074615 0
M  V30 14 C 1.748745 3.562722 -0.766268 0
M  V30 15 C 0.932750 3.959964 0.272856 0
M  V30 16 C 0.295259 2.977092 0.989468 0
M  V30 17 C -0.579513 3.347104 2.100815 0
M  V30 18 C -0.727759 2.508933 3.209079 0
M  V30 19 N -1.597964 3.129524 4.058666 0
M  V30 20 N -1.961068 4.283979 3.499124 0
M  V30 21 C -2.876408 5.192051 4.133249 0
M  V30 22 C -1.369947 4.459335 2.312693 0
M  V30 23 C 0.494205 1.659380 0.646486 0
M  V30 24 N 1.290569 1.292307 -0.366172 0
M  V30 25 C -0.422592 -4.069555 -0.499582 0
M  V30 26 C -0.316362 -5.447513 -0.657501 0
M  V30 27 H 2.581849 -8.482909 -0.122217 0
M  V30 28 H 1.198822 -9.304876 0.629970 0
M  V30 29 H 1.974955 -7.978001 1.501293 0
M  V30 30 H 2.331891 -5.970193 1.438489 0
M  V30 31 H 2.093930 -3.511902 1.680189 0
M  V30 32 H -0.116966 -1.292084 1.168999 0
M  V30 33 H 2.960053 -0.375206 -2.554536 0
M  V30 34 H 2.269814 4.313508 -1.355631 0
M  V30 35 H 0.779829 4.996509 0.538041 0
M  V30 36 H -0.238662 1.539719 3.365202 0
M  V30 37 H -3.636395 4.622800 4.722297 0
M  V30 38 H -3.429335 5.843098 3.441963 0
M  V30 39 H -2.303489 5.769585 4.910081 0
M  V30 40 H -1.443380 5.276079 1.604845 0
M  V30 41 H -0.031048 0.943592 1.244245 0
M  V30 42 H -1.133695 -3.437847 -0.974669 0
M  V30 43 H -1.019533 -5.925001 -1.323455 0
M  V30 END ATOM
M  V30 BEGIN BOND
M  V30 1 1 1 2
M  V30 2 1 2 3
M  V30 3 2 3 4
M  V30 4 1 4 5
M  V30 5 2 5 6
M  V30 6 1 6 7
M  V30 7 1 7 8
M  V30 8 2 8 9
M  V30 9 1 8 10
M  V30 10 2 10 11
M  V30 11 1 11 12
M  V30 12 2 12 13
M  V30 13 1 13 14
M  V30 14 2 14 15
M  V30 15 1 15 16
M  V30 16 1 16 17
M  V30 17 1 17 18
M  V30 18 2 18 19
M  V30 19 1 19 20
M  V30 20 1 20 21
M  V30 21 1 20 22
M  V30 22 2 16 23
M  V30 23 1 23 24
M  V30 24 1 6 25
M  V30 25 2 25 26
M  V30 26 1 26 3
M  V30 27 1 24 10
M  V30 28 1 24 13
M  V30 29 2 22 17
M  V30 30 1 1 27
M  V30 31 1 1 28
M  V30 32 1 1 29
M  V30 33 1 4 30
M  V30 34 1 5 31
M  V30 35 1 7 32
M  V30 36 1 11 33
M  V30 37 1 14 34
M  V30 38 1 15 35
M  V30 39 1 18 36
M  V30 40 1 21 37
M  V30 41 1 21 38
M  V30 42 1 21 39
M  V30 43 1 22 40
M  V30 44 1 23 41
M  V30 45 1 25 42
M  V30 46 1 26 43
M  V30 END BOND
M  V30 END CTAB
M  END
>  <Dataset>  (329) 
ChEMBL_Kinases

>  <Ligand_Instance>  (329) 
nan

>  <PDB_ID>  (329) 
nan

>  <Standardized_SMILES>  (329) 
COc1ccc(NC(=O)c2cnc3ccc(-c4cnn(C)c4)cn23)cc1

>  <Name>  (329) 
nan

>  <Pocket>  (329) 
nan

>  <ATP_Site>  (329) 
nan

>  <Peripheral>  (329) 
nan

>  <Num_H_Atoms_ProtBoundConf>  (329) 
nan

>  <Num_Resolved_Atoms>  (329) 
nan

>  <Num_Not_Resolved_Atoms>  (329) 
nan

$$$$
CHEMBL3702055
     RDKit          3D

  0  0  0  0  0  0  0  0  0  0999 V3000
M  V30 BEGIN CTAB
M  V30 COUNTS 69 74 0 0 0
M  V30 BEGIN ATOM
M  V30 1 C 3.825504 1.307254 6.439867 0
M  V30 2 C 4.586446 1.776111 5.277443 0
M  V30 3 N 5.775025 2.392247 5.487807 0
M  V30 4 C 6.564264 2.866402 4.520398 0
M  V30 5 C 6.136008 2.715823 3.226693 0
M  V30 6 C 4.909247 2.080482 3.002459 0
M  V30 7 C 4.290318 1.823561 1.794184 0
M  V30 8 C 4.704407 2.116410 0.512833 0
M  V30 9 N 3.869678 1.730060 -0.455356 0
M  V30 10 C 2.701512 1.100197 -0.251212 0
M  V30 11 N 1.979420 0.784869 -1.419110 0
M  V30 12 C 0.734717 0.153959 -1.640240 0
M  V30 13 C -0.069873 -0.306758 -0.626602 0
M  V30 14 C -1.290466 -0.929932 -0.760078 0
M  V30 15 C -1.776437 -1.122537 -2.034592 0
M  V30 16 N -3.011755 -1.748536 -2.354196 0
M  V30 17 C -3.418701 -1.823916 -3.753555 0
M  V30 18 C -4.845841 -2.267409 -3.801980 0
M  V30 19 C -4.999683 -3.665331 -3.239804 0
M  V30 20 N -4.339947 -4.570602 -4.164257 0
M  V30 21 C -4.413632 -5.951719 -3.739577 0
M  V30 22 C -4.994592 -4.458397 -5.440096 0
M  V30 23 C -4.374915 -3.674162 -1.884538 0
M  V30 24 C -3.919068 -2.331890 -1.390049 0
M  V30 25 C -0.969867 -0.660505 -3.050380 0
M  V30 26 N 0.214195 -0.058488 -2.868395 0
M  V30 27 N 2.376703 0.855258 1.021378 0
M  V30 28 C 3.109655 1.181366 2.095857 0
M  V30 29 N 2.992665 1.041498 3.434493 0
M  V30 30 C 1.924615 0.430198 4.151940 0
M  V30 31 C 1.066519 1.378182 4.953118 0
M  V30 32 C -0.253076 1.541349 4.293197 0
M  V30 33 C -0.204286 0.763643 2.998166 0
M  V30 34 C 0.873561 -0.219179 3.277751 0
M  V30 35 C 4.081698 1.583819 4.008340 0
M  V30 36 H 4.562179 1.352272 7.324065 0
M  V30 37 H 3.042107 1.999451 6.812587 0
M  V30 38 H 3.565849 0.238529 6.464489 0
M  V30 39 H 7.478040 3.330692 4.834120 0
M  V30 40 H 6.755411 3.089305 2.445223 0
M  V30 41 H 5.628833 2.619364 0.272022 0
M  V30 42 H 2.410595 1.051982 -2.356313 0
M  V30 43 H 0.329694 -0.143658 0.341572 0
M  V30 44 H -1.855849 -1.258083 0.073849 0
M  V30 45 H -3.346305 -0.783218 -4.142386 0
M  V30 46 H -2.735654 -2.452623 -4.330463 0
M  V30 47 H -5.457100 -1.588551 -3.176685 0
M  V30 48 H -5.256338 -2.165123 -4.828097 0
M  V30 49 H -6.081903 -3.865126 -3.137967 0
M  V30 50 H -3.549851 -6.268352 -3.133764 0
M  V30 51 H -5.392632 -6.151552 -3.259944 0
M  V30 52 H -4.394130 -6.582655 -4.676499 0
M  V30 53 H -6.097485 -4.383846 -5.334303 0
M  V30 54 H -4.814431 -5.382349 -6.063681 0
M  V30 55 H -4.553040 -3.639083 -6.043696 0
M  V30 56 H -5.104516 -4.060933 -1.117956 0
M  V30 57 H -3.502603 -4.360396 -1.799935 0
M  V30 58 H -4.785855 -1.648547 -1.260925 0
M  V30 59 H -3.393969 -2.459904 -0.403912 0
M  V30 60 H -1.262990 -0.763018 -4.105607 0
M  V30 61 H 2.249409 -0.394113 4.821671 0
M  V30 62 H 1.547370 2.388511 4.981645 0
M  V30 63 H 0.982780 1.050018 6.020835 0
M  V30 64 H -1.023753 1.135961 4.997016 0
M  V30 65 H -0.547291 2.598360 4.136491 0
M  V30 66 H -1.190191 0.223676 2.946249 0
M  V30 67 H -0.094672 1.395953 2.121250 0
M  V30 68 H 1.267821 -0.694211 2.393543 0
M  V30 69 H 0.395285 -1.067838 3.867926 0
M  V30 END ATOM
M  V30 BEGIN BOND
M  V30 1 1 1 2
M  V30 2 2 2 3
M  V30 3 1 3 4
M  V30 4 2 4 5
M  V30 5 1 5 6
M  V30 6 1 6 7
M  V30 7 2 7 8
M  V30 8 1 8 9
M  V30 9 2 9 10
M  V30 10 1 10 11
M  V30 11 1 11 12
M  V30 12 2 12 13
M  V30 13 1 13 14
M  V30 14 2 14 15
M  V30 15 1 15 16
M  V30 16 1 16 17
M  V30 17 1 17 18
M  V30 18 1 18 19
M  V30 19 1 19 20
M  V30 20 1 20 21
M  V30 21 1 20 22
M  V30 22 1 19 23
M  V30 23 1 23 24
M  V30 24 1 15 25
M  V30 25 2 25 26
M  V30 26 1 10 27
M  V30 27 2 27 28
M  V30 28 1 28 29
M  V30 29 1 29 30
M  V30 30 1 30 31
M  V30 31 1 31 32
M  V30 32 1 32 33
M  V30 33 1 33 34
M  V30 34 1 29 35
M  V30 35 1 35 2
M  V30 36 2 35 6
M  V30 37 1 28 7
M  V30 38 1 34 30
M  V30 39 1 26 12
M  V30 40 1 24 16
M  V30 41 1 1 36
M  V30 42 1 1 37
M  V30 43 1 1 38
M  V30 44 1 4 39
M  V30 45 1 5 40
M  V30 46 1 8 41
M  V30 47 1 11 42
M  V30 48 1 13 43
M  V30 49 1 14 44
M  V30 50 1 17 45
M  V30 51 1 17 46
M  V30 52 1 18 47
M  V30 53 1 18 48
M  V30 54 1 19 49
M  V30 55 1 21 50
M  V30 56 1 21 51
M  V30 57 1 21 52
M  V30 58 1 22 53
M  V30 59 1 22 54
M  V30 60 1 22 55
M  V30 61 1 23 56
M  V30 62 1 23 57
M  V30 63 1 24 58
M  V30 64 1 24 59
M  V30 65 1 25 60
M  V30 66 1 30 61
M  V30 67 1 31 62
M  V30 68 1 31 63
M  V30 69 1 32 64
M  V30 70 1 32 65
M  V30 71 1 33 66
M  V30 72 1 33 67
M  V30 73 1 34 68
M  V30 74 1 34 69
M  V30 END BOND
M  V30 END CTAB
M  END
>  <Dataset>  (330) 
ChEMBL_Kinases

>  <Ligand_Instance>  (330) 
nan

>  <PDB_ID>  (330) 
nan

>  <Standardized_SMILES>  (330) 
Cc1nccc2c3cnc(Nc4ccc(N5CCC(N(C)C)CC5)cn4)nc3n(C3CCCC3)c12

>  <Name>  (330) 
nan

>  <Pocket>  (330) 
nan

>  <ATP_Site>  (330) 
nan

>  <Peripheral>  (330) 
nan

>  <Num_H_Atoms_ProtBoundConf>  (330) 
nan

>  <Num_Resolved_Atoms>  (330) 
nan

>  <Num_Not_Resolved_Atoms>  (330) 
nan

$$$$
CHEMBL4870311
     RDKit          3D

  0  0  0  0  0  0  0  0  0  0999 V3000
M  V30 BEGIN CTAB
M  V30 COUNTS 42 44 0 0 0
M  V30 BEGIN ATOM
M  V30 1 C -1.443409 -4.133536 1.424316 0
M  V30 2 C -0.059342 -4.685567 1.200980 0
M  V30 3 C 0.944522 -3.796126 1.806605 0
M  V30 4 N 1.076357 -2.467058 1.338195 0
M  V30 5 C 0.391584 -1.877805 0.239045 0
M  V30 6 N -0.249933 -2.651835 -0.654160 0
M  V30 7 C -0.927563 -2.051458 -1.642953 0
M  V30 8 C -0.975777 -0.678607 -1.757803 0
M  V30 9 C -0.309700 0.102296 -0.830569 0
M  V30 10 C -0.458981 1.531712 -1.057884 0
M  V30 11 C -1.099815 2.217656 -2.086923 0
M  V30 12 N -0.954860 3.547009 -1.840880 0
M  V30 13 N -0.271875 3.729150 -0.733924 0
M  V30 14 N 0.016760 4.925223 -0.252781 0
M  V30 15 C 0.716989 5.033197 0.886064 0
M  V30 16 C 1.093325 3.827121 1.485846 0
M  V30 17 C 0.763003 2.594398 0.937247 0
M  V30 18 C 0.048672 2.506067 -0.226469 0
M  V30 19 N 0.357524 -0.532423 0.144837 0
M  V30 20 C 2.050926 -1.684385 2.102327 0
M  V30 21 C 1.435394 -0.979699 3.283064 0
M  V30 22 C 2.967765 -0.861352 1.251851 0
M  V30 23 H -2.134564 -4.244440 0.584101 0
M  V30 24 H -1.430195 -3.087998 1.807370 0
M  V30 25 H -1.956654 -4.701235 2.269203 0
M  V30 26 H -0.009883 -5.671296 1.733253 0
M  V30 27 H 0.127034 -4.948246 0.141035 0
M  V30 28 H 1.975465 -4.263473 1.731976 0
M  V30 29 H 0.798418 -3.731464 2.927420 0
M  V30 30 H -1.419811 -2.701811 -2.328183 0
M  V30 31 H -1.568278 -0.324107 -2.613047 0
M  V30 32 H -1.611135 1.744383 -2.901954 0
M  V30 33 H 1.012320 5.950969 1.372388 0
M  V30 34 H 1.667092 3.870490 2.416411 0
M  V30 35 H 1.045692 1.686050 1.407904 0
M  V30 36 H 2.781797 -2.425899 2.612178 0
M  V30 37 H 1.265889 -1.638062 4.160645 0
M  V30 38 H 0.404316 -0.631029 2.988126 0
M  V30 39 H 2.051358 -0.125625 3.637375 0
M  V30 40 H 2.555732 0.029863 0.794811 0
M  V30 41 H 3.898981 -0.646206 1.853030 0
M  V30 42 H 3.299751 -1.547388 0.421641 0
M  V30 END ATOM
M  V30 BEGIN BOND
M  V30 1 1 1 2
M  V30 2 1 2 3
M  V30 3 1 3 4
M  V30 4 1 4 5
M  V30 5 2 5 6
M  V30 6 1 6 7
M  V30 7 2 7 8
M  V30 8 1 8 9
M  V30 9 1 9 10
M  V30 10 1 10 11
M  V30 11 2 11 12
M  V30 12 1 12 13
M  V30 13 1 13 14
M  V30 14 2 14 15
M  V30 15 1 15 16
M  V30 16 2 16 17
M  V30 17 1 17 18
M  V30 18 2 9 19
M  V30 19 1 4 20
M  V30 20 1 20 21
M  V30 21 1 20 22
M  V30 22 1 19 5
M  V30 23 2 18 10
M  V30 24 1 18 13
M  V30 25 1 1 23
M  V30 26 1 1 24
M  V30 27 1 1 25
M  V30 28 1 2 26
M  V30 29 1 2 27
M  V30 30 1 3 28
M  V30 31 1 3 29
M  V30 32 1 7 30
M  V30 33 1 8 31
M  V30 34 1 11 32
M  V30 35 1 15 33
M  V30 36 1 16 34
M  V30 37 1 17 35
M  V30 38 1 20 36
M  V30 39 1 21 37
M  V30 40 1 21 38
M  V30 41 1 21 39
M  V30 42 1 22 40
M  V30 43 1 22 41
M  V30 44 1 22 42
M  V30 END BOND
M  V30 END CTAB
M  END
>  <Dataset>  (331) 
ChEMBL_Kinases

>  <Ligand_Instance>  (331) 
nan

>  <PDB_ID>  (331) 
nan

>  <Standardized_SMILES>  (331) 
CCCN(c1nccc(-c2cnn3ncccc23)n1)C(C)C

>  <Name>  (331) 
nan

>  <Pocket>  (331) 
nan

>  <ATP_Site>  (331) 
nan

>  <Peripheral>  (331) 
nan

>  <Num_H_Atoms_ProtBoundConf>  (331) 
nan

>  <Num_Resolved_Atoms>  (331) 
nan

>  <Num_Not_Resolved_Atoms>  (331) 
nan

$$$$
CHEMBL3702056
     RDKit          3D

  0  0  0  0  0  0  0  0  0  0999 V3000
M  V30 BEGIN CTAB
M  V30 COUNTS 75 80 0 0 0
M  V30 BEGIN ATOM
M  V30 1 C 4.434700 0.938396 4.750966 0
M  V30 2 C 5.089430 0.249354 3.558564 0
M  V30 3 N 4.102444 -0.679939 2.945254 0
M  V30 4 C 3.853048 -1.741600 3.873767 0
M  V30 5 C 2.687050 -2.628853 3.623403 0
M  V30 6 C 4.686421 -1.137511 1.663275 0
M  V30 7 C 3.862437 -2.142015 0.963456 0
M  V30 8 C 3.943695 -2.044994 -0.557796 0
M  V30 9 N 3.750027 -0.678895 -0.981078 0
M  V30 10 C 2.608626 -0.152865 -1.598277 0
M  V30 11 C 1.478850 -0.944446 -1.704551 0
M  V30 12 C 0.357110 -0.386115 -2.312811 0
M  V30 13 C 0.271081 0.895488 -2.822213 0
M  V30 14 N -0.911486 1.434383 -3.431581 0
M  V30 15 C -1.948158 0.459296 -3.426756 0
M  V30 16 N -2.310960 -0.398731 -4.407912 0
M  V30 17 C -3.316423 -1.296545 -4.204203 0
M  V30 18 C -3.941064 -1.302210 -2.987160 0
M  V30 19 C -4.955018 -2.047047 -2.446370 0
M  V30 20 C -5.660742 -3.072207 -3.070234 0
M  V30 21 C -6.639706 -3.671825 -2.307620 0
M  V30 22 N -6.867620 -3.266709 -1.053397 0
M  V30 23 C -6.190129 -2.275723 -0.441529 0
M  V30 24 C -6.520320 -1.899174 0.951065 0
M  V30 25 C -5.186837 -1.627033 -1.154111 0
M  V30 26 N -4.338712 -0.622860 -0.850696 0
M  V30 27 C -4.218506 0.125478 0.392453 0
M  V30 28 C -3.197385 -0.482050 1.317756 0
M  V30 29 C -2.360007 0.648350 1.850385 0
M  V30 30 C -2.412904 1.673270 0.744021 0
M  V30 31 C -3.764845 1.519875 0.186847 0
M  V30 32 C -3.571564 -0.416308 -1.966775 0
M  V30 33 N -2.585765 0.423420 -2.248099 0
M  V30 34 N 1.410136 1.620127 -2.688123 0
M  V30 35 C 2.511014 1.117215 -2.108310 0
M  V30 36 C 4.963414 0.008784 -0.602882 0
M  V30 37 C 5.019752 0.084594 0.888899 0
M  V30 38 H 4.886905 1.956915 4.897851 0
M  V30 39 H 4.637876 0.346992 5.659810 0
M  V30 40 H 3.359311 1.019310 4.573532 0
M  V30 41 H 5.915779 -0.385009 3.917882 0
M  V30 42 H 5.446665 0.984824 2.848903 0
M  V30 43 H 4.765625 -2.356682 4.067843 0
M  V30 44 H 3.666168 -1.244753 4.870914 0
M  V30 45 H 2.291890 -3.060978 4.612541 0
M  V30 46 H 2.940376 -3.535235 3.056678 0
M  V30 47 H 1.785770 -2.101997 3.239801 0
M  V30 48 H 5.647328 -1.629840 1.997022 0
M  V30 49 H 2.785926 -2.085684 1.182059 0
M  V30 50 H 4.242331 -3.167199 1.179410 0
M  V30 51 H 3.199638 -2.708509 -1.004900 0
M  V30 52 H 4.940696 -2.449401 -0.887477 0
M  V30 53 H 1.387371 -1.965791 -1.351638 0
M  V30 54 H -0.515575 -1.040083 -2.379649 0
M  V30 55 H -0.843709 2.417461 -3.773749 0
M  V30 56 H -3.572560 -1.953771 -4.996901 0
M  V30 57 H -5.523284 -3.431096 -4.056719 0
M  V30 58 H -7.259661 -4.483778 -2.679430 0
M  V30 59 H -7.238195 -2.709275 1.310785 0
M  V30 60 H -7.186640 -0.994952 1.021760 0
M  V30 61 H -5.716706 -1.951881 1.671227 0
M  V30 62 H -5.199183 0.196449 0.916654 0
M  V30 63 H -3.678779 -0.947940 2.200362 0
M  V30 64 H -2.587136 -1.280791 0.845383 0
M  V30 65 H -1.328161 0.261307 2.009780 0
M  V30 66 H -2.756781 1.082700 2.779809 0
M  V30 67 H -1.556946 1.445391 0.089226 0
M  V30 68 H -2.199465 2.701166 1.135078 0
M  V30 69 H -3.881339 1.882037 -0.860370 0
M  V30 70 H -4.436579 2.207013 0.790123 0
M  V30 71 H 3.366493 1.771237 -2.046910 0
M  V30 72 H 4.929707 1.064223 -0.969850 0
M  V30 73 H 5.826382 -0.538285 -1.023459 0
M  V30 74 H 4.397712 0.954950 1.194681 0
M  V30 75 H 6.085782 0.367465 1.125159 0
M  V30 END ATOM
M  V30 BEGIN BOND
M  V30 1 1 1 2
M  V30 2 1 2 3
M  V30 3 1 3 4
M  V30 4 1 4 5
M  V30 5 1 3 6
M  V30 6 1 6 7
M  V30 7 1 7 8
M  V30 8 1 8 9
M  V30 9 1 9 10
M  V30 10 2 10 11
M  V30 11 1 11 12
M  V30 12 2 12 13
M  V30 13 1 13 14
M  V30 14 1 14 15
M  V30 15 2 15 16
M  V30 16 1 16 17
M  V30 17 2 17 18
M  V30 18 1 18 19
M  V30 19 2 19 20
M  V30 20 1 20 21
M  V30 21 2 21 22
M  V30 22 1 22 23
M  V30 23 1 23 24
M  V30 24 2 23 25
M  V30 25 1 25 26
M  V30 26 1 26 27
M  V30 27 1 27 28
M  V30 28 1 28 29
M  V30 29 1 29 30
M  V30 30 1 30 31
M  V30 31 1 26 32
M  V30 32 2 32 33
M  V30 33 1 13 34
M  V30 34 2 34 35
M  V30 35 1 9 36
M  V30 36 1 36 37
M  V30 37 1 37 6
M  V30 38 1 35 10
M  V30 39 1 33 15
M  V30 40 1 32 18
M  V30 41 1 25 19
M  V30 42 1 31 27
M  V30 43 1 1 38
M  V30 44 1 1 39
M  V30 45 1 1 40
M  V30 46 1 2 41
M  V30 47 1 2 42
M  V30 48 1 4 43
M  V30 49 1 4 44
M  V30 50 1 5 45
M  V30 51 1 5 46
M  V30 52 1 5 47
M  V30 53 1 6 48
M  V30 54 1 7 49
M  V30 55 1 7 50
M  V30 56 1 8 51
M  V30 57 1 8 52
M  V30 58 1 11 53
M  V30 59 1 12 54
M  V30 60 1 14 55
M  V30 61 1 17 56
M  V30 62 1 20 57
M  V30 63 1 21 58
M  V30 64 1 24 59
M  V30 65 1 24 60
M  V30 66 1 24 61
M  V30 67 1 27 62
M  V30 68 1 28 63
M  V30 69 1 28 64
M  V30 70 1 29 65
M  V30 71 1 29 66
M  V30 72 1 30 67
M  V30 73 1 30 68
M  V30 74 1 31 69
M  V30 75 1 31 70
M  V30 76 1 35 71
M  V30 77 1 36 72
M  V30 78 1 36 73
M  V30 79 1 37 74
M  V30 80 1 37 75
M  V30 END BOND
M  V30 END CTAB
M  END
>  <Dataset>  (332) 
ChEMBL_Kinases

>  <Ligand_Instance>  (332) 
nan

>  <PDB_ID>  (332) 
nan

>  <Standardized_SMILES>  (332) 
CCN(CC)C1CCN(c2ccc(Nc3ncc4c5ccnc(C)c5n(C5CCCC5)c4n3)nc2)CC1

>  <Name>  (332) 
nan

>  <Pocket>  (332) 
nan

>  <ATP_Site>  (332) 
nan

>  <Peripheral>  (332) 
nan

>  <Num_H_Atoms_ProtBoundConf>  (332) 
nan

>  <Num_Resolved_Atoms>  (332) 
nan

>  <Num_Not_Resolved_Atoms>  (332) 
nan

$$$$
CHEMBL3702057
     RDKit          3D

  0  0  0  0  0  0  0  0  0  0999 V3000
M  V30 BEGIN CTAB
M  V30 COUNTS 62 67 0 0 0
M  V30 BEGIN ATOM
M  V30 1 C 5.620317 -3.770022 5.072510 0
M  V30 2 C 4.369978 -3.003939 5.241561 0
M  V30 3 O 3.461816 -3.731241 5.772697 0
M  V30 4 N 4.146317 -1.628951 4.877379 0
M  V30 5 C 4.953805 -0.601041 4.280042 0
M  V30 6 C 4.413276 -0.264825 2.912568 0
M  V30 7 N 2.988401 -0.270735 2.811938 0
M  V30 8 C 2.358936 0.330803 1.687069 0
M  V30 9 C 3.026775 0.963802 0.660759 0
M  V30 10 C 2.385362 1.534236 -0.425377 0
M  V30 11 C 0.991736 1.479954 -0.510297 0
M  V30 12 N 0.222427 2.023409 -1.604957 0
M  V30 13 C -1.197850 1.901701 -1.531593 0
M  V30 14 N -2.156714 2.867470 -1.413358 0
M  V30 15 C -3.446927 2.563891 -1.336812 0
M  V30 16 C -3.871174 1.250275 -1.374154 0
M  V30 17 C -5.064221 0.595835 -1.316029 0
M  V30 18 C -6.348140 1.120982 -1.192182 0
M  V30 19 C -7.410739 0.228524 -1.150191 0
M  V30 20 N -7.209743 -1.107701 -1.227119 0
M  V30 21 C -5.931191 -1.538960 -1.346021 0
M  V30 22 C -4.803525 -0.764783 -1.398977 0
M  V30 23 N -3.479874 -0.955329 -1.507804 0
M  V30 24 C -2.878233 -2.254330 -1.615553 0
M  V30 25 C -3.247814 -2.991069 -2.882792 0
M  V30 26 C -2.492498 -2.181270 -3.914970 0
M  V30 27 C -1.126133 -2.026239 -3.235702 0
M  V30 28 C -1.372746 -2.218006 -1.757934 0
M  V30 29 C -2.891120 0.271383 -1.494096 0
M  V30 30 N -1.594367 0.620896 -1.568946 0
M  V30 31 N 0.370106 0.857356 0.505237 0
M  V30 32 C 0.985676 0.302404 1.560321 0
M  V30 33 C 2.157508 -0.874787 3.819865 0
M  V30 34 C 2.835868 -1.095051 5.143796 0
M  V30 35 H 6.486088 -3.130695 4.805159 0
M  V30 36 H 5.533331 -4.551215 4.279995 0
M  V30 37 H 5.877619 -4.253846 6.025070 0
M  V30 38 H 5.009262 0.326204 4.891362 0
M  V30 39 H 6.015719 -0.928394 4.156725 0
M  V30 40 H 4.818672 0.768377 2.692071 0
M  V30 41 H 4.919942 -0.932558 2.171047 0
M  V30 42 H 4.105696 1.017316 0.706318 0
M  V30 43 H 2.899985 2.024581 -1.221850 0
M  V30 44 H 0.796791 2.462060 -2.355802 0
M  V30 45 H -4.160525 3.365546 -1.246058 0
M  V30 46 H -6.479560 2.204054 -1.132191 0
M  V30 47 H -8.396986 0.669113 -1.054373 0
M  V30 48 H -5.865191 -2.603719 -1.393576 0
M  V30 49 H -3.104642 -2.929912 -0.763928 0
M  V30 50 H -4.304353 -3.089653 -3.086433 0
M  V30 51 H -2.733073 -3.979974 -2.816384 0
M  V30 52 H -2.431683 -2.794713 -4.819519 0
M  V30 53 H -2.955290 -1.208580 -4.139259 0
M  V30 54 H -0.478954 -2.851305 -3.660118 0
M  V30 55 H -0.617474 -1.101263 -3.506181 0
M  V30 56 H -0.991488 -3.251083 -1.495789 0
M  V30 57 H -0.847503 -1.546801 -1.094635 0
M  V30 58 H 0.312762 -0.147414 2.259545 0
M  V30 59 H 1.263072 -0.217043 4.033246 0
M  V30 60 H 1.707644 -1.844146 3.465455 0
M  V30 61 H 2.855157 -0.140037 5.719779 0
M  V30 62 H 2.198505 -1.791785 5.723152 0
M  V30 END ATOM
M  V30 BEGIN BOND
M  V30 1 1 1 2
M  V30 2 2 2 3
M  V30 3 1 2 4
M  V30 4 1 4 5
M  V30 5 1 5 6
M  V30 6 1 6 7
M  V30 7 1 7 8
M  V30 8 2 8 9
M  V30 9 1 9 10
M  V30 10 2 10 11
M  V30 11 1 11 12
M  V30 12 1 12 13
M  V30 13 2 13 14
M  V30 14 1 14 15
M  V30 15 2 15 16
M  V30 16 1 16 17
M  V30 17 2 17 18
M  V30 18 1 18 19
M  V30 19 2 19 20
M  V30 20 1 20 21
M  V30 21 2 21 22
M  V30 22 1 22 23
M  V30 23 1 23 24
M  V30 24 1 24 25
M  V30 25 1 25 26
M  V30 26 1 26 27
M  V30 27 1 27 28
M  V30 28 1 23 29
M  V30 29 2 29 30
M  V30 30 1 11 31
M  V30 31 2 31 32
M  V30 32 1 7 33
M  V30 33 1 33 34
M  V30 34 1 34 4
M  V30 35 1 32 8
M  V30 36 1 30 13
M  V30 37 1 29 16
M  V30 38 1 22 17
M  V30 39 1 28 24
M  V30 40 1 1 35
M  V30 41 1 1 36
M  V30 42 1 1 37
M  V30 43 1 5 38
M  V30 44 1 5 39
M  V30 45 1 6 40
M  V30 46 1 6 41
M  V30 47 1 9 42
M  V30 48 1 10 43
M  V30 49 1 12 44
M  V30 50 1 15 45
M  V30 51 1 18 46
M  V30 52 1 19 47
M  V30 53 1 21 48
M  V30 54 1 24 49
M  V30 55 1 25 50
M  V30 56 1 25 51
M  V30 57 1 26 52
M  V30 58 1 26 53
M  V30 59 1 27 54
M  V30 60 1 27 55
M  V30 61 1 28 56
M  V30 62 1 28 57
M  V30 63 1 32 58
M  V30 64 1 33 59
M  V30 65 1 33 60
M  V30 66 1 34 61
M  V30 67 1 34 62
M  V30 END BOND
M  V30 END CTAB
M  END
>  <Dataset>  (333) 
ChEMBL_Kinases

>  <Ligand_Instance>  (333) 
nan

>  <PDB_ID>  (333) 
nan

>  <Standardized_SMILES>  (333) 
CC(=O)N1CCN(c2ccc(Nc3ncc4c5ccncc5n(C5CCCC5)c4n3)nc2)CC1

>  <Name>  (333) 
nan

>  <Pocket>  (333) 
nan

>  <ATP_Site>  (333) 
nan

>  <Peripheral>  (333) 
nan

>  <Num_H_Atoms_ProtBoundConf>  (333) 
nan

>  <Num_Resolved_Atoms>  (333) 
nan

>  <Num_Not_Resolved_Atoms>  (333) 
nan

$$$$
CHEMBL4870386
     RDKit          3D

  0  0  0  0  0  0  0  0  0  0999 V3000
M  V30 BEGIN CTAB
M  V30 COUNTS 41 43 0 0 0
M  V30 BEGIN ATOM
M  V30 1 N 1.996033 -4.109098 4.519936 0
M  V30 2 C 1.992501 -3.670062 3.449342 0
M  V30 3 C 2.002209 -3.130531 2.099713 0
M  V30 4 N 2.856701 -3.713458 1.246573 0
M  V30 5 C 2.976198 -3.318222 -0.042474 0
M  V30 6 C 2.163855 -2.274095 -0.433514 0
M  V30 7 N 2.223433 -1.792492 -1.774182 0
M  V30 8 C 1.526716 -0.763776 -2.437390 0
M  V30 9 N 0.350035 -0.855427 -3.117420 0
M  V30 10 C -0.181456 0.237266 -3.697427 0
M  V30 11 C 0.447052 1.463866 -3.617514 0
M  V30 12 C -0.091742 2.707508 -4.238162 0
M  V30 13 F -0.842250 2.425810 -5.359307 0
M  V30 14 F 0.945013 3.570981 -4.574914 0
M  V30 15 F -0.889543 3.334979 -3.307495 0
M  V30 16 C 1.642179 1.552081 -2.925647 0
M  V30 17 N 2.144086 0.440231 -2.358691 0
M  V30 18 C 1.271234 -1.645171 0.408674 0
M  V30 19 C 1.166753 -2.070386 1.731146 0
M  V30 20 O 0.363154 -1.600999 2.726921 0
M  V30 21 C -0.568219 -0.571311 2.689939 0 CFG=2
M  V30 22 C -0.214092 0.592105 3.592375 0
M  V30 23 C -0.382488 0.313655 5.047330 0
M  V30 24 C -1.433672 -0.743833 5.285206 0
M  V30 25 N -2.455466 -0.723002 4.283134 0
M  V30 26 C -1.979371 -1.016730 2.966666 0
M  V30 27 H 3.668194 -3.795232 -0.721251 0
M  V30 28 H 2.873698 -2.217341 -2.468438 0
M  V30 29 H -1.109356 0.158476 -4.232123 0
M  V30 30 H 2.157382 2.509864 -2.848655 0
M  V30 31 H 0.619678 -0.834829 0.161564 0
M  V30 32 H -0.574219 -0.146089 1.663806 0
M  V30 33 H 0.780498 0.990304 3.388139 0
M  V30 34 H -0.930146 1.407344 3.304864 0
M  V30 35 H -0.727864 1.249633 5.544901 0
M  V30 36 H 0.544959 0.029311 5.580328 0
M  V30 37 H -1.905999 -0.630443 6.280301 0
M  V30 38 H -0.955701 -1.746901 5.290078 0
M  V30 39 H -3.165396 0.009912 4.368329 0
M  V30 40 H -2.711317 -0.588691 2.229691 0
M  V30 41 H -2.040430 -2.131256 2.850732 0
M  V30 END ATOM
M  V30 BEGIN BOND
M  V30 1 3 1 2
M  V30 2 1 2 3
M  V30 3 2 3 4
M  V30 4 1 4 5
M  V30 5 2 5 6
M  V30 6 1 6 7
M  V30 7 1 7 8
M  V30 8 2 8 9
M  V30 9 1 9 10
M  V30 10 2 10 11
M  V30 11 1 11 12
M  V30 12 1 12 13
M  V30 13 1 12 14
M  V30 14 1 12 15
M  V30 15 1 11 16
M  V30 16 2 16 17
M  V30 17 1 6 18
M  V30 18 2 18 19
M  V30 19 1 19 20
M  V30 20 1 20 21
M  V30 21 1 21 22
M  V30 22 1 22 23
M  V30 23 1 23 24
M  V30 24 1 24 25
M  V30 25 1 25 26
M  V30 26 1 19 3
M  V30 27 1 26 21
M  V30 28 1 17 8
M  V30 29 1 5 27
M  V30 30 1 7 28
M  V30 31 1 10 29
M  V30 32 1 16 30
M  V30 33 1 18 31
M  V30 34 1 21 32 CFG=3
M  V30 35 1 22 33
M  V30 36 1 22 34
M  V30 37 1 23 35
M  V30 38 1 23 36
M  V30 39 1 24 37
M  V30 40 1 24 38
M  V30 41 1 25 39
M  V30 42 1 26 40
M  V30 43 1 26 41
M  V30 END BOND
M  V30 END CTAB
M  END
>  <Dataset>  (334) 
ChEMBL_Kinases

>  <Ligand_Instance>  (334) 
nan

>  <PDB_ID>  (334) 
nan

>  <Standardized_SMILES>  (334) 
N#Cc1ncc(Nc2ncc(C(F)(F)F)cn2)cc1O[C@@H]1CCCNC1

>  <Name>  (334) 
nan

>  <Pocket>  (334) 
nan

>  <ATP_Site>  (334) 
nan

>  <Peripheral>  (334) 
nan

>  <Num_H_Atoms_ProtBoundConf>  (334) 
nan

>  <Num_Resolved_Atoms>  (334) 
nan

>  <Num_Not_Resolved_Atoms>  (334) 
nan

$$$$
CHEMBL4870460
     RDKit          3D

  0  0  0  0  0  0  0  0  0  0999 V3000
M  V30 BEGIN CTAB
M  V30 COUNTS 60 65 0 0 0
M  V30 BEGIN ATOM
M  V30 1 C 3.161741 -3.588140 6.333074 0
M  V30 2 N 3.464081 -4.393186 5.203894 0
M  V30 3 C 3.375388 -5.791938 5.395458 0
M  V30 4 C 3.233312 -3.857284 3.924425 0
M  V30 5 C 4.146307 -2.723912 3.529826 0
M  V30 6 N 3.789320 -2.276837 2.196668 0
M  V30 7 C 2.865616 -1.286387 2.085573 0
M  V30 8 C 2.677991 -1.024120 0.743851 0
M  V30 9 C 1.784044 -0.032186 0.104737 0
M  V30 10 C 1.225080 -0.289203 -1.143804 0
M  V30 11 C 0.392255 0.686675 -1.698410 0
M  V30 12 C 0.169521 1.849095 -0.980940 0
M  V30 13 C -0.658184 2.811189 -1.542237 0
M  V30 14 N -1.294541 2.657030 -2.827469 0
M  V30 15 C -1.140717 3.296231 -3.999736 0
M  V30 16 C -2.008404 2.753256 -4.933039 0
M  V30 17 C -2.705463 1.755359 -4.301172 0
M  V30 18 C -3.685634 0.859590 -4.662345 0
M  V30 19 N -4.222699 -0.058806 -3.806295 0
M  V30 20 C -3.755216 -0.084084 -2.520721 0
M  V30 21 C -4.303023 -1.048038 -1.573115 0
M  V30 22 C -5.297240 -1.908624 -2.023402 0
M  V30 23 C -5.782724 -2.796901 -1.088583 0
M  V30 24 F -6.764109 -3.685037 -1.436455 0
M  V30 25 C -5.345650 -2.867681 0.217189 0
M  V30 26 C -4.357935 -1.978522 0.580764 0
M  V30 27 C -3.808679 -1.052571 -0.281922 0
M  V30 28 F -2.836496 -0.199290 0.133193 0
M  V30 29 N -2.804453 0.784755 -2.170319 0
M  V30 30 C -2.249366 1.704136 -2.980530 0
M  V30 31 C -0.841831 3.945679 -0.784068 0
M  V30 32 C -0.281034 4.183850 0.449302 0
M  V30 33 N 0.513496 3.222068 0.951224 0
M  V30 34 C 0.734239 2.084906 0.256975 0
M  V30 35 C 1.564679 1.141031 0.838778 0
M  V30 36 C 3.520165 -1.890748 0.059369 0
M  V30 37 N 4.181722 -2.639048 0.986296 0
M  V30 38 H 2.060765 -3.348684 6.318933 0
M  V30 39 H 3.328831 -4.199995 7.244192 0
M  V30 40 H 3.665469 -2.626036 6.384938 0
M  V30 41 H 4.360572 -6.274155 5.646860 0
M  V30 42 H 2.841008 -6.314470 4.573130 0
M  V30 43 H 2.752890 -5.979163 6.317097 0
M  V30 44 H 3.258673 -4.679149 3.180036 0
M  V30 45 H 2.171979 -3.472487 3.881035 0
M  V30 46 H 4.193961 -1.921505 4.259609 0
M  V30 47 H 5.172884 -3.152458 3.468964 0
M  V30 48 H 2.306125 -0.723163 2.829611 0
M  V30 49 H 1.461193 -1.230803 -1.623743 0
M  V30 50 H -0.046389 0.503369 -2.658716 0
M  V30 51 H -0.428749 4.101998 -4.121744 0
M  V30 52 H -2.120766 3.054094 -5.967714 0
M  V30 53 H -4.001037 0.943445 -5.696125 0
M  V30 54 H -5.654644 -1.868726 -3.048114 0
M  V30 55 H -5.723805 -3.560122 0.944008 0
M  V30 56 H -3.972457 -1.981250 1.590152 0
M  V30 57 H -1.489987 4.701521 -1.221567 0
M  V30 58 H -0.499492 5.110654 0.949748 0
M  V30 59 H 2.036158 1.267689 1.804010 0
M  V30 60 H 3.627931 -1.957878 -1.025765 0
M  V30 END ATOM
M  V30 BEGIN BOND
M  V30 1 1 1 2
M  V30 2 1 2 3
M  V30 3 1 2 4
M  V30 4 1 4 5
M  V30 5 1 5 6
M  V30 6 1 6 7
M  V30 7 2 7 8
M  V30 8 1 8 9
M  V30 9 2 9 10
M  V30 10 1 10 11
M  V30 11 2 11 12
M  V30 12 1 12 13
M  V30 13 1 13 14
M  V30 14 1 14 15
M  V30 15 2 15 16
M  V30 16 1 16 17
M  V30 17 2 17 18
M  V30 18 1 18 19
M  V30 19 2 19 20
M  V30 20 1 20 21
M  V30 21 2 21 22
M  V30 22 1 22 23
M  V30 23 1 23 24
M  V30 24 2 23 25
M  V30 25 1 25 26
M  V30 26 2 26 27
M  V30 27 1 27 28
M  V30 28 1 20 29
M  V30 29 2 29 30
M  V30 30 2 13 31
M  V30 31 1 31 32
M  V30 32 2 32 33
M  V30 33 1 33 34
M  V30 34 2 34 35
M  V30 35 1 8 36
M  V30 36 2 36 37
M  V30 37 1 37 6
M  V30 38 1 35 9
M  V30 39 1 34 12
M  V30 40 1 30 14
M  V30 41 1 30 17
M  V30 42 1 27 21
M  V30 43 1 1 38
M  V30 44 1 1 39
M  V30 45 1 1 40
M  V30 46 1 3 41
M  V30 47 1 3 42
M  V30 48 1 3 43
M  V30 49 1 4 44
M  V30 50 1 4 45
M  V30 51 1 5 46
M  V30 52 1 5 47
M  V30 53 1 7 48
M  V30 54 1 10 49
M  V30 55 1 11 50
M  V30 56 1 15 51
M  V30 57 1 16 52
M  V30 58 1 18 53
M  V30 59 1 22 54
M  V30 60 1 25 55
M  V30 61 1 26 56
M  V30 62 1 31 57
M  V30 63 1 32 58
M  V30 64 1 35 59
M  V30 65 1 36 60
M  V30 END BOND
M  V30 END CTAB
M  END
>  <Dataset>  (335) 
ChEMBL_Kinases

>  <Ligand_Instance>  (335) 
nan

>  <PDB_ID>  (335) 
nan

>  <Standardized_SMILES>  (335) 
CN(C)CCn1cc(-c2ccc3c(-n4ccc5cnc(-c6cc(F)ccc6F)nc54)ccnc3c2)cn1

>  <Name>  (335) 
nan

>  <Pocket>  (335) 
nan

>  <ATP_Site>  (335) 
nan

>  <Peripheral>  (335) 
nan

>  <Num_H_Atoms_ProtBoundConf>  (335) 
nan

>  <Num_Resolved_Atoms>  (335) 
nan

>  <Num_Not_Resolved_Atoms>  (335) 
nan

$$$$
CHEMBL3702058
     RDKit          3D

  0  0  0  0  0  0  0  0  0  0999 V3000
M  V30 BEGIN CTAB
M  V30 COUNTS 64 70 0 0 0
M  V30 BEGIN ATOM
M  V30 1 C 2.804163 -3.896437 5.643178 0
M  V30 2 C 3.511481 -3.090203 4.769774 0
M  V30 3 C 2.956627 -2.942411 3.530806 0
M  V30 4 C 3.356453 -2.235821 2.415212 0
M  V30 5 C 4.443385 -1.432295 2.159697 0
M  V30 6 N 4.623826 -0.829146 0.962014 0
M  V30 7 C 3.735509 -0.995981 -0.034402 0
M  V30 8 N 3.555762 -0.540185 -1.377910 0
M  V30 9 C 2.502257 0.439754 -1.491536 0
M  V30 10 C 1.801608 0.885496 -0.388037 0
M  V30 11 C 0.758140 1.793044 -0.495089 0
M  V30 12 C 0.433959 2.245719 -1.755791 0
M  V30 13 N -0.628450 3.149429 -1.851869 0
M  V30 14 C -1.178612 3.937062 -0.778236 0
M  V30 15 C -2.582129 3.433629 -0.546712 0
M  V30 16 N -2.881053 2.321496 -1.466897 0
M  V30 17 C -4.251043 1.909665 -1.250252 0
M  V30 18 C -4.687841 1.460024 0.097226 0
M  V30 19 C -4.471527 0.443724 -1.038800 0
M  V30 20 C -2.799784 2.894919 -2.817775 0
M  V30 21 C -1.389253 3.405457 -3.082945 0
M  V30 22 C 1.137536 1.797956 -2.849802 0
M  V30 23 N 2.166396 0.902826 -2.734635 0
M  V30 24 N 2.669206 -1.784137 0.216012 0
M  V30 25 C 2.454010 -2.405732 1.404863 0
M  V30 26 N 1.463435 -3.226032 1.869661 0
M  V30 27 C 0.319234 -3.626584 1.066655 0
M  V30 28 C 0.144042 -5.107902 0.965539 0
M  V30 29 C -1.308896 -5.427481 1.251431 0
M  V30 30 C -2.035632 -4.102361 1.332641 0
M  V30 31 C -0.965923 -3.066039 1.630372 0
M  V30 32 C 1.758244 -3.549270 3.137708 0
M  V30 33 C 1.121615 -4.332752 4.066246 0
M  V30 34 N 1.652241 -4.484377 5.277095 0
M  V30 35 H 3.209713 -4.044447 6.644481 0
M  V30 36 H 4.442369 -2.621761 5.077713 0
M  V30 37 H 5.218787 -1.225424 2.876705 0
M  V30 38 H 4.072715 -0.828249 -2.210054 0
M  V30 39 H 2.058940 0.527099 0.610241 0
M  V30 40 H 0.268080 2.081397 0.421245 0
M  V30 41 H -0.559183 3.898862 0.153635 0
M  V30 42 H -1.239179 4.994822 -1.141309 0
M  V30 43 H -2.753942 3.123419 0.502250 0
M  V30 44 H -3.297650 4.219344 -0.778846 0
M  V30 45 H -5.005794 2.460280 -1.848564 0
M  V30 46 H -5.716809 1.665586 0.431210 0
M  V30 47 H -3.895990 1.457097 0.888761 0
M  V30 48 H -5.402222 -0.059558 -1.406015 0
M  V30 49 H -3.573703 -0.198537 -0.932386 0
M  V30 50 H -3.062149 2.096437 -3.520218 0
M  V30 51 H -3.465051 3.776820 -2.854537 0
M  V30 52 H -1.367134 4.499585 -3.244616 0
M  V30 53 H -0.980164 2.838339 -3.944319 0
M  V30 54 H 0.919541 2.124116 -3.833850 0
M  V30 55 H 0.398185 -3.219811 0.038896 0
M  V30 56 H 0.846062 -5.690341 1.594567 0
M  V30 57 H 0.343389 -5.465669 -0.085699 0
M  V30 58 H -1.332409 -5.970919 2.224990 0
M  V30 59 H -1.751356 -6.079938 0.477621 0
M  V30 60 H -2.789532 -4.184950 2.130216 0
M  V30 61 H -2.555013 -3.921069 0.378592 0
M  V30 62 H -1.299177 -2.135626 1.117798 0
M  V30 63 H -0.909654 -2.827963 2.712751 0
M  V30 64 H 0.199807 -4.819376 3.817014 0
M  V30 END ATOM
M  V30 BEGIN BOND
M  V30 1 2 1 2
M  V30 2 1 2 3
M  V30 3 1 3 4
M  V30 4 2 4 5
M  V30 5 1 5 6
M  V30 6 2 6 7
M  V30 7 1 7 8
M  V30 8 1 8 9
M  V30 9 2 9 10
M  V30 10 1 10 11
M  V30 11 2 11 12
M  V30 12 1 12 13
M  V30 13 1 13 14
M  V30 14 1 14 15
M  V30 15 1 15 16
M  V30 16 1 16 17
M  V30 17 1 17 18
M  V30 18 1 18 19
M  V30 19 1 16 20
M  V30 20 1 20 21
M  V30 21 1 12 22
M  V30 22 2 22 23
M  V30 23 1 7 24
M  V30 24 2 24 25
M  V30 25 1 25 26
M  V30 26 1 26 27
M  V30 27 1 27 28
M  V30 28 1 28 29
M  V30 29 1 29 30
M  V30 30 1 30 31
M  V30 31 1 26 32
M  V30 32 1 32 33
M  V30 33 2 33 34
M  V30 34 1 34 1
M  V30 35 2 32 3
M  V30 36 1 25 4
M  V30 37 1 31 27
M  V30 38 1 23 9
M  V30 39 1 21 13
M  V30 40 1 19 17
M  V30 41 1 1 35
M  V30 42 1 2 36
M  V30 43 1 5 37
M  V30 44 1 8 38
M  V30 45 1 10 39
M  V30 46 1 11 40
M  V30 47 1 14 41
M  V30 48 1 14 42
M  V30 49 1 15 43
M  V30 50 1 15 44
M  V30 51 1 17 45
M  V30 52 1 18 46
M  V30 53 1 18 47
M  V30 54 1 19 48
M  V30 55 1 19 49
M  V30 56 1 20 50
M  V30 57 1 20 51
M  V30 58 1 21 52
M  V30 59 1 21 53
M  V30 60 1 22 54
M  V30 61 1 27 55
M  V30 62 1 28 56
M  V30 63 1 28 57
M  V30 64 1 29 58
M  V30 65 1 29 59
M  V30 66 1 30 60
M  V30 67 1 30 61
M  V30 68 1 31 62
M  V30 69 1 31 63
M  V30 70 1 33 64
M  V30 END BOND
M  V30 END CTAB
M  END
>  <Dataset>  (336) 
ChEMBL_Kinases

>  <Ligand_Instance>  (336) 
nan

>  <PDB_ID>  (336) 
nan

>  <Standardized_SMILES>  (336) 
c1cc2c3cnc(Nc4ccc(N5CCN(C6CC6)CC5)cn4)nc3n(C3CCCC3)c2cn1

>  <Name>  (336) 
nan

>  <Pocket>  (336) 
nan

>  <ATP_Site>  (336) 
nan

>  <Peripheral>  (336) 
nan

>  <Num_H_Atoms_ProtBoundConf>  (336) 
nan

>  <Num_Resolved_Atoms>  (336) 
nan

>  <Num_Not_Resolved_Atoms>  (336) 
nan

$$$$
CHEMBL4870487
     RDKit          3D

  0  0  0  0  0  0  0  0  0  0999 V3000
M  V30 BEGIN CTAB
M  V30 COUNTS 48 51 0 0 0
M  V30 BEGIN ATOM
M  V30 1 C 1.617298 -8.200527 -2.208499 0
M  V30 2 O 0.968315 -6.969450 -2.458338 0
M  V30 3 C 1.257651 -5.799829 -1.812732 0
M  V30 4 C 2.243267 -5.735164 -0.831953 0
M  V30 5 C 2.531972 -4.541890 -0.179612 0
M  V30 6 C 1.777816 -3.452880 -0.576157 0
M  V30 7 C 1.842912 -2.154048 -0.108950 0
M  V30 8 C 0.901605 -1.386278 -0.787772 0
M  V30 9 C 0.578428 0.034899 -0.660987 0
M  V30 10 O -0.300843 0.629441 -1.333228 0
M  V30 11 N 1.292132 0.840229 0.285042 0
M  V30 12 C 0.882583 2.215114 0.313241 0
M  V30 13 C 1.385204 3.261494 -0.433171 0
M  V30 14 C 0.822359 4.513106 -0.228279 0
M  V30 15 C -0.191260 4.686272 0.682481 0
M  V30 16 C -0.677444 3.617954 1.419103 0
M  V30 17 C -1.755013 3.816373 2.383627 0
M  V30 18 N -2.497220 4.905430 2.504397 0
M  V30 19 N -3.374560 4.720261 3.487620 0
M  V30 20 C -3.172795 3.492239 3.986724 0
M  V30 21 N -2.153716 2.912850 3.298118 0
M  V30 22 C -1.645073 1.580287 3.549961 0
M  V30 23 C -1.860777 1.158295 4.985608 0
M  V30 24 C -2.284255 0.636773 2.576042 0
M  V30 25 N -0.106957 2.421268 1.192704 0
M  V30 26 N 0.278159 -2.216074 -1.653394 0
M  V30 27 C 0.788648 -3.461263 -1.542902 0
M  V30 28 C 0.540400 -4.673213 -2.161614 0
M  V30 29 H 1.445636 -8.905154 -3.048178 0
M  V30 30 H 2.733322 -8.064125 -2.139355 0
M  V30 31 H 1.266064 -8.706876 -1.288856 0
M  V30 32 H 2.802214 -6.627673 -0.564595 0
M  V30 33 H 3.288978 -4.442424 0.589156 0
M  V30 34 H 2.500120 -1.760353 0.654014 0
M  V30 35 H 2.027279 0.357728 0.851637 0
M  V30 36 H 2.180398 2.976389 -1.108822 0
M  V30 37 H 1.264267 5.299396 -0.849702 0
M  V30 38 H -0.596460 5.687705 0.803858 0
M  V30 39 H -3.722802 3.016956 4.808145 0
M  V30 40 H -0.539371 1.564513 3.381672 0
M  V30 41 H -2.933039 1.019115 5.190639 0
M  V30 42 H -1.274412 0.213821 5.112410 0
M  V30 43 H -1.363852 1.913515 5.629797 0
M  V30 44 H -3.165740 0.137802 3.036580 0
M  V30 45 H -1.559818 -0.159925 2.338750 0
M  V30 46 H -2.583689 1.200584 1.672757 0
M  V30 47 H -0.485222 -2.015545 -2.335133 0
M  V30 48 H -0.228681 -4.724329 -2.927129 0
M  V30 END ATOM
M  V30 BEGIN BOND
M  V30 1 1 1 2
M  V30 2 1 2 3
M  V30 3 2 3 4
M  V30 4 1 4 5
M  V30 5 2 5 6
M  V30 6 1 6 7
M  V30 7 2 7 8
M  V30 8 1 8 9
M  V30 9 2 9 10
M  V30 10 1 9 11
M  V30 11 1 11 12
M  V30 12 2 12 13
M  V30 13 1 13 14
M  V30 14 2 14 15
M  V30 15 1 15 16
M  V30 16 1 16 17
M  V30 17 2 17 18
M  V30 18 1 18 19
M  V30 19 2 19 20
M  V30 20 1 20 21
M  V30 21 1 21 22
M  V30 22 1 22 23
M  V30 23 1 22 24
M  V30 24 2 16 25
M  V30 25 1 8 26
M  V30 26 1 26 27
M  V30 27 2 27 28
M  V30 28 1 28 3
M  V30 29 1 27 6
M  V30 30 1 25 12
M  V30 31 1 21 17
M  V30 32 1 1 29
M  V30 33 1 1 30
M  V30 34 1 1 31
M  V30 35 1 4 32
M  V30 36 1 5 33
M  V30 37 1 7 34
M  V30 38 1 11 35
M  V30 39 1 13 36
M  V30 40 1 14 37
M  V30 41 1 15 38
M  V30 42 1 20 39
M  V30 43 1 22 40
M  V30 44 1 23 41
M  V30 45 1 23 42
M  V30 46 1 23 43
M  V30 47 1 24 44
M  V30 48 1 24 45
M  V30 49 1 24 46
M  V30 50 1 26 47
M  V30 51 1 28 48
M  V30 END BOND
M  V30 END CTAB
M  END
>  <Dataset>  (337) 
ChEMBL_Kinases

>  <Ligand_Instance>  (337) 
nan

>  <PDB_ID>  (337) 
nan

>  <Standardized_SMILES>  (337) 
COc1ccc2cc(C(=O)Nc3cccc(-c4nncn4C(C)C)n3)[nH]c2c1

>  <Name>  (337) 
nan

>  <Pocket>  (337) 
nan

>  <ATP_Site>  (337) 
nan

>  <Peripheral>  (337) 
nan

>  <Num_H_Atoms_ProtBoundConf>  (337) 
nan

>  <Num_Resolved_Atoms>  (337) 
nan

>  <Num_Not_Resolved_Atoms>  (337) 
nan

$$$$
CHEMBL4870490
     RDKit          3D

  0  0  0  0  0  0  0  0  0  0999 V3000
M  V30 BEGIN CTAB
M  V30 COUNTS 47 50 0 0 0
M  V30 BEGIN ATOM
M  V30 1 O -1.469477 -3.035593 0.479705 0
M  V30 2 C -1.963259 -2.161106 1.208310 0
M  V30 3 N -1.378918 -0.903115 1.417025 0
M  V30 4 C -0.161962 -0.444712 0.842163 0
M  V30 5 C 1.093451 -0.618812 1.437047 0
M  V30 6 C 2.236970 -0.128517 0.788044 0
M  V30 7 C 2.167886 0.537854 -0.450071 0
M  V30 8 O 3.466263 0.858116 -0.756111 0
M  V30 9 C 4.247649 1.881004 -0.359037 0
M  V30 10 C 5.356392 1.357119 0.326406 0
M  V30 11 C 6.350724 2.187971 0.861240 0
M  V30 12 N 6.233148 3.528090 0.709550 0
M  V30 13 C 5.193843 4.082379 0.062721 0
M  V30 14 C 5.003997 5.433364 -0.137169 0
M  V30 15 C 3.888326 5.908178 -0.829173 0
M  V30 16 C 2.922318 5.036392 -1.345516 0
M  V30 17 C 3.127754 3.693670 -1.136751 0
M  V30 18 C 4.229691 3.247182 -0.454185 0
M  V30 19 C 0.909180 0.683848 -0.994956 0
M  V30 20 C -0.221118 0.209123 -0.371225 0
M  V30 21 N -3.177878 -2.307855 1.927281 0
M  V30 22 C -4.004990 -3.464963 1.923095 0
M  V30 23 C -4.984412 -3.490612 0.942976 0
M  V30 24 C -5.876373 -4.540943 0.795215 0
M  V30 25 C -5.753600 -5.601901 1.689886 0
M  V30 26 C -4.775474 -5.588054 2.677247 0
M  V30 27 C -4.653283 -6.730731 3.630590 0
M  V30 28 F -5.814937 -7.480189 3.674986 0
M  V30 29 F -4.349908 -6.188167 4.867185 0
M  V30 30 F -3.557848 -7.472981 3.206451 0
M  V30 31 C -3.910705 -4.527611 2.789952 0
M  V30 32 H -1.701277 -0.100651 2.000805 0
M  V30 33 H 1.021857 -1.134969 2.368632 0
M  V30 34 H 3.083145 -0.379788 1.434789 0
M  V30 35 H 5.606549 0.306133 0.538336 0
M  V30 36 H 7.224590 1.849111 1.397018 0
M  V30 37 H 5.751713 6.101511 0.262828 0
M  V30 38 H 3.797272 6.990388 -0.953038 0
M  V30 39 H 2.108467 5.512402 -1.858921 0
M  V30 40 H 2.375792 3.059748 -1.547831 0
M  V30 41 H 1.007027 1.197023 -1.932548 0
M  V30 42 H -1.117209 0.408327 -0.933423 0
M  V30 43 H -3.634631 -1.614580 2.547246 0
M  V30 44 H -5.107312 -2.678556 0.228684 0
M  V30 45 H -6.630145 -4.527903 0.017120 0
M  V30 46 H -6.437494 -6.431434 1.594149 0
M  V30 47 H -3.131708 -4.459461 3.534866 0
M  V30 END ATOM
M  V30 BEGIN BOND
M  V30 1 2 1 2
M  V30 2 1 2 3
M  V30 3 1 3 4
M  V30 4 2 4 5
M  V30 5 1 5 6
M  V30 6 2 6 7
M  V30 7 1 7 8
M  V30 8 1 8 9
M  V30 9 2 9 10
M  V30 10 1 10 11
M  V30 11 2 11 12
M  V30 12 1 12 13
M  V30 13 2 13 14
M  V30 14 1 14 15
M  V30 15 2 15 16
M  V30 16 1 16 17
M  V30 17 2 17 18
M  V30 18 1 7 19
M  V30 19 2 19 20
M  V30 20 1 2 21
M  V30 21 1 21 22
M  V30 22 2 22 23
M  V30 23 1 23 24
M  V30 24 2 24 25
M  V30 25 1 25 26
M  V30 26 1 26 27
M  V30 27 1 27 28
M  V30 28 1 27 29
M  V30 29 1 27 30
M  V30 30 2 26 31
M  V30 31 1 20 4
M  V30 32 1 31 22
M  V30 33 1 18 9
M  V30 34 1 18 13
M  V30 35 1 3 32
M  V30 36 1 5 33
M  V30 37 1 6 34
M  V30 38 1 10 35
M  V30 39 1 11 36
M  V30 40 1 14 37
M  V30 41 1 15 38
M  V30 42 1 16 39
M  V30 43 1 17 40
M  V30 44 1 19 41
M  V30 45 1 20 42
M  V30 46 1 21 43
M  V30 47 1 23 44
M  V30 48 1 24 45
M  V30 49 1 25 46
M  V30 50 1 31 47
M  V30 END BOND
M  V30 END CTAB
M  END
>  <Dataset>  (338) 
ChEMBL_Kinases

>  <Ligand_Instance>  (338) 
nan

>  <PDB_ID>  (338) 
nan

>  <Standardized_SMILES>  (338) 
O=C(Nc1ccc(Oc2ccnc3ccccc23)cc1)Nc1cccc(C(F)(F)F)c1

>  <Name>  (338) 
nan

>  <Pocket>  (338) 
nan

>  <ATP_Site>  (338) 
nan

>  <Peripheral>  (338) 
nan

>  <Num_H_Atoms_ProtBoundConf>  (338) 
nan

>  <Num_Resolved_Atoms>  (338) 
nan

>  <Num_Not_Resolved_Atoms>  (338) 
nan

$$$$
CHEMBL4870495
     RDKit          3D

  0  0  0  0  0  0  0  0  0  0999 V3000
M  V30 BEGIN CTAB
M  V30 COUNTS 57 59 0 0 0
M  V30 BEGIN ATOM
M  V30 1 C -2.470947 -0.759873 2.865535 0
M  V30 2 C -1.346350 -0.449153 1.957789 0
M  V30 3 C -0.193815 0.135281 2.395259 0
M  V30 4 C 0.886227 0.450629 1.615818 0
M  V30 5 N 2.099252 1.054360 2.018086 0
M  V30 6 C 2.498889 1.478808 3.305002 0
M  V30 7 O 1.720075 1.327985 4.276752 0
M  V30 8 C 3.789915 2.107152 3.646402 0 CFG=2
M  V30 9 O 3.831810 2.283695 5.040827 0
M  V30 10 C 3.912051 3.485264 3.084705 0
M  V30 11 C 3.177021 4.132544 2.115567 0
M  V30 12 C 3.484863 5.412037 1.755889 0
M  V30 13 C 4.516103 6.141775 2.307169 0
M  V30 14 C 5.260608 5.506671 3.278941 0
M  V30 15 C 4.950763 4.212117 3.644160 0
M  V30 16 C 0.740525 0.128140 0.287775 0
M  V30 17 C -0.398586 -0.460651 -0.201860 0
M  V30 18 C -1.464041 -0.761365 0.620067 0
M  V30 19 C -2.638109 -1.385611 0.020786 0
M  V30 20 C -3.961947 -1.059067 0.222991 0
M  V30 21 N -4.950352 -1.714867 -0.391430 0
M  V30 22 C -4.702972 -2.744598 -1.253439 0
M  V30 23 N -5.848654 -3.362322 -1.844443 0
M  V30 24 C -3.397171 -3.117495 -1.496152 0
M  V30 25 C -3.182253 -4.222356 -2.423982 0
M  V30 26 O -4.188567 -4.758284 -2.937470 0
M  V30 27 N -1.900195 -4.722979 -2.776730 0
M  V30 28 C -1.627133 -5.799043 -3.676742 0
M  V30 29 C -0.958244 -6.951556 -2.922076 0
M  V30 30 C -0.739190 -5.421211 -4.820715 0
M  V30 31 C -2.379205 -2.438706 -0.860465 0
M  V30 32 H -3.065700 0.165914 3.009010 0
M  V30 33 H -3.078863 -1.631886 2.553491 0
M  V30 34 H -2.112263 -1.024282 3.894064 0
M  V30 35 H -0.155093 0.357726 3.448179 0
M  V30 36 H 2.849986 1.236738 1.324767 0
M  V30 37 H 4.661288 1.493931 3.373136 0
M  V30 38 H 3.358746 1.546653 5.503221 0
M  V30 39 H 2.378877 3.523763 1.715888 0
M  V30 40 H 2.866054 5.864949 0.985208 0
M  V30 41 H 4.739475 7.146166 2.008656 0
M  V30 42 H 6.069271 6.077992 3.711797 0
M  V30 43 H 5.613530 3.830223 4.418665 0
M  V30 44 H 1.559177 0.345421 -0.414277 0
M  V30 45 H -0.434748 -0.682220 -1.256037 0
M  V30 46 H -4.132055 -0.248981 0.901731 0
M  V30 47 H -6.168393 -3.305765 -2.856207 0
M  V30 48 H -6.473904 -3.951897 -1.233212 0
M  V30 49 H -1.053316 -4.288779 -2.358905 0
M  V30 50 H -2.555793 -6.249916 -4.113478 0
M  V30 51 H -0.510207 -7.590423 -3.704232 0
M  V30 52 H -1.719849 -7.572953 -2.404957 0
M  V30 53 H -0.215056 -6.523069 -2.230331 0
M  V30 54 H -0.039181 -6.247796 -5.047284 0
M  V30 55 H -0.136790 -4.508769 -4.553736 0
M  V30 56 H -1.317585 -5.255900 -5.771253 0
M  V30 57 H -1.385972 -2.747910 -1.066829 0
M  V30 END ATOM
M  V30 BEGIN BOND
M  V30 1 1 1 2
M  V30 2 2 2 3
M  V30 3 1 3 4
M  V30 4 1 4 5
M  V30 5 1 5 6
M  V30 6 2 6 7
M  V30 7 1 6 8
M  V30 8 1 8 9
M  V30 9 1 8 10
M  V30 10 2 10 11
M  V30 11 1 11 12
M  V30 12 2 12 13
M  V30 13 1 13 14
M  V30 14 2 14 15
M  V30 15 2 4 16
M  V30 16 1 16 17
M  V30 17 2 17 18
M  V30 18 1 18 19
M  V30 19 2 19 20
M  V30 20 1 20 21
M  V30 21 2 21 22
M  V30 22 1 22 23
M  V30 23 1 22 24
M  V30 24 1 24 25
M  V30 25 2 25 26
M  V30 26 1 25 27
M  V30 27 1 27 28
M  V30 28 1 28 29
M  V30 29 1 28 30
M  V30 30 2 24 31
M  V30 31 1 18 2
M  V30 32 1 31 19
M  V30 33 1 15 10
M  V30 34 1 1 32
M  V30 35 1 1 33
M  V30 36 1 1 34
M  V30 37 1 3 35
M  V30 38 1 5 36
M  V30 39 1 8 37 CFG=3
M  V30 40 1 9 38
M  V30 41 1 11 39
M  V30 42 1 12 40
M  V30 43 1 13 41
M  V30 44 1 14 42
M  V30 45 1 15 43
M  V30 46 1 16 44
M  V30 47 1 17 45
M  V30 48 1 20 46
M  V30 49 1 23 47
M  V30 50 1 23 48
M  V30 51 1 27 49
M  V30 52 1 28 50
M  V30 53 1 29 51
M  V30 54 1 29 52
M  V30 55 1 29 53
M  V30 56 1 30 54
M  V30 57 1 30 55
M  V30 58 1 30 56
M  V30 59 1 31 57
M  V30 END BOND
M  V30 END CTAB
M  END
>  <Dataset>  (339) 
ChEMBL_Kinases

>  <Ligand_Instance>  (339) 
nan

>  <PDB_ID>  (339) 
nan

>  <Standardized_SMILES>  (339) 
Cc1cc(NC(=O)[C@H](O)c2ccccc2)ccc1-c1cnc(N)c(C(=O)NC(C)C)c1

>  <Name>  (339) 
nan

>  <Pocket>  (339) 
nan

>  <ATP_Site>  (339) 
nan

>  <Peripheral>  (339) 
nan

>  <Num_H_Atoms_ProtBoundConf>  (339) 
nan

>  <Num_Resolved_Atoms>  (339) 
nan

>  <Num_Not_Resolved_Atoms>  (339) 
nan

$$$$
CHEMBL3702059
     RDKit          3D

  0  0  0  0  0  0  0  0  0  0999 V3000
M  V30 BEGIN CTAB
M  V30 COUNTS 63 68 0 0 0
M  V30 BEGIN ATOM
M  V30 1 O 2.664368 0.361482 4.736464 0
M  V30 2 C 2.985954 -0.239694 3.679474 0
M  V30 3 C 2.326703 -1.560592 3.753645 0
M  V30 4 O 2.670428 -2.292945 2.629576 0
M  V30 5 N 3.831638 0.336122 2.666994 0
M  V30 6 C 4.353081 -0.097598 1.380525 0
M  V30 7 C 4.130027 0.982104 0.337561 0
M  V30 8 N 3.154114 1.953903 0.799935 0
M  V30 9 C 1.898279 2.329256 0.226600 0
M  V30 10 C 1.493431 3.435111 -0.490362 0
M  V30 11 C 0.177004 3.513896 -0.882536 0
M  V30 12 C -0.755098 2.541355 -0.592689 0
M  V30 13 N -2.134510 2.669076 -1.001104 0
M  V30 14 C -2.952024 1.561949 -0.595919 0
M  V30 15 N -4.151776 1.716868 -0.010804 0
M  V30 16 C -4.861349 0.607609 0.353049 0
M  V30 17 C -4.302539 -0.627902 0.097143 0
M  V30 18 C -4.779719 -1.894316 0.353572 0
M  V30 19 C -5.936894 -2.366195 0.936285 0
M  V30 20 C -6.176529 -3.715383 1.082624 0
M  V30 21 N -5.229940 -4.529129 0.631160 0
M  V30 22 C -4.082598 -4.122611 0.055145 0
M  V30 23 C -3.800906 -2.778535 -0.112511 0
M  V30 24 N -2.752741 -2.102392 -0.639892 0
M  V30 25 C -1.570557 -2.643669 -1.223808 0
M  V30 26 C -1.830971 -3.415034 -2.498001 0
M  V30 27 C -0.471668 -4.042372 -2.720935 0
M  V30 28 C 0.120955 -4.265125 -1.356779 0
M  V30 29 C -0.702945 -3.478648 -0.359558 0
M  V30 30 C -3.093832 -0.809162 -0.493484 0
M  V30 31 N -2.438268 0.321873 -0.830732 0
M  V30 32 N -0.303653 1.486807 0.107412 0
M  V30 33 C 0.963944 1.336359 0.525664 0
M  V30 34 C 3.516235 2.614140 2.038052 0
M  V30 35 C 4.323125 1.671762 2.923216 0
M  V30 36 H 1.209096 -1.421277 3.690901 0
M  V30 37 H 2.551118 -2.122820 4.673990 0
M  V30 38 H 1.950463 -2.354121 1.968312 0
M  V30 39 H 5.445107 -0.266835 1.458891 0
M  V30 40 H 3.883165 -1.048897 1.091615 0
M  V30 41 H 3.804365 0.477426 -0.590093 0
M  V30 42 H 5.072356 1.520539 0.107114 0
M  V30 43 H 2.298265 4.109200 -0.648010 0
M  V30 44 H -0.086221 4.382965 -1.433215 0
M  V30 45 H -2.384765 3.527471 -1.534554 0
M  V30 46 H -5.820666 0.661209 0.823649 0
M  V30 47 H -6.650376 -1.632941 1.273200 0
M  V30 48 H -7.107212 -4.007806 1.549379 0
M  V30 49 H -3.363116 -4.854211 -0.286256 0
M  V30 50 H -0.926179 -1.782359 -1.562972 0
M  V30 51 H -2.660170 -4.119701 -2.452327 0
M  V30 52 H -2.099842 -2.667557 -3.280167 0
M  V30 53 H 0.098671 -3.273449 -3.321705 0
M  V30 54 H -0.503815 -4.941811 -3.352660 0
M  V30 55 H 1.176558 -3.902153 -1.389382 0
M  V30 56 H 0.182139 -5.351510 -1.097501 0
M  V30 57 H 0.017239 -2.817682 0.200312 0
M  V30 58 H -1.184569 -4.090709 0.396681 0
M  V30 59 H 1.065419 0.415747 1.060246 0
M  V30 60 H 4.000378 3.587148 1.913450 0
M  V30 61 H 2.561550 2.802315 2.610944 0
M  V30 62 H 4.130192 1.982004 3.969986 0
M  V30 63 H 5.404619 1.798874 2.675483 0
M  V30 END ATOM
M  V30 BEGIN BOND
M  V30 1 2 1 2
M  V30 2 1 2 3
M  V30 3 1 3 4
M  V30 4 1 2 5
M  V30 5 1 5 6
M  V30 6 1 6 7
M  V30 7 1 7 8
M  V30 8 1 8 9
M  V30 9 2 9 10
M  V30 10 1 10 11
M  V30 11 2 11 12
M  V30 12 1 12 13
M  V30 13 1 13 14
M  V30 14 2 14 15
M  V30 15 1 15 16
M  V30 16 2 16 17
M  V30 17 1 17 18
M  V30 18 2 18 19
M  V30 19 1 19 20
M  V30 20 2 20 21
M  V30 21 1 21 22
M  V30 22 2 22 23
M  V30 23 1 23 24
M  V30 24 1 24 25
M  V30 25 1 25 26
M  V30 26 1 26 27
M  V30 27 1 27 28
M  V30 28 1 28 29
M  V30 29 1 24 30
M  V30 30 2 30 31
M  V30 31 1 12 32
M  V30 32 2 32 33
M  V30 33 1 8 34
M  V30 34 1 34 35
M  V30 35 1 35 5
M  V30 36 1 33 9
M  V30 37 1 31 14
M  V30 38 1 30 17
M  V30 39 1 23 18
M  V30 40 1 29 25
M  V30 41 1 3 36
M  V30 42 1 3 37
M  V30 43 1 4 38
M  V30 44 1 6 39
M  V30 45 1 6 40
M  V30 46 1 7 41
M  V30 47 1 7 42
M  V30 48 1 10 43
M  V30 49 1 11 44
M  V30 50 1 13 45
M  V30 51 1 16 46
M  V30 52 1 19 47
M  V30 53 1 20 48
M  V30 54 1 22 49
M  V30 55 1 25 50
M  V30 56 1 26 51
M  V30 57 1 26 52
M  V30 58 1 27 53
M  V30 59 1 27 54
M  V30 60 1 28 55
M  V30 61 1 28 56
M  V30 62 1 29 57
M  V30 63 1 29 58
M  V30 64 1 33 59
M  V30 65 1 34 60
M  V30 66 1 34 61
M  V30 67 1 35 62
M  V30 68 1 35 63
M  V30 END BOND
M  V30 END CTAB
M  END
>  <Dataset>  (340) 
ChEMBL_Kinases

>  <Ligand_Instance>  (340) 
nan

>  <PDB_ID>  (340) 
nan

>  <Standardized_SMILES>  (340) 
O=C(CO)N1CCN(c2ccc(Nc3ncc4c5ccncc5n(C5CCCC5)c4n3)nc2)CC1

>  <Name>  (340) 
nan

>  <Pocket>  (340) 
nan

>  <ATP_Site>  (340) 
nan

>  <Peripheral>  (340) 
nan

>  <Num_H_Atoms_ProtBoundConf>  (340) 
nan

>  <Num_Resolved_Atoms>  (340) 
nan

>  <Num_Not_Resolved_Atoms>  (340) 
nan

$$$$
CHEMBL3958798
     RDKit          3D

  0  0  0  0  0  0  0  0  0  0999 V3000
M  V30 BEGIN CTAB
M  V30 COUNTS 55 60 0 0 0
M  V30 BEGIN ATOM
M  V30 1 O 2.503210 -0.021404 6.065682 0
M  V30 2 C 2.114467 -0.626930 5.056739 0
M  V30 3 C 2.256018 -2.080920 4.718584 0
M  V30 4 O 2.749044 -2.201933 3.398208 0
M  V30 5 C 2.100666 -1.521526 2.381503 0
M  V30 6 C 2.098722 -1.964850 1.071314 0
M  V30 7 C 1.459112 -1.301468 0.041550 0
M  V30 8 C 0.776203 -0.116000 0.342478 0
M  V30 9 C 0.060399 0.669723 -0.727487 0
M  V30 10 O 0.001633 -0.089938 -1.879049 0
M  V30 11 C 0.835201 1.933138 -0.885343 0
M  V30 12 C 2.111714 2.064146 -1.359424 0
M  V30 13 C 2.695733 3.332256 -1.434304 0
M  V30 14 C 1.940523 4.413548 -1.017600 0
M  V30 15 C 0.653441 4.277089 -0.540252 0
M  V30 16 C 0.075539 3.006485 -0.468072 0
M  V30 17 C -1.209062 2.461663 -0.043493 0
M  V30 18 O -2.077597 3.250677 0.381737 0
M  V30 19 N -1.223695 1.050837 -0.206421 0
M  V30 20 C -2.301683 0.189469 0.087882 0
M  V30 21 C -3.514394 0.609557 0.590246 0
M  V30 22 C -4.578842 -0.214109 0.883284 0
M  V30 23 C -4.447255 -1.567576 0.666543 0
M  V30 24 C -3.255061 -2.081285 0.160079 0
M  V30 25 O -3.139950 -3.430587 -0.049935 0
M  V30 26 C -1.956838 -3.945891 -0.543162 0
M  V30 27 C -1.024347 -4.313019 0.421896 0
M  V30 28 C 0.182978 -4.836122 0.009476 0
M  V30 29 C 0.520329 -5.017942 -1.335893 0
M  V30 30 C -0.459632 -4.628454 -2.223420 0
M  V30 31 C -1.686810 -4.098909 -1.886069 0
M  V30 32 C -2.252406 -1.170712 -0.099360 0
M  V30 33 C 0.792190 0.305122 1.654505 0
M  V30 34 C 1.428601 -0.355021 2.678366 0
M  V30 35 N 1.423961 0.115153 4.030501 0
M  V30 36 H 1.225663 -2.490321 4.722383 0
M  V30 37 H 2.905220 -2.596492 5.448422 0
M  V30 38 H 2.640673 -2.894914 0.863130 0
M  V30 39 H 1.466598 -1.661867 -0.981775 0
M  V30 40 H -0.605520 0.353781 -2.519528 0
M  V30 41 H 2.772993 1.283785 -1.704760 0
M  V30 42 H 3.688593 3.574393 -1.786514 0
M  V30 43 H 2.304652 5.436433 -1.036656 0
M  V30 44 H 0.046829 5.122264 -0.208105 0
M  V30 45 H -3.698587 1.653352 0.787837 0
M  V30 46 H -5.510939 0.138418 1.272988 0
M  V30 47 H -5.269354 -2.229654 0.889609 0
M  V30 48 H -1.212594 -4.202911 1.480026 0
M  V30 49 H 0.903846 -5.118851 0.783083 0
M  V30 50 H 1.471273 -5.429263 -1.643752 0
M  V30 51 H -0.236667 -4.753702 -3.281099 0
M  V30 52 H -2.426494 -3.806920 -2.616897 0
M  V30 53 H -1.355738 -1.643463 -0.492754 0
M  V30 54 H 0.277755 1.222970 1.955136 0
M  V30 55 H 0.904765 1.007759 4.235183 0
M  V30 END ATOM
M  V30 BEGIN BOND
M  V30 1 2 1 2
M  V30 2 1 2 3
M  V30 3 1 3 4
M  V30 4 1 4 5
M  V30 5 2 5 6
M  V30 6 1 6 7
M  V30 7 2 7 8
M  V30 8 1 8 9
M  V30 9 1 9 10
M  V30 10 1 9 11
M  V30 11 2 11 12
M  V30 12 1 12 13
M  V30 13 2 13 14
M  V30 14 1 14 15
M  V30 15 2 15 16
M  V30 16 1 16 17
M  V30 17 2 17 18
M  V30 18 1 17 19
M  V30 19 1 19 20
M  V30 20 2 20 21
M  V30 21 1 21 22
M  V30 22 2 22 23
M  V30 23 1 23 24
M  V30 24 1 24 25
M  V30 25 1 25 26
M  V30 26 2 26 27
M  V30 27 1 27 28
M  V30 28 2 28 29
M  V30 29 1 29 30
M  V30 30 2 30 31
M  V30 31 2 24 32
M  V30 32 1 8 33
M  V30 33 2 33 34
M  V30 34 1 34 35
M  V30 35 1 35 2
M  V30 36 1 34 5
M  V30 37 1 19 9
M  V30 38 1 32 20
M  V30 39 1 16 11
M  V30 40 1 31 26
M  V30 41 1 3 36
M  V30 42 1 3 37
M  V30 43 1 6 38
M  V30 44 1 7 39
M  V30 45 1 10 40
M  V30 46 1 12 41
M  V30 47 1 13 42
M  V30 48 1 14 43
M  V30 49 1 15 44
M  V30 50 1 21 45
M  V30 51 1 22 46
M  V30 52 1 23 47
M  V30 53 1 27 48
M  V30 54 1 28 49
M  V30 55 1 29 50
M  V30 56 1 30 51
M  V30 57 1 31 52
M  V30 58 1 32 53
M  V30 59 1 33 54
M  V30 60 1 35 55
M  V30 END BOND
M  V30 END CTAB
M  END
>  <Dataset>  (341) 
ChEMBL_Kinases

>  <Ligand_Instance>  (341) 
nan

>  <PDB_ID>  (341) 
nan

>  <Standardized_SMILES>  (341) 
O=C1COc2ccc(C3(O)c4ccccc4C(=O)N3c3cccc(Oc4ccccc4)c3)cc2N1

>  <Name>  (341) 
nan

>  <Pocket>  (341) 
nan

>  <ATP_Site>  (341) 
nan

>  <Peripheral>  (341) 
nan

>  <Num_H_Atoms_ProtBoundConf>  (341) 
nan

>  <Num_Resolved_Atoms>  (341) 
nan

>  <Num_Not_Resolved_Atoms>  (341) 
nan

$$$$
CHEMBL3960180
     RDKit          3D

  0  0  0  0  0  0  0  0  0  0999 V3000
M  V30 BEGIN CTAB
M  V30 COUNTS 70 74 0 0 0
M  V30 BEGIN ATOM
M  V30 1 C 3.309932 -0.716311 2.075720 0
M  V30 2 C 3.572131 -0.079391 0.748886 0 CFG=1
M  V30 3 C 3.686441 -1.229905 -0.255417 0
M  V30 4 N 3.150325 -0.843286 -1.510812 0
M  V30 5 C 1.819039 -1.238673 -1.805551 0
M  V30 6 C 1.747846 -2.712035 -1.996533 0
M  V30 7 C 0.351008 -3.205909 -2.314207 0
M  V30 8 C 0.514220 -4.681444 -2.657003 0
M  V30 9 O 1.777866 -5.167970 -2.348893 0
M  V30 10 C 2.801322 -4.594297 -3.089750 0
M  V30 11 C 2.587380 -3.100791 -3.222120 0
M  V30 12 C 3.537084 0.476348 -1.852416 0
M  V30 13 C 3.120821 1.530691 -0.870283 0
M  V30 14 N 2.620495 0.889060 0.339154 0
M  V30 15 C 1.422206 1.126468 1.043431 0
M  V30 16 O 1.128228 0.479587 2.074970 0
M  V30 17 N 0.222111 1.871339 1.131910 0
M  V30 18 C -0.732480 1.640653 2.194941 0
M  V30 19 C -2.019947 1.406395 1.474657 0
M  V30 20 C -3.229863 0.750505 1.389835 0
M  V30 21 N -3.690548 -0.212252 2.328354 0
M  V30 22 C -4.950344 -0.839141 2.161958 0
M  V30 23 O -5.621730 -0.507593 1.167390 0
M  V30 24 C -5.392644 -1.823611 3.142163 0
M  V30 25 C -6.632869 -2.407792 2.931724 0
M  V30 26 C -7.063340 -3.353353 3.870992 0
M  V30 27 C -6.243272 -3.649100 4.939655 0
M  V30 28 F -6.672551 -4.569505 5.846649 0
M  V30 29 C -4.993098 -3.053423 5.142277 0
M  V30 30 N -4.640243 -2.156082 4.205669 0
M  V30 31 N -3.846849 1.184196 0.300908 0
M  V30 32 N -3.073290 2.086046 -0.301622 0
M  V30 33 C -1.936590 2.239643 0.407797 0
M  V30 34 C -0.609072 2.908143 0.569638 0
M  V30 35 C -0.701778 4.150007 1.399330 0
M  V30 36 C -0.197217 3.332135 -0.823613 0
M  V30 37 H 3.225764 0.019243 2.893128 0
M  V30 38 H 4.183891 -1.383618 2.339951 0
M  V30 39 H 2.445512 -1.403948 2.049977 0
M  V30 40 H 4.607748 0.368573 0.775571 0
M  V30 41 H 3.180505 -2.125330 0.118355 0
M  V30 42 H 4.756996 -1.522910 -0.423736 0
M  V30 43 H 1.179988 -0.991091 -0.916572 0
M  V30 44 H 1.385201 -0.738788 -2.688812 0
M  V30 45 H 2.097406 -3.275365 -1.113185 0
M  V30 46 H -0.359485 -3.042506 -1.497864 0
M  V30 47 H 0.014436 -2.715484 -3.246217 0
M  V30 48 H -0.187020 -5.247541 -1.986337 0
M  V30 49 H 0.230438 -4.914778 -3.698610 0
M  V30 50 H 2.979543 -5.064163 -4.065414 0
M  V30 51 H 3.733361 -4.718401 -2.469107 0
M  V30 52 H 1.936394 -2.895736 -4.110509 0
M  V30 53 H 3.532693 -2.528285 -3.274295 0
M  V30 54 H 3.270097 0.771281 -2.889925 0
M  V30 55 H 4.668134 0.482654 -1.860466 0
M  V30 56 H 3.971267 2.213338 -0.607906 0
M  V30 57 H 2.336930 2.132483 -1.367676 0
M  V30 58 H -0.493712 0.831510 2.882217 0
M  V30 59 H -0.814136 2.567516 2.833672 0
M  V30 60 H -3.119952 -0.484110 3.159307 0
M  V30 61 H -7.230992 -2.133922 2.072540 0
M  V30 62 H -8.022005 -3.821466 3.729568 0
M  V30 63 H -4.363301 -3.297989 5.985594 0
M  V30 64 H -3.279946 2.615168 -1.189021 0
M  V30 65 H 0.104172 4.242158 2.138147 0
M  V30 66 H -0.714595 5.070238 0.753052 0
M  V30 67 H -1.707318 4.131340 1.915245 0
M  V30 68 H -0.148946 2.450510 -1.491980 0
M  V30 69 H 0.774466 3.859259 -0.774065 0
M  V30 70 H -1.012490 3.986483 -1.195909 0
M  V30 END ATOM
M  V30 BEGIN BOND
M  V30 1 1 1 2
M  V30 2 1 2 3
M  V30 3 1 3 4
M  V30 4 1 4 5
M  V30 5 1 5 6
M  V30 6 1 6 7
M  V30 7 1 7 8
M  V30 8 1 8 9
M  V30 9 1 9 10
M  V30 10 1 10 11
M  V30 11 1 4 12
M  V30 12 1 12 13
M  V30 13 1 13 14
M  V30 14 1 14 15
M  V30 15 2 15 16
M  V30 16 1 15 17
M  V30 17 1 17 18
M  V30 18 1 18 19
M  V30 19 1 19 20
M  V30 20 1 20 21
M  V30 21 1 21 22
M  V30 22 2 22 23
M  V30 23 1 22 24
M  V30 24 2 24 25
M  V30 25 1 25 26
M  V30 26 2 26 27
M  V30 27 1 27 28
M  V30 28 1 27 29
M  V30 29 2 29 30
M  V30 30 2 20 31
M  V30 31 1 31 32
M  V30 32 1 32 33
M  V30 33 1 33 34
M  V30 34 1 34 35
M  V30 35 1 34 36
M  V30 36 1 14 2
M  V30 37 1 34 17
M  V30 38 1 11 6
M  V30 39 2 33 19
M  V30 40 1 30 24
M  V30 41 1 1 37
M  V30 42 1 1 38
M  V30 43 1 1 39
M  V30 44 1 2 40 CFG=1
M  V30 45 1 3 41
M  V30 46 1 3 42
M  V30 47 1 5 43
M  V30 48 1 5 44
M  V30 49 1 6 45
M  V30 50 1 7 46
M  V30 51 1 7 47
M  V30 52 1 8 48
M  V30 53 1 8 49
M  V30 54 1 10 50
M  V30 55 1 10 51
M  V30 56 1 11 52
M  V30 57 1 11 53
M  V30 58 1 12 54
M  V30 59 1 12 55
M  V30 60 1 13 56
M  V30 61 1 13 57
M  V30 62 1 18 58
M  V30 63 1 18 59
M  V30 64 1 21 60
M  V30 65 1 25 61
M  V30 66 1 26 62
M  V30 67 1 29 63
M  V30 68 1 32 64
M  V30 69 1 35 65
M  V30 70 1 35 66
M  V30 71 1 35 67
M  V30 72 1 36 68
M  V30 73 1 36 69
M  V30 74 1 36 70
M  V30 END BOND
M  V30 END CTAB
M  END
>  <Dataset>  (342) 
ChEMBL_Kinases

>  <Ligand_Instance>  (342) 
nan

>  <PDB_ID>  (342) 
nan

>  <Standardized_SMILES>  (342) 
C[C@H]1CN(CC2CCOCC2)CCN1C(=O)N1Cc2c(NC(=O)c3ccc(F)cn3)n[nH]c2C1(C)C

>  <Name>  (342) 
nan

>  <Pocket>  (342) 
nan

>  <ATP_Site>  (342) 
nan

>  <Peripheral>  (342) 
nan

>  <Num_H_Atoms_ProtBoundConf>  (342) 
nan

>  <Num_Resolved_Atoms>  (342) 
nan

>  <Num_Not_Resolved_Atoms>  (342) 
nan

$$$$
CHEMBL862
     RDKit          3D

  0  0  0  0  0  0  0  0  0  0999 V3000
M  V30 BEGIN CTAB
M  V30 COUNTS 24 24 0 0 0
M  V30 BEGIN ATOM
M  V30 1 N 2.534473 -2.392830 -0.015566 0
M  V30 2 C 3.061991 -1.918428 1.029493 0
M  V30 3 N 4.276070 -2.556761 1.484442 0
M  V30 4 N 2.734759 -0.863155 1.901443 0
M  V30 5 C 1.616824 -0.074802 1.700773 0
M  V30 6 O 0.890765 -0.353308 0.672406 0
M  V30 7 C 0.624788 0.984294 1.933667 0
M  V30 8 C -0.445679 0.985462 0.901150 0
M  V30 9 C -1.338901 -0.063608 1.139725 0
M  V30 10 Cl -1.245371 -1.230409 2.453970 0
M  V30 11 C -2.430527 -0.255031 0.285463 0
M  V30 12 C -2.622645 0.589920 -0.788034 0
M  V30 13 C -1.734594 1.607458 -0.998289 0
M  V30 14 C -0.648839 1.821895 -0.173788 0
M  V30 15 Cl 0.562210 3.073966 -0.316593 0
M  V30 16 H 1.690183 -2.065246 -0.462338 0
M  V30 17 H 5.309133 -2.636043 1.368375 0
M  V30 18 H 3.999453 -3.211454 2.251141 0
M  V30 19 H 3.081548 -0.404559 2.755766 0
M  V30 20 H 0.204762 0.896158 2.969532 0
M  V30 21 H 1.175525 1.955126 1.915503 0
M  V30 22 H -3.159544 -1.052026 0.418289 0
M  V30 23 H -3.458109 0.464609 -1.465789 0
M  V30 24 H -1.826136 2.290520 -1.806727 0
M  V30 END ATOM
M  V30 BEGIN BOND
M  V30 1 2 1 2 CFG=2
M  V30 2 1 2 3
M  V30 3 1 2 4
M  V30 4 1 4 5
M  V30 5 2 5 6
M  V30 6 1 5 7
M  V30 7 1 7 8
M  V30 8 2 8 9
M  V30 9 1 9 10
M  V30 10 1 9 11
M  V30 11 2 11 12
M  V30 12 1 12 13
M  V30 13 2 13 14
M  V30 14 1 14 15
M  V30 15 1 14 8
M  V30 16 1 1 16
M  V30 17 1 3 17
M  V30 18 1 3 18
M  V30 19 1 4 19
M  V30 20 1 7 20
M  V30 21 1 7 21
M  V30 22 1 11 22
M  V30 23 1 12 23
M  V30 24 1 13 24
M  V30 END BOND
M  V30 END CTAB
M  END
>  <Dataset>  (343) 
ChEMBL_Kinases

>  <Ligand_Instance>  (343) 
nan

>  <PDB_ID>  (343) 
nan

>  <Standardized_SMILES>  (343) 
N=C(N)NC(=O)Cc1c(Cl)cccc1Cl

>  <Name>  (343) 
GUANFACINE

>  <Pocket>  (343) 
nan

>  <ATP_Site>  (343) 
nan

>  <Peripheral>  (343) 
nan

>  <Num_H_Atoms_ProtBoundConf>  (343) 
nan

>  <Num_Resolved_Atoms>  (343) 
nan

>  <Num_Not_Resolved_Atoms>  (343) 
nan

$$$$
CHEMBL3960003
     RDKit          3D

  0  0  0  0  0  0  0  0  0  0999 V3000
M  V30 BEGIN CTAB
M  V30 COUNTS 73 77 0 0 0
M  V30 BEGIN ATOM
M  V30 1 C 3.089299 5.624164 7.371379 0
M  V30 2 C 3.207879 4.754142 6.171874 0
M  V30 3 C 3.095826 3.371715 6.230158 0
M  V30 4 C 3.217053 2.629136 5.077865 0
M  V30 5 C 3.451743 3.212951 3.830698 0
M  V30 6 C 3.552725 2.258406 2.708561 0
M  V30 7 O 3.438480 0.992914 2.847821 0
M  V30 8 N 3.790207 2.758437 1.392162 0
M  V30 9 C 3.873678 1.767968 0.374320 0
M  V30 10 N 4.988251 1.123246 -0.053113 0
M  V30 11 N 4.664721 0.272978 -1.013891 0
M  V30 12 C 3.338558 0.327444 -1.250489 0
M  V30 13 C 2.829695 1.269660 -0.377656 0
M  V30 14 C 1.347983 1.322251 -0.647336 0
M  V30 15 N 1.113444 -0.062226 -1.003385 0
M  V30 16 C 0.119043 -0.802535 -0.375316 0
M  V30 17 O -0.297936 0.106812 0.381469 0
M  V30 18 N -0.700820 -1.904321 -0.056584 0
M  V30 19 C -1.715264 -1.676784 0.956631 0
M  V30 20 C -3.085162 -2.125931 0.427647 0
M  V30 21 N -3.024666 -3.503124 0.188275 0
M  V30 22 C -4.061570 -4.234825 -0.360747 0
M  V30 23 C -4.456737 -4.066508 -1.775566 0
M  V30 24 C -4.927528 -2.697698 -2.190253 0
M  V30 25 C -5.966376 -2.788555 -3.304331 0
M  V30 26 O -5.746901 -3.804337 -4.194527 0
M  V30 27 C -5.607323 -5.060171 -3.659490 0
M  V30 28 C -5.616946 -5.010721 -2.129632 0
M  V30 29 C -1.708509 -4.069974 0.125697 0
M  V30 30 C -0.687255 -3.241449 -0.593635 0 CFG=2
M  V30 31 C 0.655127 -3.929412 -0.482694 0
M  V30 32 C 2.132797 -0.131710 -2.000961 0
M  V30 33 C 1.937819 0.885745 -3.113793 0
M  V30 34 C 2.380511 -1.498985 -2.572547 0
M  V30 35 N 3.555215 4.539128 3.800107 0
M  V30 36 C 3.437351 5.262921 4.921557 0
M  V30 37 H 3.700700 5.194388 8.216271 0
M  V30 38 H 3.551405 6.605430 7.137485 0
M  V30 39 H 2.041545 5.758607 7.678917 0
M  V30 40 H 2.913089 2.893390 7.188045 0
M  V30 41 H 3.114415 1.543253 5.218281 0
M  V30 42 H 3.891877 3.791523 1.216821 0
M  V30 43 H 5.260842 -0.386017 -1.571103 0
M  V30 44 H 1.170953 1.980642 -1.521591 0
M  V30 45 H 0.800894 1.658302 0.248908 0
M  V30 46 H -1.511019 -2.265854 1.870354 0
M  V30 47 H -1.825039 -0.620414 1.258238 0
M  V30 48 H -3.412505 -1.496648 -0.395608 0
M  V30 49 H -3.771469 -1.928706 1.291326 0
M  V30 50 H -3.860812 -5.326903 -0.204228 0
M  V30 51 H -4.991330 -4.053445 0.272664 0
M  V30 52 H -3.646289 -4.331068 -2.496842 0
M  V30 53 H -5.441918 -2.139453 -1.378747 0
M  V30 54 H -4.114244 -2.066117 -2.579988 0
M  V30 55 H -6.987519 -2.812208 -2.853875 0
M  V30 56 H -5.920243 -1.838648 -3.862416 0
M  V30 57 H -4.552416 -5.381916 -3.910576 0
M  V30 58 H -6.252470 -5.832882 -4.074097 0
M  V30 59 H -5.395440 -6.006425 -1.755864 0
M  V30 60 H -6.577435 -4.589098 -1.756365 0
M  V30 61 H -1.766942 -5.096890 -0.271540 0
M  V30 62 H -1.344396 -4.182823 1.178588 0
M  V30 63 H -0.886907 -3.145198 -1.677745 0
M  V30 64 H 0.694679 -4.746204 -1.232840 0
M  V30 65 H 1.514793 -3.264941 -0.474714 0
M  V30 66 H 0.639509 -4.480629 0.505058 0
M  V30 67 H 2.564764 1.788927 -2.989382 0
M  V30 68 H 2.316791 0.402202 -4.058878 0
M  V30 69 H 0.872112 1.087950 -3.321041 0
M  V30 70 H 2.808372 -1.352329 -3.604975 0
M  V30 71 H 1.392879 -1.971909 -2.746521 0
M  V30 72 H 3.096761 -2.098854 -2.014244 0
M  V30 73 H 3.538333 6.334585 4.785076 0
M  V30 END ATOM
M  V30 BEGIN BOND
M  V30 1 1 1 2
M  V30 2 2 2 3
M  V30 3 1 3 4
M  V30 4 2 4 5
M  V30 5 1 5 6
M  V30 6 2 6 7
M  V30 7 1 6 8
M  V30 8 1 8 9
M  V30 9 2 9 10
M  V30 10 1 10 11
M  V30 11 1 11 12
M  V30 12 2 12 13
M  V30 13 1 13 14
M  V30 14 1 14 15
M  V30 15 1 15 16
M  V30 16 2 16 17
M  V30 17 1 16 18
M  V30 18 1 18 19
M  V30 19 1 19 20
M  V30 20 1 20 21
M  V30 21 1 21 22
M  V30 22 1 22 23
M  V30 23 1 23 24
M  V30 24 1 24 25
M  V30 25 1 25 26
M  V30 26 1 26 27
M  V30 27 1 27 28
M  V30 28 1 21 29
M  V30 29 1 29 30
M  V30 30 1 30 31
M  V30 31 1 15 32
M  V30 32 1 32 33
M  V30 33 1 32 34
M  V30 34 1 5 35
M  V30 35 2 35 36
M  V30 36 1 36 2
M  V30 37 1 13 9
M  V30 38 1 30 18
M  V30 39 1 32 12
M  V30 40 1 28 23
M  V30 41 1 1 37
M  V30 42 1 1 38
M  V30 43 1 1 39
M  V30 44 1 3 40
M  V30 45 1 4 41
M  V30 46 1 8 42
M  V30 47 1 11 43
M  V30 48 1 14 44
M  V30 49 1 14 45
M  V30 50 1 19 46
M  V30 51 1 19 47
M  V30 52 1 20 48
M  V30 53 1 20 49
M  V30 54 1 22 50
M  V30 55 1 22 51
M  V30 56 1 23 52
M  V30 57 1 24 53
M  V30 58 1 24 54
M  V30 59 1 25 55
M  V30 60 1 25 56
M  V30 61 1 27 57
M  V30 62 1 27 58
M  V30 63 1 28 59
M  V30 64 1 28 60
M  V30 65 1 29 61
M  V30 66 1 29 62
M  V30 67 1 30 63 CFG=3
M  V30 68 1 31 64
M  V30 69 1 31 65
M  V30 70 1 31 66
M  V30 71 1 33 67
M  V30 72 1 33 68
M  V30 73 1 33 69
M  V30 74 1 34 70
M  V30 75 1 34 71
M  V30 76 1 34 72
M  V30 77 1 36 73
M  V30 END BOND
M  V30 END CTAB
M  END
>  <Dataset>  (344) 
ChEMBL_Kinases

>  <Ligand_Instance>  (344) 
nan

>  <PDB_ID>  (344) 
nan

>  <Standardized_SMILES>  (344) 
Cc1ccc(C(=O)Nc2n[nH]c3c2CN(C(=O)N2CCN(CC4CCOCC4)C[C@@H]2C)C3(C)C)nc1

>  <Name>  (344) 
nan

>  <Pocket>  (344) 
nan

>  <ATP_Site>  (344) 
nan

>  <Peripheral>  (344) 
nan

>  <Num_H_Atoms_ProtBoundConf>  (344) 
nan

>  <Num_Resolved_Atoms>  (344) 
nan

>  <Num_Not_Resolved_Atoms>  (344) 
nan

$$$$
CHEMBL3959882
     RDKit          3D

  0  0  0  0  0  0  0  0  0  0999 V3000
M  V30 BEGIN CTAB
M  V30 COUNTS 62 67 0 0 0
M  V30 BEGIN ATOM
M  V30 1 C 7.543521 -0.488273 4.564887 0
M  V30 2 O 7.081189 0.756702 4.070884 0
M  V30 3 C 5.846134 0.906866 3.485290 0
M  V30 4 O 5.285165 -0.238134 3.499727 0
M  V30 5 N 5.269292 2.089717 2.954459 0
M  V30 6 C 3.964468 1.902522 2.415732 0
M  V30 7 N 3.493064 1.579680 1.191325 0
M  V30 8 C 2.144001 1.531404 1.219651 0
M  V30 9 C 1.182987 1.256195 0.266979 0
M  V30 10 C -0.161766 1.278641 0.578437 0
M  V30 11 C -1.215097 0.996530 -0.393949 0
M  V30 12 O -2.453913 1.007995 0.255112 0
M  V30 13 C -1.255802 2.032446 -1.444004 0
M  V30 14 C -1.373312 3.407562 -1.246158 0
M  V30 15 C -1.396046 4.238136 -2.352848 0
M  V30 16 C -1.307592 3.774499 -3.661110 0
M  V30 17 C -1.191953 2.399857 -3.812084 0
M  V30 18 C -1.165428 1.532610 -2.727610 0
M  V30 19 C -1.054939 0.076684 -2.573077 0
M  V30 20 O -0.957267 -0.644049 -3.593727 0
M  V30 21 N -1.087562 -0.209582 -1.155138 0
M  V30 22 C -0.987759 -1.610020 -0.818807 0
M  V30 23 C 0.278515 -2.067738 -0.636933 0
M  V30 24 C 0.401822 -3.406541 -0.314197 0
M  V30 25 C -0.700356 -4.225049 -0.185696 0
M  V30 26 C -1.967374 -3.760032 -0.369360 0
M  V30 27 N -3.152454 -4.535190 -0.257798 0
M  V30 28 C -4.513461 -4.061616 -0.424985 0
M  V30 29 C -5.353722 -4.814275 0.614175 0
M  V30 30 O -4.627621 -5.143604 1.740184 0
M  V30 31 C -3.643802 -6.096083 1.485340 0
M  V30 32 C -3.155973 -5.952295 0.046612 0
M  V30 33 C -2.090180 -2.425356 -0.691056 0
M  V30 34 C -0.475487 1.595454 1.908855 0
M  V30 35 C 0.462385 1.875184 2.883742 0
M  V30 36 C 1.800017 1.842398 2.531227 0
M  V30 37 N 2.911352 2.071300 3.270753 0
M  V30 38 H 7.727729 -1.191624 3.746768 0
M  V30 39 H 8.428034 -0.331639 5.216893 0
M  V30 40 H 6.753722 -0.961580 5.216636 0
M  V30 41 H 5.886402 2.927866 3.035944 0
M  V30 42 H 1.505861 1.019384 -0.741358 0
M  V30 43 H -3.176393 1.110395 -0.433251 0
M  V30 44 H -1.451519 3.906083 -0.273938 0
M  V30 45 H -1.486139 5.332240 -2.281310 0
M  V30 46 H -1.327476 4.442955 -4.512558 0
M  V30 47 H -1.118999 1.979623 -4.817588 0
M  V30 48 H 1.220394 -1.523102 -0.710414 0
M  V30 49 H 1.386048 -3.851891 -0.151952 0
M  V30 50 H -0.553826 -5.252283 0.065187 0
M  V30 51 H -4.917720 -4.357164 -1.426278 0
M  V30 52 H -4.642489 -2.984988 -0.310290 0
M  V30 53 H -6.143037 -4.097761 0.963654 0
M  V30 54 H -5.895777 -5.642054 0.149609 0
M  V30 55 H -3.986123 -7.136218 1.682920 0
M  V30 56 H -2.787276 -5.880487 2.142149 0
M  V30 57 H -3.850074 -6.510235 -0.647555 0
M  V30 58 H -2.192689 -6.448883 -0.056930 0
M  V30 59 H -3.016333 -1.901038 -0.869107 0
M  V30 60 H -1.527558 1.623452 2.193209 0
M  V30 61 H 0.114647 2.110196 3.890506 0
M  V30 62 H 2.874363 2.321968 4.287930 0
M  V30 END ATOM
M  V30 BEGIN BOND
M  V30 1 1 1 2
M  V30 2 1 2 3
M  V30 3 2 3 4
M  V30 4 1 3 5
M  V30 5 1 5 6
M  V30 6 2 6 7
M  V30 7 1 7 8
M  V30 8 2 8 9
M  V30 9 1 9 10
M  V30 10 1 10 11
M  V30 11 1 11 12
M  V30 12 1 11 13
M  V30 13 2 13 14
M  V30 14 1 14 15
M  V30 15 2 15 16
M  V30 16 1 16 17
M  V30 17 2 17 18
M  V30 18 1 18 19
M  V30 19 2 19 20
M  V30 20 1 19 21
M  V30 21 1 21 22
M  V30 22 2 22 23
M  V30 23 1 23 24
M  V30 24 2 24 25
M  V30 25 1 25 26
M  V30 26 1 26 27
M  V30 27 1 27 28
M  V30 28 1 28 29
M  V30 29 1 29 30
M  V30 30 1 30 31
M  V30 31 1 31 32
M  V30 32 2 26 33
M  V30 33 2 10 34
M  V30 34 1 34 35
M  V30 35 2 35 36
M  V30 36 1 36 37
M  V30 37 1 37 6
M  V30 38 1 36 8
M  V30 39 1 21 11
M  V30 40 1 33 22
M  V30 41 1 18 13
M  V30 42 1 32 27
M  V30 43 1 1 38
M  V30 44 1 1 39
M  V30 45 1 1 40
M  V30 46 1 5 41
M  V30 47 1 9 42
M  V30 48 1 12 43
M  V30 49 1 14 44
M  V30 50 1 15 45
M  V30 51 1 16 46
M  V30 52 1 17 47
M  V30 53 1 23 48
M  V30 54 1 24 49
M  V30 55 1 25 50
M  V30 56 1 28 51
M  V30 57 1 28 52
M  V30 58 1 29 53
M  V30 59 1 29 54
M  V30 60 1 31 55
M  V30 61 1 31 56
M  V30 62 1 32 57
M  V30 63 1 32 58
M  V30 64 1 33 59
M  V30 65 1 34 60
M  V30 66 1 35 61
M  V30 67 1 37 62
M  V30 END BOND
M  V30 END CTAB
M  END
>  <Dataset>  (345) 
ChEMBL_Kinases

>  <Ligand_Instance>  (345) 
nan

>  <PDB_ID>  (345) 
nan

>  <Standardized_SMILES>  (345) 
COC(=O)Nc1nc2cc(C3(O)c4ccccc4C(=O)N3c3cccc(N4CCOCC4)c3)ccc2[nH]1

>  <Name>  (345) 
nan

>  <Pocket>  (345) 
nan

>  <ATP_Site>  (345) 
nan

>  <Peripheral>  (345) 
nan

>  <Num_H_Atoms_ProtBoundConf>  (345) 
nan

>  <Num_Resolved_Atoms>  (345) 
nan

>  <Num_Not_Resolved_Atoms>  (345) 
nan

$$$$
CHEMBL3702046
     RDKit          3D

  0  0  0  0  0  0  0  0  0  0999 V3000
M  V30 BEGIN CTAB
M  V30 COUNTS 66 71 0 0 0
M  V30 BEGIN ATOM
M  V30 1 C 6.242636 1.429270 3.797889 0
M  V30 2 C 4.997410 2.201094 4.254328 0
M  V30 3 C 3.867234 1.219093 4.231169 0
M  V30 4 N 4.849355 3.328823 3.393600 0
M  V30 5 C 3.746298 4.186979 3.649635 0
M  V30 6 C 2.475879 3.833156 2.921779 0
M  V30 7 N 2.737267 3.212745 1.639406 0
M  V30 8 C 1.903647 2.267148 0.996685 0
M  V30 9 C 0.735321 1.845344 1.587876 0
M  V30 10 C -0.005931 0.917089 0.880353 0
M  V30 11 C 0.303119 0.375484 -0.346805 0
M  V30 12 N -0.454060 -0.577892 -1.069657 0
M  V30 13 C -1.680137 -1.200094 -0.717537 0
M  V30 14 N -2.335760 -0.967198 0.428180 0
M  V30 15 C -3.488041 -1.536550 0.784822 0
M  V30 16 C -4.078971 -2.431413 -0.053211 0
M  V30 17 C -5.208108 -3.202598 -0.066090 0
M  V30 18 C -6.205896 -3.306794 0.901091 0
M  V30 19 C -7.253288 -4.171570 0.635839 0
M  V30 20 N -7.261585 -4.861850 -0.524517 0
M  V30 21 C -6.294859 -4.747508 -1.438759 0
M  V30 22 C -5.208965 -3.909321 -1.262839 0
M  V30 23 N -4.098414 -3.555482 -1.935669 0
M  V30 24 C -3.858959 -4.151534 -3.219443 0
M  V30 25 C -2.673573 -3.623998 -3.934485 0
M  V30 26 C -1.480239 -4.440598 -3.496865 0
M  V30 27 C -2.021124 -5.389146 -2.444982 0
M  V30 28 C -3.453872 -5.603197 -2.954624 0
M  V30 29 C -3.391391 -2.657674 -1.224522 0
M  V30 30 N -2.247190 -2.066053 -1.534266 0
M  V30 31 N 1.457954 0.839607 -0.854588 0
M  V30 32 C 2.233558 1.740134 -0.229931 0
M  V30 33 C 3.998503 3.760865 1.193597 0
M  V30 34 C 5.067626 3.071746 2.013171 0
M  V30 35 H 6.954319 2.172689 3.407976 0
M  V30 36 H 5.984040 0.705622 3.000579 0
M  V30 37 H 6.717550 0.921630 4.659006 0
M  V30 38 H 5.218777 2.531597 5.290568 0
M  V30 39 H 3.032115 1.467211 4.911362 0
M  V30 40 H 3.508504 1.032364 3.215126 0
M  V30 41 H 4.284213 0.245987 4.591175 0
M  V30 42 H 4.024564 5.226248 3.402105 0
M  V30 43 H 3.482443 4.192260 4.737844 0
M  V30 44 H 1.886044 4.767871 2.811977 0
M  V30 45 H 1.928604 3.089480 3.534986 0
M  V30 46 H 0.395686 2.204070 2.547757 0
M  V30 47 H -0.917761 0.601448 1.363023 0
M  V30 48 H -0.039543 -0.863353 -2.006738 0
M  V30 49 H -3.952143 -1.292654 1.731288 0
M  V30 50 H -6.125977 -2.711707 1.818299 0
M  V30 51 H -8.018214 -4.235473 1.404416 0
M  V30 52 H -6.346522 -5.314493 -2.341234 0
M  V30 53 H -4.780438 -4.171578 -3.827699 0
M  V30 54 H -2.510622 -2.540528 -3.852031 0
M  V30 55 H -2.818974 -3.828403 -5.026976 0
M  V30 56 H -1.091940 -5.088580 -4.311853 0
M  V30 57 H -0.639713 -3.821104 -3.140620 0
M  V30 58 H -2.058529 -4.873397 -1.485389 0
M  V30 59 H -1.481207 -6.354508 -2.446185 0
M  V30 60 H -3.380777 -6.181550 -3.883886 0
M  V30 61 H -4.078891 -6.075843 -2.175427 0
M  V30 62 H 3.128190 2.012680 -0.766221 0
M  V30 63 H 4.226374 3.464357 0.132489 0
M  V30 64 H 4.051767 4.866587 1.228050 0
M  V30 65 H 5.013794 1.987112 1.725596 0
M  V30 66 H 6.045608 3.461549 1.667244 0
M  V30 END ATOM
M  V30 BEGIN BOND
M  V30 1 1 1 2
M  V30 2 1 2 3
M  V30 3 1 2 4
M  V30 4 1 4 5
M  V30 5 1 5 6
M  V30 6 1 6 7
M  V30 7 1 7 8
M  V30 8 2 8 9
M  V30 9 1 9 10
M  V30 10 2 10 11
M  V30 11 1 11 12
M  V30 12 1 12 13
M  V30 13 2 13 14
M  V30 14 1 14 15
M  V30 15 2 15 16
M  V30 16 1 16 17
M  V30 17 2 17 18
M  V30 18 1 18 19
M  V30 19 2 19 20
M  V30 20 1 20 21
M  V30 21 2 21 22
M  V30 22 1 22 23
M  V30 23 1 23 24
M  V30 24 1 24 25
M  V30 25 1 25 26
M  V30 26 1 26 27
M  V30 27 1 27 28
M  V30 28 1 23 29
M  V30 29 2 29 30
M  V30 30 1 11 31
M  V30 31 2 31 32
M  V30 32 1 7 33
M  V30 33 1 33 34
M  V30 34 1 34 4
M  V30 35 1 32 8
M  V30 36 1 30 13
M  V30 37 1 29 16
M  V30 38 1 22 17
M  V30 39 1 28 24
M  V30 40 1 1 35
M  V30 41 1 1 36
M  V30 42 1 1 37
M  V30 43 1 2 38
M  V30 44 1 3 39
M  V30 45 1 3 40
M  V30 46 1 3 41
M  V30 47 1 5 42
M  V30 48 1 5 43
M  V30 49 1 6 44
M  V30 50 1 6 45
M  V30 51 1 9 46
M  V30 52 1 10 47
M  V30 53 1 12 48
M  V30 54 1 15 49
M  V30 55 1 18 50
M  V30 56 1 19 51
M  V30 57 1 21 52
M  V30 58 1 24 53
M  V30 59 1 25 54
M  V30 60 1 25 55
M  V30 61 1 26 56
M  V30 62 1 26 57
M  V30 63 1 27 58
M  V30 64 1 27 59
M  V30 65 1 28 60
M  V30 66 1 28 61
M  V30 67 1 32 62
M  V30 68 1 33 63
M  V30 69 1 33 64
M  V30 70 1 34 65
M  V30 71 1 34 66
M  V30 END BOND
M  V30 END CTAB
M  END
>  <Dataset>  (346) 
ChEMBL_Kinases

>  <Ligand_Instance>  (346) 
nan

>  <PDB_ID>  (346) 
nan

>  <Standardized_SMILES>  (346) 
CC(C)N1CCN(c2ccc(Nc3ncc4c5ccncc5n(C5CCCC5)c4n3)nc2)CC1

>  <Name>  (346) 
nan

>  <Pocket>  (346) 
nan

>  <ATP_Site>  (346) 
nan

>  <Peripheral>  (346) 
nan

>  <Num_H_Atoms_ProtBoundConf>  (346) 
nan

>  <Num_Resolved_Atoms>  (346) 
nan

>  <Num_Not_Resolved_Atoms>  (346) 
nan

$$$$
CHEMBL86066
     RDKit          3D

  0  0  0  0  0  0  0  0  0  0999 V3000
M  V30 BEGIN CTAB
M  V30 COUNTS 46 48 0 0 0
M  V30 BEGIN ATOM
M  V30 1 C -0.171126 -5.430382 0.882654 0
M  V30 2 C 0.680647 -4.842644 1.982773 0
M  V30 3 C -0.261870 -4.212452 3.010162 0
M  V30 4 N 1.537139 -3.762927 1.478788 0
M  V30 5 C 2.864978 -3.552103 1.442506 0
M  V30 6 N 3.066111 -2.375122 0.853761 0
M  V30 7 C 1.863060 -1.826322 0.510592 0
M  V30 8 C 1.579467 -0.624755 -0.120286 0
M  V30 9 N 2.566836 0.294652 -0.542431 0
M  V30 10 C 2.436972 1.551193 -1.189717 0
M  V30 11 C 1.745451 2.608892 -0.456555 0
M  V30 12 C 0.405303 2.936821 -0.450298 0
M  V30 13 C -0.087577 3.969083 0.295775 0
M  V30 14 C 0.728764 4.767332 1.105640 0
M  V30 15 C 2.088447 4.494730 1.147813 0
M  V30 16 C 2.522140 3.436754 0.369807 0
M  V30 17 N 0.292216 -0.313210 -0.350723 0
M  V30 18 C -0.696352 -1.158921 0.027022 0
M  V30 19 N -2.110718 -1.146188 -0.072163 0
M  V30 20 C -3.064239 -0.486750 0.814758 0
M  V30 21 C -2.952334 1.020681 0.769685 0
M  V30 22 O -3.901029 1.526707 1.647828 0
M  V30 23 N -0.379988 -2.331561 0.644913 0
M  V30 24 C 0.891899 -2.708379 0.907898 0
M  V30 25 H -1.160811 -5.720338 1.346475 0
M  V30 26 H -0.382905 -4.727291 0.063900 0
M  V30 27 H 0.233105 -6.391846 0.507857 0
M  V30 28 H 1.299988 -5.600936 2.457010 0
M  V30 29 H 0.284366 -3.471204 3.626844 0
M  V30 30 H -1.124292 -3.742941 2.514328 0
M  V30 31 H -0.665955 -5.008064 3.673681 0
M  V30 32 H 3.532786 -4.293145 1.855077 0
M  V30 33 H 3.555731 -0.042657 -0.321282 0
M  V30 34 H 3.461007 1.949233 -1.458228 0
M  V30 35 H 1.896616 1.431914 -2.165763 0
M  V30 36 H -0.217402 2.326540 -1.075513 0
M  V30 37 H -1.141254 4.230097 0.303216 0
M  V30 38 H 0.376991 5.578947 1.700288 0
M  V30 39 H 2.787728 5.055399 1.742418 0
M  V30 40 H 3.597391 3.242211 0.421081 0
M  V30 41 H -2.426823 -1.706366 -0.917848 0
M  V30 42 H -2.853773 -0.780740 1.888685 0
M  V30 43 H -4.063006 -0.877937 0.576061 0
M  V30 44 H -1.953310 1.365917 1.097589 0
M  V30 45 H -3.099421 1.402262 -0.267504 0
M  V30 46 H -4.692660 0.899345 1.609327 0
M  V30 END ATOM
M  V30 BEGIN BOND
M  V30 1 1 1 2
M  V30 2 1 2 3
M  V30 3 1 2 4
M  V30 4 1 4 5
M  V30 5 2 5 6
M  V30 6 1 6 7
M  V30 7 2 7 8
M  V30 8 1 8 9
M  V30 9 1 9 10
M  V30 10 1 10 11
M  V30 11 2 11 12
M  V30 12 1 12 13
M  V30 13 2 13 14
M  V30 14 1 14 15
M  V30 15 2 15 16
M  V30 16 1 8 17
M  V30 17 2 17 18
M  V30 18 1 18 19
M  V30 19 1 19 20
M  V30 20 1 20 21
M  V30 21 1 21 22
M  V30 22 1 18 23
M  V30 23 2 23 24
M  V30 24 1 24 4
M  V30 25 1 24 7
M  V30 26 1 16 11
M  V30 27 1 1 25
M  V30 28 1 1 26
M  V30 29 1 1 27
M  V30 30 1 2 28
M  V30 31 1 3 29
M  V30 32 1 3 30
M  V30 33 1 3 31
M  V30 34 1 5 32
M  V30 35 1 9 33
M  V30 36 1 10 34
M  V30 37 1 10 35
M  V30 38 1 12 36
M  V30 39 1 13 37
M  V30 40 1 14 38
M  V30 41 1 15 39
M  V30 42 1 16 40
M  V30 43 1 19 41
M  V30 44 1 20 42
M  V30 45 1 20 43
M  V30 46 1 21 44
M  V30 47 1 21 45
M  V30 48 1 22 46
M  V30 END BOND
M  V30 END CTAB
M  END
>  <Dataset>  (347) 
ChEMBL_Kinases

>  <Ligand_Instance>  (347) 
nan

>  <PDB_ID>  (347) 
nan

>  <Standardized_SMILES>  (347) 
CC(C)n1cnc2c(NCc3ccccc3)nc(NCCO)nc21

>  <Name>  (347) 
nan

>  <Pocket>  (347) 
nan

>  <ATP_Site>  (347) 
nan

>  <Peripheral>  (347) 
nan

>  <Num_H_Atoms_ProtBoundConf>  (347) 
nan

>  <Num_Resolved_Atoms>  (347) 
nan

>  <Num_Not_Resolved_Atoms>  (347) 
nan

$$$$
CHEMBL3959716
     RDKit          3D

  0  0  0  0  0  0  0  0  0  0999 V3000
M  V30 BEGIN CTAB
M  V30 COUNTS 61 65 0 0 0
M  V30 BEGIN ATOM
M  V30 1 O 2.647072 1.391496 0.867501 0
M  V30 2 C 3.359693 0.770461 1.728824 0
M  V30 3 C 4.749753 1.138046 1.996372 0
M  V30 4 C 5.313650 2.265173 1.217701 0
M  V30 5 O 4.599201 3.430314 1.434222 0
M  V30 6 C 6.703697 2.538287 1.818796 0
M  V30 7 F 7.339824 3.569332 1.181944 0
M  V30 8 F 6.575234 2.739407 3.172275 0
M  V30 9 F 7.441866 1.388357 1.621410 0
M  V30 10 C 5.558167 1.993384 -0.239661 0
M  V30 11 F 6.447589 0.954388 -0.435539 0
M  V30 12 F 6.197172 3.114930 -0.787838 0
M  V30 13 F 4.440073 1.715396 -0.961643 0
M  V30 14 N 2.812888 -0.321664 2.472174 0
M  V30 15 C 1.448223 -0.640963 2.176144 0
M  V30 16 N 0.879733 -1.472884 1.276980 0
M  V30 17 C -0.470239 -1.411978 1.395265 0
M  V30 18 C -1.508519 -2.043109 0.731392 0
M  V30 19 C -2.816592 -1.727299 1.125080 0
M  V30 20 C -3.839119 -2.475250 0.315406 0
M  V30 21 O -5.135023 -2.143472 0.701028 0
M  V30 22 C -3.583885 -3.932733 0.458697 0
M  V30 23 C -3.637286 -4.674854 1.594420 0
M  V30 24 C -3.357859 -6.029143 1.577419 0
M  V30 25 C -3.011098 -6.699205 0.413199 0
M  V30 26 C -2.967549 -5.911374 -0.721495 0
M  V30 27 C -3.243710 -4.560259 -0.720871 0
M  V30 28 C -3.287522 -3.523730 -1.746609 0
M  V30 29 O -3.049795 -3.644635 -2.953113 0
M  V30 30 N -3.667591 -2.282935 -1.109554 0
M  V30 31 C -3.853943 -1.047085 -1.805102 0
M  V30 32 C -2.640103 -0.238499 -1.903107 0
M  V30 33 C -2.200911 0.753780 -1.016944 0
M  V30 34 C -1.030817 1.448331 -1.220474 0
M  V30 35 C -0.218603 1.210882 -2.308433 0
M  V30 36 C -0.608483 0.242948 -3.209410 0
M  V30 37 C -1.785042 -0.443081 -2.988501 0
M  V30 38 C -3.065394 -0.821466 2.137497 0
M  V30 39 C -2.008146 -0.208351 2.781306 0
M  V30 40 C -0.706142 -0.500485 2.413073 0
M  V30 41 N 0.459983 -0.026866 2.893364 0
M  V30 42 H 5.401007 0.230963 1.833461 0
M  V30 43 H 4.856788 1.403764 3.077853 0
M  V30 44 H 4.954938 3.968798 2.189807 0
M  V30 45 H 3.383111 -0.826761 3.168529 0
M  V30 46 H -1.203800 -2.722035 -0.030380 0
M  V30 47 H -5.212049 -1.164241 0.662454 0
M  V30 48 H -3.899767 -4.243141 2.559762 0
M  V30 49 H -3.396656 -6.635287 2.479934 0
M  V30 50 H -2.784812 -7.754273 0.353034 0
M  V30 51 H -2.708293 -6.320389 -1.697587 0
M  V30 52 H -4.651464 -0.412068 -1.362720 0
M  V30 53 H -4.177616 -1.296102 -2.856326 0
M  V30 54 H -2.854284 0.923356 -0.170609 0
M  V30 55 H -0.757177 2.207635 -0.482462 0
M  V30 56 H 0.683206 1.765929 -2.438289 0
M  V30 57 H 0.006665 0.032775 -4.072628 0
M  V30 58 H -2.055152 -1.194788 -3.719945 0
M  V30 59 H -4.129636 -0.671906 2.338055 0
M  V30 60 H -2.292736 0.492289 3.566491 0
M  V30 61 H 0.529466 0.671275 3.663802 0
M  V30 END ATOM
M  V30 BEGIN BOND
M  V30 1 2 1 2
M  V30 2 1 2 3
M  V30 3 1 3 4
M  V30 4 1 4 5
M  V30 5 1 4 6
M  V30 6 1 6 7
M  V30 7 1 6 8
M  V30 8 1 6 9
M  V30 9 1 4 10
M  V30 10 1 10 11
M  V30 11 1 10 12
M  V30 12 1 10 13
M  V30 13 1 2 14
M  V30 14 1 14 15
M  V30 15 2 15 16
M  V30 16 1 16 17
M  V30 17 2 17 18
M  V30 18 1 18 19
M  V30 19 1 19 20
M  V30 20 1 20 21
M  V30 21 1 20 22
M  V30 22 2 22 23
M  V30 23 1 23 24
M  V30 24 2 24 25
M  V30 25 1 25 26
M  V30 26 2 26 27
M  V30 27 1 27 28
M  V30 28 2 28 29
M  V30 29 1 28 30
M  V30 30 1 30 31
M  V30 31 1 31 32
M  V30 32 2 32 33
M  V30 33 1 33 34
M  V30 34 2 34 35
M  V30 35 1 35 36
M  V30 36 2 36 37
M  V30 37 2 19 38
M  V30 38 1 38 39
M  V30 39 2 39 40
M  V30 40 1 40 41
M  V30 41 1 41 15
M  V30 42 1 40 17
M  V30 43 1 30 20
M  V30 44 1 37 32
M  V30 45 1 27 22
M  V30 46 1 3 42
M  V30 47 1 3 43
M  V30 48 1 5 44
M  V30 49 1 14 45
M  V30 50 1 18 46
M  V30 51 1 21 47
M  V30 52 1 23 48
M  V30 53 1 24 49
M  V30 54 1 25 50
M  V30 55 1 26 51
M  V30 56 1 31 52
M  V30 57 1 31 53
M  V30 58 1 33 54
M  V30 59 1 34 55
M  V30 60 1 35 56
M  V30 61 1 36 57
M  V30 62 1 37 58
M  V30 63 1 38 59
M  V30 64 1 39 60
M  V30 65 1 41 61
M  V30 END BOND
M  V30 END CTAB
M  END
>  <Dataset>  (348) 
ChEMBL_Kinases

>  <Ligand_Instance>  (348) 
nan

>  <PDB_ID>  (348) 
nan

>  <Standardized_SMILES>  (348) 
O=C(CC(O)(C(F)(F)F)C(F)(F)F)Nc1nc2cc(C3(O)c4ccccc4C(=O)N3Cc3ccccc3)ccc2[nH]1

>  <Name>  (348) 
nan

>  <Pocket>  (348) 
nan

>  <ATP_Site>  (348) 
nan

>  <Peripheral>  (348) 
nan

>  <Num_H_Atoms_ProtBoundConf>  (348) 
nan

>  <Num_Resolved_Atoms>  (348) 
nan

>  <Num_Not_Resolved_Atoms>  (348) 
nan

$$$$
CHEMBL395969
     RDKit          3D

  0  0  0  0  0  0  0  0  0  0999 V3000
M  V30 BEGIN CTAB
M  V30 COUNTS 48 51 0 0 0
M  V30 BEGIN ATOM
M  V30 1 C 2.694037 -4.124059 5.590807 0
M  V30 2 C 3.519055 -3.305697 4.667196 0
M  V30 3 O 4.733314 -3.156484 4.939972 0
M  V30 4 N 3.010103 -2.687415 3.499564 0
M  V30 5 C 3.676043 -1.885985 2.542015 0
M  V30 6 C 4.992933 -1.486641 2.554793 0
M  V30 7 C 5.566280 -0.713180 1.577155 0
M  V30 8 C 4.818842 -0.293553 0.508946 0
M  V30 9 C 3.499106 -0.679790 0.472139 0
M  V30 10 N 2.678895 -0.262478 -0.634662 0
M  V30 11 C 1.310238 -0.653258 -0.819343 0
M  V30 12 N 0.306278 0.049784 -0.236062 0
M  V30 13 C -1.005746 -0.297391 -0.398697 0
M  V30 14 N -2.095676 0.388610 0.196412 0
M  V30 15 C -2.795835 1.554199 -0.119304 0
M  V30 16 C -2.491108 2.416985 -1.136850 0
M  V30 17 C -3.189008 3.576320 -1.443137 0
M  V30 18 C -4.266071 3.798378 -0.598656 0
M  V30 19 C -4.626741 2.970383 0.443338 0
M  V30 20 C -5.779285 3.295740 1.271656 0
M  V30 21 O -6.460771 4.338910 1.054822 0
M  V30 22 O -6.161035 2.463610 2.326365 0
M  V30 23 C -3.883543 1.840404 0.682929 0
M  V30 24 N -1.275825 -1.383321 -1.173527 0
M  V30 25 N -2.424973 -1.929824 -1.493415 0
M  V30 26 C -2.210119 -3.000349 -2.289473 0
M  V30 27 C -0.849670 -3.141113 -2.486729 0
M  V30 28 C -0.209879 -4.149640 -3.268400 0
M  V30 29 N 0.293881 -4.977128 -3.894408 0
M  V30 30 C -0.302022 -2.101183 -1.765556 0
M  V30 31 N 0.988778 -1.736797 -1.589307 0
M  V30 32 C 2.960662 -1.445882 1.456263 0
M  V30 33 H 2.757783 -3.774675 6.642269 0
M  V30 34 H 1.620436 -4.035044 5.308238 0
M  V30 35 H 2.951913 -5.213745 5.507079 0
M  V30 36 H 1.994932 -2.881883 3.378567 0
M  V30 37 H 5.620128 -1.789464 3.367139 0
M  V30 38 H 6.607159 -0.432298 1.641776 0
M  V30 39 H 5.243620 0.318785 -0.282684 0
M  V30 40 H 3.052481 0.351488 -1.365214 0
M  V30 41 H -2.283416 -0.225564 1.003171 0
M  V30 42 H -1.628612 2.120997 -1.714162 0
M  V30 43 H -2.903619 4.221418 -2.258927 0
M  V30 44 H -4.827724 4.718101 -0.835277 0
M  V30 45 H -7.169808 2.287414 2.475672 0
M  V30 46 H -4.190222 1.202031 1.511644 0
M  V30 47 H -3.026893 -3.606641 -2.674709 0
M  V30 48 H 1.904728 -1.710285 1.353297 0
M  V30 END ATOM
M  V30 BEGIN BOND
M  V30 1 1 1 2
M  V30 2 2 2 3
M  V30 3 1 2 4
M  V30 4 1 4 5
M  V30 5 2 5 6
M  V30 6 1 6 7
M  V30 7 2 7 8
M  V30 8 1 8 9
M  V30 9 1 9 10
M  V30 10 1 10 11
M  V30 11 1 11 12
M  V30 12 2 12 13
M  V30 13 1 13 14
M  V30 14 1 14 15
M  V30 15 2 15 16
M  V30 16 1 16 17
M  V30 17 2 17 18
M  V30 18 1 18 19
M  V30 19 1 19 20
M  V30 20 2 20 21
M  V30 21 1 20 22
M  V30 22 2 19 23
M  V30 23 1 13 24
M  V30 24 1 24 25
M  V30 25 2 25 26
M  V30 26 1 26 27
M  V30 27 1 27 28
M  V30 28 3 28 29
M  V30 29 2 27 30
M  V30 30 1 30 31
M  V30 31 2 9 32
M  V30 32 1 32 5
M  V30 33 2 31 11
M  V30 34 1 23 15
M  V30 35 1 30 24
M  V30 36 1 1 33
M  V30 37 1 1 34
M  V30 38 1 1 35
M  V30 39 1 4 36
M  V30 40 1 6 37
M  V30 41 1 7 38
M  V30 42 1 8 39
M  V30 43 1 10 40
M  V30 44 1 14 41
M  V30 45 1 16 42
M  V30 46 1 17 43
M  V30 47 1 18 44
M  V30 48 1 22 45
M  V30 49 1 23 46
M  V30 50 1 26 47
M  V30 51 1 32 48
M  V30 END BOND
M  V30 END CTAB
M  END
>  <Dataset>  (349) 
ChEMBL_Kinases

>  <Ligand_Instance>  (349) 
nan

>  <PDB_ID>  (349) 
nan

>  <Standardized_SMILES>  (349) 
CC(=O)Nc1cccc(Nc2nc(Nc3cccc(C(=O)O)c3)n3ncc(C#N)c3n2)c1

>  <Name>  (349) 
nan

>  <Pocket>  (349) 
nan

>  <ATP_Site>  (349) 
nan

>  <Peripheral>  (349) 
nan

>  <Num_H_Atoms_ProtBoundConf>  (349) 
nan

>  <Num_Resolved_Atoms>  (349) 
nan

>  <Num_Not_Resolved_Atoms>  (349) 
nan

$$$$
CHEMBL85860
     RDKit          3D

  0  0  0  0  0  0  0  0  0  0999 V3000
M  V30 BEGIN CTAB
M  V30 COUNTS 47 49 0 0 0
M  V30 BEGIN ATOM
M  V30 1 C 1.603630 -4.690963 1.310546 0
M  V30 2 C 1.233930 -3.979831 0.039473 0
M  V30 3 C 0.523941 -5.001086 -0.850769 0
M  V30 4 C 2.429326 -3.449304 -0.717241 0
M  V30 5 C 0.322948 -2.827016 0.285564 0
M  V30 6 C 0.695093 -1.505638 0.543466 0
M  V30 7 C -0.439503 -0.750147 0.713888 0
M  V30 8 N -0.540578 0.617139 0.989042 0
M  V30 9 C 0.538727 1.526555 1.152584 0
M  V30 10 O 1.705911 1.072395 1.041971 0
M  V30 11 N 0.401156 2.912306 1.432012 0
M  V30 12 C 1.659478 3.599340 1.548055 0
M  V30 13 C 2.301150 4.188093 0.469415 0
M  V30 14 C 3.497655 4.798763 0.783163 0
M  V30 15 C 4.021131 4.827833 2.056807 0
M  V30 16 Cl 5.549051 5.620795 2.394728 0
M  V30 17 C 3.367059 4.240245 3.096438 0
M  V30 18 C 2.171548 3.620407 2.829123 0
M  V30 19 N -1.462026 -1.578501 0.565671 0
M  V30 20 C -2.863387 -1.336419 0.637969 0
M  V30 21 C -3.572493 -0.602384 -0.290360 0
M  V30 22 C -4.933339 -0.386005 -0.190615 0
M  V30 23 C -5.644241 -0.913849 0.872710 0
M  V30 24 C -4.926536 -1.648739 1.799595 0
M  V30 25 C -3.567423 -1.877576 1.720072 0
M  V30 26 N -1.029882 -2.803961 0.313239 0
M  V30 27 H 1.525466 -5.797266 1.214100 0
M  V30 28 H 2.695175 -4.495579 1.487159 0
M  V30 29 H 1.005248 -4.394686 2.184101 0
M  V30 30 H -0.172057 -4.474566 -1.518454 0
M  V30 31 H 1.284325 -5.577034 -1.384231 0
M  V30 32 H -0.102835 -5.639537 -0.170440 0
M  V30 33 H 3.207108 -3.246979 0.034489 0
M  V30 34 H 2.135248 -2.522694 -1.268850 0
M  V30 35 H 2.714089 -4.186045 -1.479446 0
M  V30 36 H 1.715640 -1.211955 0.584799 0
M  V30 37 H -1.456316 1.102922 1.101719 0
M  V30 38 H -0.573571 3.282227 1.522512 0
M  V30 39 H 1.847260 4.135161 -0.502593 0
M  V30 40 H 4.039127 5.274628 -0.027070 0
M  V30 41 H 3.763946 4.257014 4.087276 0
M  V30 42 H 1.666490 3.157478 3.675825 0
M  V30 43 H -2.997978 -0.199801 -1.111829 0
M  V30 44 H -5.450082 0.190344 -0.932484 0
M  V30 45 H -6.709819 -0.743251 0.948974 0
M  V30 46 H -5.512174 -2.054402 2.629544 0
M  V30 47 H -3.076529 -2.472702 2.499953 0
M  V30 END ATOM
M  V30 BEGIN BOND
M  V30 1 1 1 2
M  V30 2 1 2 3
M  V30 3 1 2 4
M  V30 4 1 2 5
M  V30 5 1 5 6
M  V30 6 2 6 7
M  V30 7 1 7 8
M  V30 8 1 8 9
M  V30 9 2 9 10
M  V30 10 1 9 11
M  V30 11 1 11 12
M  V30 12 2 12 13
M  V30 13 1 13 14
M  V30 14 2 14 15
M  V30 15 1 15 16
M  V30 16 1 15 17
M  V30 17 2 17 18
M  V30 18 1 7 19
M  V30 19 1 19 20
M  V30 20 2 20 21
M  V30 21 1 21 22
M  V30 22 2 22 23
M  V30 23 1 23 24
M  V30 24 2 24 25
M  V30 25 1 19 26
M  V30 26 2 26 5
M  V30 27 1 18 12
M  V30 28 1 25 20
M  V30 29 1 1 27
M  V30 30 1 1 28
M  V30 31 1 1 29
M  V30 32 1 3 30
M  V30 33 1 3 31
M  V30 34 1 3 32
M  V30 35 1 4 33
M  V30 36 1 4 34
M  V30 37 1 4 35
M  V30 38 1 6 36
M  V30 39 1 8 37
M  V30 40 1 11 38
M  V30 41 1 13 39
M  V30 42 1 14 40
M  V30 43 1 17 41
M  V30 44 1 18 42
M  V30 45 1 21 43
M  V30 46 1 22 44
M  V30 47 1 23 45
M  V30 48 1 24 46
M  V30 49 1 25 47
M  V30 END BOND
M  V30 END CTAB
M  END
>  <Dataset>  (350) 
ChEMBL_Kinases

>  <Ligand_Instance>  (350) 
nan

>  <PDB_ID>  (350) 
nan

>  <Standardized_SMILES>  (350) 
CC(C)(C)c1cc(NC(=O)Nc2ccc(Cl)cc2)n(-c2ccccc2)n1

>  <Name>  (350) 
nan

>  <Pocket>  (350) 
nan

>  <ATP_Site>  (350) 
nan

>  <Peripheral>  (350) 
nan

>  <Num_H_Atoms_ProtBoundConf>  (350) 
nan

>  <Num_Resolved_Atoms>  (350) 
nan

>  <Num_Not_Resolved_Atoms>  (350) 
nan

$$$$
CHEMBL395968
     RDKit          3D

  0  0  0  0  0  0  0  0  0  0999 V3000
M  V30 BEGIN CTAB
M  V30 COUNTS 62 66 0 0 0
M  V30 BEGIN ATOM
M  V30 1 C 1.847026 -3.070149 5.736028 0
M  V30 2 C 2.841186 -2.150785 5.142108 0
M  V30 3 O 4.032468 -2.352059 5.483202 0
M  V30 4 N 2.588906 -1.102596 4.259344 0
M  V30 5 C 3.471812 -0.181736 3.651573 0
M  V30 6 C 4.831123 -0.127297 3.804678 0
M  V30 7 C 5.659565 0.792644 3.202173 0
M  V30 8 C 5.043338 1.715515 2.389971 0
M  V30 9 C 3.660928 1.737818 2.173345 0
M  V30 10 N 3.136467 2.739252 1.319149 0
M  V30 11 C 1.824272 2.898506 0.852047 0
M  V30 12 N 0.793024 2.101340 1.116731 0
M  V30 13 C -0.446544 2.277470 0.645670 0
M  V30 14 N -1.567680 1.447992 0.918457 0
M  V30 15 C -1.765681 0.077879 0.593629 0
M  V30 16 C -2.997504 -0.530545 0.836214 0
M  V30 17 C -3.084028 -1.864443 0.502686 0
M  V30 18 C -2.063774 -2.639741 -0.045412 0
M  V30 19 C -2.344688 -4.088373 -0.342510 0
M  V30 20 N -2.829105 -4.243504 -1.654977 0
M  V30 21 C -4.027775 -3.583157 -1.990618 0
M  V30 22 C -4.441675 -3.983550 -3.390710 0
M  V30 23 N -3.256435 -3.984246 -4.226985 0
M  V30 24 C -2.319728 -5.041533 -3.882500 0
M  V30 25 C -2.465141 -5.397153 -2.389714 0
M  V30 26 C -0.865130 -1.994158 -0.267133 0
M  V30 27 C -0.719922 -0.658068 0.047374 0
M  V30 28 N -0.704955 3.322445 -0.152961 0
M  V30 29 N -1.786248 3.778074 -0.771854 0
M  V30 30 C -1.495019 4.897047 -1.465113 0
M  V30 31 C -0.146981 5.195989 -1.294168 0
M  V30 32 C 0.680742 6.234053 -1.779050 0
M  V30 33 N 1.337386 7.079908 -2.161579 0
M  V30 34 C 0.295551 4.165413 -0.456905 0
M  V30 35 N 1.491204 3.908054 0.057105 0
M  V30 36 C 2.946762 0.780315 2.821324 0
M  V30 37 H 1.757662 -4.036091 5.234727 0
M  V30 38 H 2.051114 -3.126527 6.828657 0
M  V30 39 H 0.806870 -2.627133 5.689256 0
M  V30 40 H 1.557007 -1.050322 4.059873 0
M  V30 41 H 5.325003 -0.844418 4.438959 0
M  V30 42 H 6.728586 0.790092 3.357275 0
M  V30 43 H 5.709553 2.451529 1.909934 0
M  V30 44 H 3.821921 3.472433 0.984223 0
M  V30 45 H -2.321076 1.972246 1.429378 0
M  V30 46 H -3.793026 0.039192 1.253100 0
M  V30 47 H -4.066322 -2.300165 0.706323 0
M  V30 48 H -3.098296 -4.411306 0.430614 0
M  V30 49 H -1.459998 -4.730576 -0.180508 0
M  V30 50 H -3.853211 -2.465544 -1.981793 0
M  V30 51 H -4.812513 -3.809416 -1.245728 0
M  V30 52 H -4.901646 -4.974337 -3.394854 0
M  V30 53 H -5.103344 -3.202976 -3.790077 0
M  V30 54 H -2.766492 -3.069808 -4.142575 0
M  V30 55 H -1.291244 -4.699809 -4.072185 0
M  V30 56 H -2.521206 -5.944861 -4.479599 0
M  V30 57 H -1.445041 -5.693847 -2.058524 0
M  V30 58 H -3.206001 -6.224692 -2.319108 0
M  V30 59 H -0.062751 -2.607698 -0.700054 0
M  V30 60 H 0.247887 -0.188239 -0.144911 0
M  V30 61 H -2.137616 5.523686 -2.079988 0
M  V30 62 H 1.879254 0.779725 2.670676 0
M  V30 END ATOM
M  V30 BEGIN BOND
M  V30 1 1 1 2
M  V30 2 2 2 3
M  V30 3 1 2 4
M  V30 4 1 4 5
M  V30 5 2 5 6
M  V30 6 1 6 7
M  V30 7 2 7 8
M  V30 8 1 8 9
M  V30 9 1 9 10
M  V30 10 1 10 11
M  V30 11 1 11 12
M  V30 12 2 12 13
M  V30 13 1 13 14
M  V30 14 1 14 15
M  V30 15 2 15 16
M  V30 16 1 16 17
M  V30 17 2 17 18
M  V30 18 1 18 19
M  V30 19 1 19 20
M  V30 20 1 20 21
M  V30 21 1 21 22
M  V30 22 1 22 23
M  V30 23 1 23 24
M  V30 24 1 24 25
M  V30 25 1 18 26
M  V30 26 2 26 27
M  V30 27 1 13 28
M  V30 28 1 28 29
M  V30 29 2 29 30
M  V30 30 1 30 31
M  V30 31 1 31 32
M  V30 32 3 32 33
M  V30 33 2 31 34
M  V30 34 1 34 35
M  V30 35 2 9 36
M  V30 36 1 36 5
M  V30 37 2 35 11
M  V30 38 1 27 15
M  V30 39 1 34 28
M  V30 40 1 25 20
M  V30 41 1 1 37
M  V30 42 1 1 38
M  V30 43 1 1 39
M  V30 44 1 4 40
M  V30 45 1 6 41
M  V30 46 1 7 42
M  V30 47 1 8 43
M  V30 48 1 10 44
M  V30 49 1 14 45
M  V30 50 1 16 46
M  V30 51 1 17 47
M  V30 52 1 19 48
M  V30 53 1 19 49
M  V30 54 1 21 50
M  V30 55 1 21 51
M  V30 56 1 22 52
M  V30 57 1 22 53
M  V30 58 1 23 54
M  V30 59 1 24 55
M  V30 60 1 24 56
M  V30 61 1 25 57
M  V30 62 1 25 58
M  V30 63 1 26 59
M  V30 64 1 27 60
M  V30 65 1 30 61
M  V30 66 1 36 62
M  V30 END BOND
M  V30 END CTAB
M  END
>  <Dataset>  (351) 
ChEMBL_Kinases

>  <Ligand_Instance>  (351) 
nan

>  <PDB_ID>  (351) 
nan

>  <Standardized_SMILES>  (351) 
CC(=O)Nc1cccc(Nc2nc(Nc3ccc(CN4CCNCC4)cc3)n3ncc(C#N)c3n2)c1

>  <Name>  (351) 
nan

>  <Pocket>  (351) 
nan

>  <ATP_Site>  (351) 
nan

>  <Peripheral>  (351) 
nan

>  <Num_H_Atoms_ProtBoundConf>  (351) 
nan

>  <Num_Resolved_Atoms>  (351) 
nan

>  <Num_Not_Resolved_Atoms>  (351) 
nan

$$$$
CHEMBL3959600
     RDKit          3D

  0  0  0  0  0  0  0  0  0  0999 V3000
M  V30 BEGIN CTAB
M  V30 COUNTS 53 57 0 0 0
M  V30 BEGIN ATOM
M  V30 1 C 4.277244 -2.475276 6.775287 0
M  V30 2 O 4.718771 -2.246710 5.448594 0
M  V30 3 C 3.939685 -1.821276 4.405486 0
M  V30 4 O 2.702304 -1.605321 4.626703 0
M  V30 5 N 4.463693 -1.615488 3.098716 0
M  V30 6 C 3.575785 -1.167881 2.077556 0
M  V30 7 N 2.265466 -0.910802 2.238467 0
M  V30 8 C 1.718410 -0.505938 1.073608 0
M  V30 9 C 0.460116 -0.120381 0.655039 0
M  V30 10 C 0.125368 0.259477 -0.604406 0
M  V30 11 C -1.214048 0.662578 -1.011549 0
M  V30 12 O -1.217592 1.097461 -2.359109 0
M  V30 13 C -1.748742 1.810876 -0.240724 0
M  V30 14 C -1.093206 3.028739 -0.079060 0
M  V30 15 C -1.697952 4.026197 0.668202 0
M  V30 16 C -2.933404 3.734990 1.210481 0
M  V30 17 C -3.585940 2.528515 1.051971 0
M  V30 18 C -2.985065 1.534727 0.308281 0
M  V30 19 C -3.273726 0.170138 -0.115141 0
M  V30 20 O -4.381145 -0.343678 0.261975 0
M  V30 21 N -2.212521 -0.367789 -0.914652 0
M  V30 22 C -2.212625 -1.668013 -1.477412 0
M  V30 23 C -2.867242 -1.626032 -2.714298 0
M  V30 24 C -3.006752 -2.769394 -3.505753 0
M  V30 25 C -2.502419 -3.976648 -3.091101 0
M  V30 26 C -1.856820 -3.990648 -1.859040 0
M  V30 27 C -1.711493 -2.880771 -1.071861 0
M  V30 28 O -1.071468 -2.906380 0.142744 0
M  V30 29 C -1.671571 -3.188050 1.374567 0
M  V30 30 F -0.667251 -3.109634 2.354371 0
M  V30 31 F -2.684192 -2.347749 1.732603 0
M  V30 32 F -2.199935 -4.485226 1.388209 0
M  V30 33 C 1.181255 0.235159 -1.492063 0
M  V30 34 C 2.467981 -0.136140 -1.158800 0
M  V30 35 C 2.757221 -0.513952 0.134964 0
M  V30 36 N 3.863083 -0.921014 0.786605 0
M  V30 37 H 3.943717 -3.508910 6.961832 0
M  V30 38 H 3.416387 -1.800450 6.964454 0
M  V30 39 H 5.091107 -2.159093 7.463455 0
M  V30 40 H 5.470615 -1.782540 2.880576 0
M  V30 41 H -0.322073 -0.130929 1.430904 0
M  V30 42 H -0.695166 1.941908 -2.423575 0
M  V30 43 H -0.131881 3.257937 -0.499974 0
M  V30 44 H -1.197344 4.975513 0.800014 0
M  V30 45 H -3.425706 4.493404 1.796213 0
M  V30 46 H -4.550978 2.301645 1.475698 0
M  V30 47 H -3.328808 -0.767127 -3.206430 0
M  V30 48 H -3.499995 -2.796313 -4.464467 0
M  V30 49 H -2.582817 -4.888938 -3.662928 0
M  V30 50 H -1.429213 -4.899333 -1.454710 0
M  V30 51 H 1.035937 0.521784 -2.543114 0
M  V30 52 H 3.267814 -0.135763 -1.909253 0
M  V30 53 H 4.803198 -1.025447 0.339452 0
M  V30 END ATOM
M  V30 BEGIN BOND
M  V30 1 1 1 2
M  V30 2 1 2 3
M  V30 3 2 3 4
M  V30 4 1 3 5
M  V30 5 1 5 6
M  V30 6 2 6 7
M  V30 7 1 7 8
M  V30 8 2 8 9
M  V30 9 1 9 10
M  V30 10 1 10 11
M  V30 11 1 11 12
M  V30 12 1 11 13
M  V30 13 2 13 14
M  V30 14 1 14 15
M  V30 15 2 15 16
M  V30 16 1 16 17
M  V30 17 2 17 18
M  V30 18 1 18 19
M  V30 19 2 19 20
M  V30 20 1 19 21
M  V30 21 1 21 22
M  V30 22 2 22 23
M  V30 23 1 23 24
M  V30 24 2 24 25
M  V30 25 1 25 26
M  V30 26 2 26 27
M  V30 27 1 27 28
M  V30 28 1 28 29
M  V30 29 1 29 30
M  V30 30 1 29 31
M  V30 31 1 29 32
M  V30 32 2 10 33
M  V30 33 1 33 34
M  V30 34 2 34 35
M  V30 35 1 35 36
M  V30 36 1 36 6
M  V30 37 1 35 8
M  V30 38 1 21 11
M  V30 39 1 27 22
M  V30 40 1 18 13
M  V30 41 1 1 37
M  V30 42 1 1 38
M  V30 43 1 1 39
M  V30 44 1 5 40
M  V30 45 1 9 41
M  V30 46 1 12 42
M  V30 47 1 14 43
M  V30 48 1 15 44
M  V30 49 1 16 45
M  V30 50 1 17 46
M  V30 51 1 23 47
M  V30 52 1 24 48
M  V30 53 1 25 49
M  V30 54 1 26 50
M  V30 55 1 33 51
M  V30 56 1 34 52
M  V30 57 1 36 53
M  V30 END BOND
M  V30 END CTAB
M  END
>  <Dataset>  (352) 
ChEMBL_Kinases

>  <Ligand_Instance>  (352) 
nan

>  <PDB_ID>  (352) 
nan

>  <Standardized_SMILES>  (352) 
COC(=O)Nc1nc2cc(C3(O)c4ccccc4C(=O)N3c3ccccc3OC(F)(F)F)ccc2[nH]1

>  <Name>  (352) 
nan

>  <Pocket>  (352) 
nan

>  <ATP_Site>  (352) 
nan

>  <Peripheral>  (352) 
nan

>  <Num_H_Atoms_ProtBoundConf>  (352) 
nan

>  <Num_Resolved_Atoms>  (352) 
nan

>  <Num_Not_Resolved_Atoms>  (352) 
nan

$$$$
CHEMBL4870142
     RDKit          3D

  0  0  0  0  0  0  0  0  0  0999 V3000
M  V30 BEGIN CTAB
M  V30 COUNTS 54 58 0 0 0
M  V30 BEGIN ATOM
M  V30 1 C 2.790527 0.713322 2.831898 0
M  V30 2 C 3.725288 -0.264355 2.184895 0
M  V30 3 C 4.272528 -1.199058 3.241512 0
M  V30 4 N 4.808683 0.469278 1.585688 0
M  V30 5 C 6.080883 0.523818 2.050863 0
M  V30 6 N 6.862590 1.305861 1.252497 0
M  V30 7 N 6.037664 1.715542 0.306250 0
M  V30 8 C 4.800123 1.233475 0.475145 0
M  V30 9 C 3.643887 1.483792 -0.381971 0
M  V30 10 C 3.781591 2.299899 -1.486435 0
M  V30 11 C 2.625007 2.472229 -2.232504 0
M  V30 12 C 1.411566 1.889947 -1.926847 0
M  V30 13 C 1.336097 1.077831 -0.801155 0
M  V30 14 N 0.119603 0.442225 -0.420759 0
M  V30 15 C -0.830790 1.038522 0.448384 0
M  V30 16 O -0.568135 2.188078 0.896084 0
M  V30 17 C -2.051450 0.306365 0.780656 0
M  V30 18 C -2.408019 -0.949386 0.332171 0
M  V30 19 C -3.630236 -1.270116 0.880813 0
M  V30 20 C -4.403490 -2.406337 0.739214 0
M  V30 21 C -3.993525 -3.528501 -0.088756 0
M  V30 22 C -3.994255 -4.893130 0.094324 0
M  V30 23 N -3.494124 -5.438501 -1.025162 0
M  V30 24 N -3.174458 -4.521910 -1.908828 0
M  V30 25 C -2.606187 -4.858209 -3.218540 0
M  V30 26 C -3.471470 -3.307757 -1.362302 0
M  V30 27 C -5.599760 -2.433545 1.426336 0
M  V30 28 C -6.049905 -1.387008 2.238249 0
M  V30 29 C -5.235768 -0.257104 2.352569 0
M  V30 30 C -4.035476 -0.212600 1.672145 0
M  V30 31 N -3.049930 0.719322 1.582298 0
M  V30 32 N 2.457461 0.919456 -0.090223 0
M  V30 33 H 1.724099 0.412163 2.619084 0
M  V30 34 H 2.889670 0.663781 3.936577 0
M  V30 35 H 2.986967 1.766408 2.534397 0
M  V30 36 H 3.208263 -0.902692 1.417671 0
M  V30 37 H 5.115259 -1.808315 2.870822 0
M  V30 38 H 3.478441 -1.800770 3.708888 0
M  V30 39 H 4.695366 -0.561425 4.062618 0
M  V30 40 H 6.470747 0.030079 2.932764 0
M  V30 41 H 4.718961 2.780131 -1.765967 0
M  V30 42 H 2.699142 3.112513 -3.113688 0
M  V30 43 H 0.534437 2.059529 -2.548142 0
M  V30 44 H -0.044276 -0.517828 -0.827145 0
M  V30 45 H -1.776672 -1.516733 -0.335063 0
M  V30 46 H -4.357605 -5.320168 1.017031 0
M  V30 47 H -2.085306 -3.973651 -3.662677 0
M  V30 48 H -1.970593 -5.737648 -3.110857 0
M  V30 49 H -3.442158 -5.074153 -3.915094 0
M  V30 50 H -3.261325 -2.441845 -1.978219 0
M  V30 51 H -6.205184 -3.332176 1.310745 0
M  V30 52 H -6.996758 -1.457631 2.756406 0
M  V30 53 H -5.552932 0.584955 2.979452 0
M  V30 54 H -3.094106 1.640578 2.090587 0
M  V30 END ATOM
M  V30 BEGIN BOND
M  V30 1 1 1 2
M  V30 2 1 2 3
M  V30 3 1 2 4
M  V30 4 1 4 5
M  V30 5 2 5 6
M  V30 6 1 6 7
M  V30 7 2 7 8
M  V30 8 1 8 9
M  V30 9 2 9 10
M  V30 10 1 10 11
M  V30 11 2 11 12
M  V30 12 1 12 13
M  V30 13 1 13 14
M  V30 14 1 14 15
M  V30 15 2 15 16
M  V30 16 1 15 17
M  V30 17 2 17 18
M  V30 18 1 18 19
M  V30 19 2 19 20
M  V30 20 1 20 21
M  V30 21 1 21 22
M  V30 22 2 22 23
M  V30 23 1 23 24
M  V30 24 1 24 25
M  V30 25 1 24 26
M  V30 26 1 20 27
M  V30 27 2 27 28
M  V30 28 1 28 29
M  V30 29 2 29 30
M  V30 30 1 30 31
M  V30 31 2 13 32
M  V30 32 1 8 4
M  V30 33 1 32 9
M  V30 34 1 31 17
M  V30 35 1 30 19
M  V30 36 2 26 21
M  V30 37 1 1 33
M  V30 38 1 1 34
M  V30 39 1 1 35
M  V30 40 1 2 36
M  V30 41 1 3 37
M  V30 42 1 3 38
M  V30 43 1 3 39
M  V30 44 1 5 40
M  V30 45 1 10 41
M  V30 46 1 11 42
M  V30 47 1 12 43
M  V30 48 1 14 44
M  V30 49 1 18 45
M  V30 50 1 22 46
M  V30 51 1 25 47
M  V30 52 1 25 48
M  V30 53 1 25 49
M  V30 54 1 26 50
M  V30 55 1 27 51
M  V30 56 1 28 52
M  V30 57 1 29 53
M  V30 58 1 31 54
M  V30 END BOND
M  V30 END CTAB
M  END
>  <Dataset>  (353) 
ChEMBL_Kinases

>  <Ligand_Instance>  (353) 
nan

>  <PDB_ID>  (353) 
nan

>  <Standardized_SMILES>  (353) 
CC(C)n1cnnc1-c1cccc(NC(=O)c2cc3c(-c4cnn(C)c4)cccc3[nH]2)n1

>  <Name>  (353) 
nan

>  <Pocket>  (353) 
nan

>  <ATP_Site>  (353) 
nan

>  <Peripheral>  (353) 
nan

>  <Num_H_Atoms_ProtBoundConf>  (353) 
nan

>  <Num_Resolved_Atoms>  (353) 
nan

>  <Num_Not_Resolved_Atoms>  (353) 
nan

$$$$
CHEMBL395932
     RDKit          3D

  0  0  0  0  0  0  0  0  0  0999 V3000
M  V30 BEGIN CTAB
M  V30 COUNTS 48 51 0 0 0
M  V30 BEGIN ATOM
M  V30 1 C 3.363902 -2.439156 -0.407802 0
M  V30 2 C 4.464414 -1.429024 -0.656503 0
M  V30 3 C 5.758195 -2.108955 -0.222903 0
M  V30 4 N 6.851271 -1.169269 -0.237920 0
M  V30 5 C 6.675307 0.046383 0.471688 0
M  V30 6 O 7.660291 0.682354 0.961520 0
M  V30 7 C 5.305770 0.561210 0.629605 0
M  V30 8 N 4.857534 1.670780 1.245609 0
M  V30 9 C 3.511483 1.707909 1.119649 0
M  V30 10 C 2.610269 2.645116 1.582425 0
M  V30 11 C 1.258925 2.478334 1.333617 0
M  V30 12 C 0.855847 1.361069 0.619254 0
M  V30 13 C -0.548602 1.044942 0.275066 0
M  V30 14 O -0.916133 0.026525 -0.376048 0
M  V30 15 N -1.634395 1.880816 0.656707 0
M  V30 16 C -2.854332 1.303359 0.176142 0
M  V30 17 N -3.638820 0.479370 0.729831 0
M  V30 18 C -4.723418 0.073954 0.096769 0
M  V30 19 C -5.589318 -0.890555 0.812731 0
M  V30 20 O -6.658771 -1.332567 0.269196 0
M  V30 21 N -5.389584 -1.427615 2.095024 0
M  V30 22 C -6.261424 -2.356656 2.733681 0
M  V30 23 C -6.461374 -3.654471 2.034827 0
M  V30 24 O -7.349070 -4.414378 2.831004 0
M  V30 25 C -5.014117 0.536822 -1.162210 0
M  V30 26 S -3.551547 1.665121 -1.417029 0
M  V30 27 C 1.782582 0.420266 0.157130 0
M  V30 28 C 3.134774 0.579638 0.401588 0
M  V30 29 C 4.259561 -0.156180 0.084208 0
M  V30 30 H 3.757521 -3.469392 -0.272373 0
M  V30 31 H 2.586288 -2.417656 -1.204524 0
M  V30 32 H 2.869321 -2.166420 0.544569 0
M  V30 33 H 4.493253 -1.233697 -1.764686 0
M  V30 34 H 5.564570 -2.515558 0.807677 0
M  V30 35 H 5.904053 -2.982445 -0.875469 0
M  V30 36 H 7.752322 -1.334030 -0.736285 0
M  V30 37 H 5.474736 2.351872 1.721995 0
M  V30 38 H 2.922793 3.522989 2.143263 0
M  V30 39 H 0.495343 3.155042 1.655347 0
M  V30 40 H -1.452031 2.753094 1.199806 0
M  V30 41 H -4.512280 -1.089032 2.588208 0
M  V30 42 H -7.284257 -1.903790 2.885223 0
M  V30 43 H -5.883363 -2.569988 3.765234 0
M  V30 44 H -5.547258 -4.259403 1.935636 0
M  V30 45 H -6.902992 -3.517474 1.030956 0
M  V30 46 H -6.843959 -5.079785 3.381341 0
M  V30 47 H -5.895100 0.248083 -1.753750 0
M  V30 48 H 1.485845 -0.444768 -0.394299 0
M  V30 END ATOM
M  V30 BEGIN BOND
M  V30 1 1 1 2
M  V30 2 1 2 3
M  V30 3 1 3 4
M  V30 4 1 4 5
M  V30 5 2 5 6
M  V30 6 1 5 7
M  V30 7 1 7 8
M  V30 8 1 8 9
M  V30 9 2 9 10
M  V30 10 1 10 11
M  V30 11 2 11 12
M  V30 12 1 12 13
M  V30 13 2 13 14
M  V30 14 1 13 15
M  V30 15 1 15 16
M  V30 16 2 16 17
M  V30 17 1 17 18
M  V30 18 1 18 19
M  V30 19 2 19 20
M  V30 20 1 19 21
M  V30 21 1 21 22
M  V30 22 1 22 23
M  V30 23 1 23 24
M  V30 24 2 18 25
M  V30 25 1 25 26
M  V30 26 1 12 27
M  V30 27 2 27 28
M  V30 28 1 28 29
M  V30 29 1 29 2
M  V30 30 2 29 7
M  V30 31 1 28 9
M  V30 32 1 26 16
M  V30 33 1 1 30
M  V30 34 1 1 31
M  V30 35 1 1 32
M  V30 36 1 2 33
M  V30 37 1 3 34
M  V30 38 1 3 35
M  V30 39 1 4 36
M  V30 40 1 8 37
M  V30 41 1 10 38
M  V30 42 1 11 39
M  V30 43 1 15 40
M  V30 44 1 21 41
M  V30 45 1 22 42
M  V30 46 1 22 43
M  V30 47 1 23 44
M  V30 48 1 23 45
M  V30 49 1 24 46
M  V30 50 1 25 47
M  V30 51 1 27 48
M  V30 END BOND
M  V30 END CTAB
M  END
>  <Dataset>  (354) 
ChEMBL_Kinases

>  <Ligand_Instance>  (354) 
nan

>  <PDB_ID>  (354) 
nan

>  <Standardized_SMILES>  (354) 
CC1CNC(=O)c2[nH]c3ccc(C(=O)Nc4nc(C(=O)NCCO)cs4)cc3c21

>  <Name>  (354) 
nan

>  <Pocket>  (354) 
nan

>  <ATP_Site>  (354) 
nan

>  <Peripheral>  (354) 
nan

>  <Num_H_Atoms_ProtBoundConf>  (354) 
nan

>  <Num_Resolved_Atoms>  (354) 
nan

>  <Num_Not_Resolved_Atoms>  (354) 
nan

$$$$
CHEMBL3959318
     RDKit          3D

  0  0  0  0  0  0  0  0  0  0999 V3000
M  V30 BEGIN CTAB
M  V30 COUNTS 56 60 0 0 0
M  V30 BEGIN ATOM
M  V30 1 C 7.704647 -3.775936 2.621363 0
M  V30 2 O 7.044509 -3.849845 1.356919 0
M  V30 3 C 5.775309 -3.374078 1.176691 0
M  V30 4 O 5.396273 -2.907758 2.304708 0
M  V30 5 N 5.008216 -3.383310 -0.014205 0
M  V30 6 C 3.695784 -2.803693 0.119147 0
M  V30 7 N 3.523663 -1.471808 -0.108608 0
M  V30 8 C 2.212495 -1.166733 0.077920 0
M  V30 9 C 1.479376 -0.001681 -0.011916 0
M  V30 10 C 0.112499 0.046377 0.235291 0
M  V30 11 C -0.582525 1.292873 0.129884 0
M  V30 12 O 0.175598 2.206665 -0.631549 0
M  V30 13 C -0.666494 1.935956 1.490204 0
M  V30 14 C 0.414258 2.112996 2.331852 0
M  V30 15 C 0.198336 2.701133 3.545763 0
M  V30 16 C -1.064069 3.126375 3.963585 0
M  V30 17 C -2.101093 2.920713 3.076061 0
M  V30 18 C -1.941908 2.334214 1.841725 0
M  V30 19 C -2.774182 1.982230 0.692766 0
M  V30 20 O -3.993754 2.247180 0.767799 0
M  V30 21 N -1.922970 1.376150 -0.310775 0
M  V30 22 C -2.400019 0.933536 -1.573720 0
M  V30 23 C -2.862723 -0.422773 -1.746055 0
M  V30 24 C -1.976595 -1.289610 -2.413114 0
M  V30 25 C -2.187996 -2.607023 -2.693501 0
M  V30 26 C -3.375971 -3.177605 -2.298963 0
M  V30 27 C -4.283155 -2.375805 -1.640926 0
M  V30 28 C -4.011421 -1.046152 -1.385470 0
M  V30 29 O -4.924939 -0.239493 -0.724224 0
M  V30 30 C -6.149608 -0.811526 -0.312950 0
M  V30 31 C -0.411054 -1.186045 0.574192 0
M  V30 32 C 0.268520 -2.382605 0.680229 0
M  V30 33 C 1.614399 -2.373923 0.425904 0
M  V30 34 N 2.524793 -3.342416 0.444146 0
M  V30 35 H 7.119978 -4.225904 3.439676 0
M  V30 36 H 7.771098 -2.684193 2.848960 0
M  V30 37 H 8.731735 -4.152668 2.549662 0
M  V30 38 H 5.571711 -3.825462 -0.776450 0
M  V30 39 H 2.024064 0.889873 -0.288234 0
M  V30 40 H 0.868504 2.648302 -0.054328 0
M  V30 41 H 1.438241 1.813949 2.094629 0
M  V30 42 H 1.011290 2.857839 4.230815 0
M  V30 43 H -1.198516 3.585478 4.925826 0
M  V30 44 H -3.079609 3.227717 3.349890 0
M  V30 45 H -3.270034 1.592488 -1.888430 0
M  V30 46 H -1.614870 1.207742 -2.328895 0
M  V30 47 H -0.998655 -0.927716 -2.769024 0
M  V30 48 H -1.489436 -3.230772 -3.202158 0
M  V30 49 H -3.693006 -4.193267 -2.442360 0
M  V30 50 H -5.253589 -2.763020 -1.295874 0
M  V30 51 H -6.003720 -1.649342 0.414163 0
M  V30 52 H -6.673226 -1.302323 -1.181652 0
M  V30 53 H -6.836555 -0.064761 0.112613 0
M  V30 54 H -1.492740 -1.214477 0.782752 0
M  V30 55 H -0.238255 -3.281259 0.950774 0
M  V30 56 H 2.410894 -4.340666 0.660320 0
M  V30 END ATOM
M  V30 BEGIN BOND
M  V30 1 1 1 2
M  V30 2 1 2 3
M  V30 3 2 3 4
M  V30 4 1 3 5
M  V30 5 1 5 6
M  V30 6 2 6 7
M  V30 7 1 7 8
M  V30 8 2 8 9
M  V30 9 1 9 10
M  V30 10 1 10 11
M  V30 11 1 11 12
M  V30 12 1 11 13
M  V30 13 2 13 14
M  V30 14 1 14 15
M  V30 15 2 15 16
M  V30 16 1 16 17
M  V30 17 2 17 18
M  V30 18 1 18 19
M  V30 19 2 19 20
M  V30 20 1 19 21
M  V30 21 1 21 22
M  V30 22 1 22 23
M  V30 23 2 23 24
M  V30 24 1 24 25
M  V30 25 2 25 26
M  V30 26 1 26 27
M  V30 27 2 27 28
M  V30 28 1 28 29
M  V30 29 1 29 30
M  V30 30 2 10 31
M  V30 31 1 31 32
M  V30 32 2 32 33
M  V30 33 1 33 34
M  V30 34 1 34 6
M  V30 35 1 33 8
M  V30 36 1 21 11
M  V30 37 1 28 23
M  V30 38 1 18 13
M  V30 39 1 1 35
M  V30 40 1 1 36
M  V30 41 1 1 37
M  V30 42 1 5 38
M  V30 43 1 9 39
M  V30 44 1 12 40
M  V30 45 1 14 41
M  V30 46 1 15 42
M  V30 47 1 16 43
M  V30 48 1 17 44
M  V30 49 1 22 45
M  V30 50 1 22 46
M  V30 51 1 24 47
M  V30 52 1 25 48
M  V30 53 1 26 49
M  V30 54 1 27 50
M  V30 55 1 30 51
M  V30 56 1 30 52
M  V30 57 1 30 53
M  V30 58 1 31 54
M  V30 59 1 32 55
M  V30 60 1 34 56
M  V30 END BOND
M  V30 END CTAB
M  END
>  <Dataset>  (355) 
ChEMBL_Kinases

>  <Ligand_Instance>  (355) 
nan

>  <PDB_ID>  (355) 
nan

>  <Standardized_SMILES>  (355) 
COC(=O)Nc1nc2cc(C3(O)c4ccccc4C(=O)N3Cc3ccccc3OC)ccc2[nH]1

>  <Name>  (355) 
nan

>  <Pocket>  (355) 
nan

>  <ATP_Site>  (355) 
nan

>  <Peripheral>  (355) 
nan

>  <Num_H_Atoms_ProtBoundConf>  (355) 
nan

>  <Num_Resolved_Atoms>  (355) 
nan

>  <Num_Not_Resolved_Atoms>  (355) 
nan

$$$$
CHEMBL3959101
     RDKit          3D

  0  0  0  0  0  0  0  0  0  0999 V3000
M  V30 BEGIN CTAB
M  V30 COUNTS 57 61 0 0 0
M  V30 BEGIN ATOM
M  V30 1 C 4.041760 -0.471111 6.067581 0
M  V30 2 C 4.308045 -1.403555 4.877297 0
M  V30 3 C 4.092241 -2.801555 5.361017 0
M  V30 4 C 3.405474 -0.971965 3.790136 0
M  V30 5 O 2.710332 0.024354 4.157053 0
M  V30 6 N 3.409334 -1.662050 2.547730 0
M  V30 7 C 2.475815 -1.115006 1.599371 0
M  V30 8 N 2.947992 -0.134359 0.771474 0
M  V30 9 C 1.961219 0.267985 -0.048746 0
M  V30 10 C 1.793775 1.182322 -1.068244 0
M  V30 11 C 0.566129 1.296871 -1.687232 0
M  V30 12 C -0.569635 0.542537 -1.364363 0
M  V30 13 C -1.817358 0.734149 -2.059129 0
M  V30 14 O -1.603707 1.612252 -3.147110 0
M  V30 15 C -2.805916 1.460475 -1.193584 0
M  V30 16 C -2.509041 2.672009 -0.562606 0
M  V30 17 C -3.470620 3.265866 0.235412 0
M  V30 18 C -4.687011 2.634306 0.374938 0
M  V30 19 C -4.976955 1.424971 -0.258090 0
M  V30 20 C -4.024114 0.827785 -1.054523 0
M  V30 21 C -3.882218 -0.364685 -1.888203 0
M  V30 22 O -4.883341 -1.158773 -1.948136 0
M  V30 23 N -2.564638 -0.386556 -2.497740 0
M  V30 24 C -2.308195 -1.495536 -3.397571 0
M  V30 25 C -1.744866 -2.672785 -2.691225 0
M  V30 26 C -0.398443 -2.922157 -2.531397 0
M  V30 27 C 0.166562 -3.989064 -1.890995 0
M  V30 28 C -0.701060 -4.913812 -1.347197 0
M  V30 29 C -2.081379 -4.755348 -1.453250 0
M  V30 30 C -2.543041 -3.645340 -2.118527 0
M  V30 31 C -0.376703 -0.366109 -0.340527 0
M  V30 32 C 0.852334 -0.480677 0.278854 0
M  V30 33 N 1.180475 -1.315718 1.281229 0
M  V30 34 H 4.321327 -0.927126 7.028008 0
M  V30 35 H 4.499899 0.520041 5.881523 0
M  V30 36 H 2.930690 -0.286839 6.080913 0
M  V30 37 H 5.387034 -1.243946 4.642105 0
M  V30 38 H 4.617009 -3.589508 4.786424 0
M  V30 39 H 4.522750 -2.852483 6.390068 0
M  V30 40 H 3.004606 -3.006950 5.505927 0
M  V30 41 H 4.041218 -2.491608 2.352259 0
M  V30 42 H 2.637902 1.789701 -1.357709 0
M  V30 43 H 0.462077 2.034421 -2.496596 0
M  V30 44 H -1.540264 2.522535 -2.763546 0
M  V30 45 H -1.570784 3.201769 -0.643928 0
M  V30 46 H -3.325494 4.210905 0.766144 0
M  V30 47 H -5.445792 3.087521 0.995335 0
M  V30 48 H -5.918820 0.904850 -0.169492 0
M  V30 49 H -3.191791 -1.869965 -3.931581 0
M  V30 50 H -1.597113 -1.172388 -4.218334 0
M  V30 51 H 0.310050 -2.195353 -2.958096 0
M  V30 52 H 1.212956 -4.151816 -1.785480 0
M  V30 53 H -0.353679 -5.810180 -0.809932 0
M  V30 54 H -2.734963 -5.498329 -1.015731 0
M  V30 55 H -3.616124 -3.581557 -2.166425 0
M  V30 56 H -1.219400 -0.974330 -0.052850 0
M  V30 57 H 0.665477 -2.052838 1.838387 0
M  V30 END ATOM
M  V30 BEGIN BOND
M  V30 1 1 1 2
M  V30 2 1 2 3
M  V30 3 1 2 4
M  V30 4 2 4 5
M  V30 5 1 4 6
M  V30 6 1 6 7
M  V30 7 2 7 8
M  V30 8 1 8 9
M  V30 9 2 9 10
M  V30 10 1 10 11
M  V30 11 2 11 12
M  V30 12 1 12 13
M  V30 13 1 13 14
M  V30 14 1 13 15
M  V30 15 2 15 16
M  V30 16 1 16 17
M  V30 17 2 17 18
M  V30 18 1 18 19
M  V30 19 2 19 20
M  V30 20 1 20 21
M  V30 21 2 21 22
M  V30 22 1 21 23
M  V30 23 1 23 24
M  V30 24 1 24 25
M  V30 25 2 25 26
M  V30 26 1 26 27
M  V30 27 2 27 28
M  V30 28 1 28 29
M  V30 29 2 29 30
M  V30 30 1 12 31
M  V30 31 2 31 32
M  V30 32 1 32 33
M  V30 33 1 33 7
M  V30 34 1 32 9
M  V30 35 1 23 13
M  V30 36 1 30 25
M  V30 37 1 20 15
M  V30 38 1 1 34
M  V30 39 1 1 35
M  V30 40 1 1 36
M  V30 41 1 2 37
M  V30 42 1 3 38
M  V30 43 1 3 39
M  V30 44 1 3 40
M  V30 45 1 6 41
M  V30 46 1 10 42
M  V30 47 1 11 43
M  V30 48 1 14 44
M  V30 49 1 16 45
M  V30 50 1 17 46
M  V30 51 1 18 47
M  V30 52 1 19 48
M  V30 53 1 24 49
M  V30 54 1 24 50
M  V30 55 1 26 51
M  V30 56 1 27 52
M  V30 57 1 28 53
M  V30 58 1 29 54
M  V30 59 1 30 55
M  V30 60 1 31 56
M  V30 61 1 33 57
M  V30 END BOND
M  V30 END CTAB
M  END
>  <Dataset>  (356) 
ChEMBL_Kinases

>  <Ligand_Instance>  (356) 
nan

>  <PDB_ID>  (356) 
nan

>  <Standardized_SMILES>  (356) 
CC(C)C(=O)Nc1nc2ccc(C3(O)c4ccccc4C(=O)N3Cc3ccccc3)cc2[nH]1

>  <Name>  (356) 
nan

>  <Pocket>  (356) 
nan

>  <ATP_Site>  (356) 
nan

>  <Peripheral>  (356) 
nan

>  <Num_H_Atoms_ProtBoundConf>  (356) 
nan

>  <Num_Resolved_Atoms>  (356) 
nan

>  <Num_Not_Resolved_Atoms>  (356) 
nan

$$$$
CHEMBL3959021
     RDKit          3D

  0  0  0  0  0  0  0  0  0  0999 V3000
M  V30 BEGIN CTAB
M  V30 COUNTS 49 54 0 0 0
M  V30 BEGIN ATOM
M  V30 1 O 4.017742 2.233513 -0.563647 0
M  V30 2 C 3.687852 1.123836 -0.072759 0
M  V30 3 N 4.737863 0.255581 0.312591 0
M  V30 4 C 6.139967 0.419615 0.241338 0
M  V30 5 C 6.963854 -0.589908 0.688981 0
M  V30 6 C 8.336209 -0.503710 0.652153 0
M  V30 7 C 8.962872 0.598504 0.164882 0
M  V30 8 O 10.337455 0.651415 0.142785 0
M  V30 9 C 8.183491 1.636195 -0.295182 0
M  V30 10 C 6.812349 1.516579 -0.243560 0
M  V30 11 C 2.276396 0.798694 0.069814 0
M  V30 12 C 1.748377 -0.366454 0.585084 0
M  V30 13 C 0.392391 -0.602494 0.688318 0
M  V30 14 C -0.511964 0.335653 0.272213 0
M  V30 15 C -1.889339 0.415711 0.235536 0
M  V30 16 C -2.831672 -0.604275 0.686242 0
M  V30 17 N -2.494471 -1.794874 1.213507 0
M  V30 18 C -3.616182 -2.491338 1.520836 0
M  V30 19 C -3.809744 -3.740495 2.073569 0
M  V30 20 C -5.111108 -4.170747 2.262917 0
M  V30 21 C -6.188119 -3.375252 1.909918 0
M  V30 22 C -7.459063 -3.871335 2.128442 0
M  V30 23 C -8.524134 -3.067253 1.771663 0
M  V30 24 C -8.337543 -1.815934 1.217967 0
M  V30 25 C -7.038195 -1.348126 1.011979 0
M  V30 26 C -5.957815 -2.137476 1.362249 0
M  V30 27 C -4.665012 -1.650670 1.147864 0
M  V30 28 N -4.161727 -0.495166 0.636836 0
M  V30 29 N -2.188894 1.615395 -0.295767 0
M  V30 30 N -1.079425 2.296554 -0.596283 0
M  V30 31 C -0.034148 1.520456 -0.251804 0
M  V30 32 C 1.329837 1.716543 -0.337347 0
M  V30 33 H 4.377242 -0.640396 0.708840 0
M  V30 34 H 6.521292 -1.504608 1.093435 0
M  V30 35 H 8.912056 -1.339087 1.022482 0
M  V30 36 H 10.868128 -0.117186 -0.249877 0
M  V30 37 H 8.668416 2.518554 -0.685274 0
M  V30 38 H 6.276745 2.351563 -0.613658 0
M  V30 39 H 2.435454 -1.124614 0.921319 0
M  V30 40 H 0.029500 -1.534392 1.100493 0
M  V30 41 H -2.919181 -4.308383 2.325667 0
M  V30 42 H -5.237417 -5.158612 2.700042 0
M  V30 43 H -7.562549 -4.865365 2.568329 0
M  V30 44 H -9.515543 -3.492350 1.959002 0
M  V30 45 H -9.220467 -1.275221 0.977914 0
M  V30 46 H -6.904039 -0.365760 0.577279 0
M  V30 47 H -4.754733 0.310196 0.279871 0
M  V30 48 H -1.068624 3.267383 -1.026004 0
M  V30 49 H 1.658518 2.662090 -0.755597 0
M  V30 END ATOM
M  V30 BEGIN BOND
M  V30 1 2 1 2
M  V30 2 1 2 3
M  V30 3 1 3 4
M  V30 4 2 4 5
M  V30 5 1 5 6
M  V30 6 2 6 7
M  V30 7 1 7 8
M  V30 8 1 7 9
M  V30 9 2 9 10
M  V30 10 1 2 11
M  V30 11 2 11 12
M  V30 12 1 12 13
M  V30 13 2 13 14
M  V30 14 1 14 15
M  V30 15 1 15 16
M  V30 16 2 16 17
M  V30 17 1 17 18
M  V30 18 2 18 19
M  V30 19 1 19 20
M  V30 20 2 20 21
M  V30 21 1 21 22
M  V30 22 2 22 23
M  V30 23 1 23 24
M  V30 24 2 24 25
M  V30 25 1 25 26
M  V30 26 2 26 27
M  V30 27 1 27 28
M  V30 28 2 15 29
M  V30 29 1 29 30
M  V30 30 1 30 31
M  V30 31 2 31 32
M  V30 32 1 10 4
M  V30 33 1 32 11
M  V30 34 1 31 14
M  V30 35 1 28 16
M  V30 36 1 27 18
M  V30 37 1 26 21
M  V30 38 1 3 33
M  V30 39 1 5 34
M  V30 40 1 6 35
M  V30 41 1 8 36
M  V30 42 1 9 37
M  V30 43 1 10 38
M  V30 44 1 12 39
M  V30 45 1 13 40
M  V30 46 1 19 41
M  V30 47 1 20 42
M  V30 48 1 22 43
M  V30 49 1 23 44
M  V30 50 1 24 45
M  V30 51 1 25 46
M  V30 52 1 28 47
M  V30 53 1 30 48
M  V30 54 1 32 49
M  V30 END BOND
M  V30 END CTAB
M  END
>  <Dataset>  (357) 
ChEMBL_Kinases

>  <Ligand_Instance>  (357) 
nan

>  <PDB_ID>  (357) 
nan

>  <Standardized_SMILES>  (357) 
O=C(Nc1ccc(O)cc1)c1ccc2c(-c3nc4ccc5ccccc5c4[nH]3)n[nH]c2c1

>  <Name>  (357) 
nan

>  <Pocket>  (357) 
nan

>  <ATP_Site>  (357) 
nan

>  <Peripheral>  (357) 
nan

>  <Num_H_Atoms_ProtBoundConf>  (357) 
nan

>  <Num_Resolved_Atoms>  (357) 
nan

>  <Num_Not_Resolved_Atoms>  (357) 
nan

$$$$
CHEMBL4870048
     RDKit          3D

  0  0  0  0  0  0  0  0  0  0999 V3000
M  V30 BEGIN CTAB
M  V30 COUNTS 46 47 0 0 0
M  V30 BEGIN ATOM
M  V30 1 C -3.245643 -0.291328 -4.625052 0
M  V30 2 O -3.680261 -0.482413 -3.292777 0
M  V30 3 C -2.812866 -0.929584 -2.321821 0
M  V30 4 C -1.473425 -1.252546 -2.432753 0
M  V30 5 C -0.767763 -1.688669 -1.325983 0
M  V30 6 N 0.626844 -2.003272 -1.536418 0
M  V30 7 C 1.431570 -0.848619 -1.320326 0
M  V30 8 O 0.700321 0.147299 -1.000089 0
M  V30 9 C 2.902315 -0.868477 -1.463462 0 CFG=2
M  V30 10 N 3.316813 -2.210533 -1.841222 0
M  V30 11 C 3.607535 -0.558751 -0.164826 0
M  V30 12 C 3.263395 0.802250 0.394052 0
M  V30 13 C 4.029914 0.995711 1.692559 0
M  V30 14 C 3.616946 1.921848 -0.522911 0
M  V30 15 C -1.379772 -1.814962 -0.075548 0
M  V30 16 C -2.718586 -1.492871 0.038482 0
M  V30 17 C -3.432963 -1.053027 -1.074657 0
M  V30 18 C -4.842293 -0.748692 -0.802340 0
M  V30 19 C -5.651274 -1.576433 -0.055405 0
M  V30 20 C -6.962085 -1.181511 0.132016 0
M  V30 21 N -7.479102 -0.041204 -0.374110 0
M  V30 22 C -6.734744 0.790739 -1.102809 0
M  V30 23 C -5.434505 0.410672 -1.295593 0
M  V30 24 H -2.813352 0.738077 -4.765082 0
M  V30 25 H -2.471890 -1.026091 -4.918598 0
M  V30 26 H -4.101261 -0.434536 -5.346882 0
M  V30 27 H -1.088498 -1.126909 -3.421627 0
M  V30 28 H 1.084095 -2.921439 -1.811284 0
M  V30 29 H 3.246007 -0.214657 -2.291773 0
M  V30 30 H 3.013293 -2.413645 -2.815995 0
M  V30 31 H 4.379090 -2.259817 -1.844168 0
M  V30 32 H 4.701663 -0.639425 -0.324440 0
M  V30 33 H 3.334364 -1.341566 0.569816 0
M  V30 34 H 2.189335 0.845006 0.666171 0
M  V30 35 H 4.324696 0.011675 2.080526 0
M  V30 36 H 3.414667 1.529815 2.430595 0
M  V30 37 H 4.965767 1.599390 1.504576 0
M  V30 38 H 2.885876 2.756206 -0.309265 0
M  V30 39 H 3.452814 1.697192 -1.594545 0
M  V30 40 H 4.607176 2.371242 -0.311398 0
M  V30 41 H -0.787418 -2.158723 0.755664 0
M  V30 42 H -3.175396 -1.598503 1.021603 0
M  V30 43 H -5.248242 -2.495242 0.356752 0
M  V30 44 H -7.641786 -1.799173 0.713740 0
M  V30 45 H -7.074493 1.735508 -1.550531 0
M  V30 46 H -4.785259 1.062038 -1.887417 0
M  V30 END ATOM
M  V30 BEGIN BOND
M  V30 1 1 1 2
M  V30 2 1 2 3
M  V30 3 2 3 4
M  V30 4 1 4 5
M  V30 5 1 5 6
M  V30 6 1 6 7
M  V30 7 2 7 8
M  V30 8 1 7 9
M  V30 9 1 9 10
M  V30 10 1 9 11
M  V30 11 1 11 12
M  V30 12 1 12 13
M  V30 13 1 12 14
M  V30 14 2 5 15
M  V30 15 1 15 16
M  V30 16 2 16 17
M  V30 17 1 17 18
M  V30 18 2 18 19
M  V30 19 1 19 20
M  V30 20 2 20 21
M  V30 21 1 21 22
M  V30 22 2 22 23
M  V30 23 1 17 3
M  V30 24 1 23 18
M  V30 25 1 1 24
M  V30 26 1 1 25
M  V30 27 1 1 26
M  V30 28 1 4 27
M  V30 29 1 6 28
M  V30 30 1 9 29 CFG=3
M  V30 31 1 10 30
M  V30 32 1 10 31
M  V30 33 1 11 32
M  V30 34 1 11 33
M  V30 35 1 12 34
M  V30 36 1 13 35
M  V30 37 1 13 36
M  V30 38 1 13 37
M  V30 39 1 14 38
M  V30 40 1 14 39
M  V30 41 1 14 40
M  V30 42 1 15 41
M  V30 43 1 16 42
M  V30 44 1 19 43
M  V30 45 1 20 44
M  V30 46 1 22 45
M  V30 47 1 23 46
M  V30 END BOND
M  V30 END CTAB
M  END
>  <Dataset>  (358) 
ChEMBL_Kinases

>  <Ligand_Instance>  (358) 
nan

>  <PDB_ID>  (358) 
nan

>  <Standardized_SMILES>  (358) 
COc1cc(NC(=O)[C@H](N)CC(C)C)ccc1-c1ccncc1

>  <Name>  (358) 
nan

>  <Pocket>  (358) 
nan

>  <ATP_Site>  (358) 
nan

>  <Peripheral>  (358) 
nan

>  <Num_H_Atoms_ProtBoundConf>  (358) 
nan

>  <Num_Resolved_Atoms>  (358) 
nan

>  <Num_Not_Resolved_Atoms>  (358) 
nan

$$$$
CHEMBL3958845
     RDKit          3D

  0  0  0  0  0  0  0  0  0  0999 V3000
M  V30 BEGIN CTAB
M  V30 COUNTS 53 56 0 0 0
M  V30 BEGIN ATOM
M  V30 1 O 0.180358 1.414244 -1.600338 0
M  V30 2 C 0.649446 0.291388 -1.256373 0
M  V30 3 O 1.762809 -0.026784 -2.058641 0
M  V30 4 C 0.256330 -0.698796 -0.212045 0 CFG=2
M  V30 5 C 1.404513 -0.888035 0.735336 0
M  V30 6 C 1.797090 0.365042 1.401711 0
M  V30 7 C 2.857528 0.157482 2.273869 0
M  V30 8 C 3.398730 1.211504 3.018645 0
M  V30 9 C 2.893412 2.500244 2.910295 0
M  V30 10 C 1.843579 2.636806 2.029200 0
M  V30 11 N 1.255290 3.917554 1.846564 0
M  V30 12 C 1.730242 5.021697 2.546631 0
M  V30 13 N 1.622070 5.782069 3.695711 0
M  V30 14 C 2.479355 6.791563 3.685801 0
M  V30 15 C 3.520788 7.202410 2.619364 0
M  V30 16 S 3.071772 5.769901 1.456021 0
M  V30 17 N 1.328796 1.623000 1.317926 0
M  V30 18 C -0.028561 -1.986532 -0.965983 0
M  V30 19 C -1.507462 -2.241577 -1.103571 0
M  V30 20 C -2.207626 -2.368118 0.204072 0 CFG=1
M  V30 21 S -2.108759 -3.994907 0.863738 0 CHG=1 VAL=3
M  V30 22 O -2.903375 -4.113239 2.335840 0 CHG=-1 VAL=1
M  V30 23 C -2.639433 -5.184612 -0.271496 0
M  V30 24 C -4.025955 -5.371738 -0.224564 0
M  V30 25 C -4.657645 -6.295163 -1.062721 0
M  V30 26 C -3.917418 -7.041817 -1.955820 0
M  V30 27 C -2.543447 -6.850017 -1.995559 0
M  V30 28 Cl -1.528509 -7.754698 -3.098951 0
M  V30 29 C -1.920516 -5.939142 -1.168705 0
M  V30 30 Cl -0.200146 -5.624583 -1.130964 0
M  V30 31 C -1.710388 -1.348383 1.206460 0
M  V30 32 C -0.963338 -0.233075 0.503366 0
M  V30 33 H 2.433066 0.663714 -2.372430 0
M  V30 34 H 1.176419 -1.615177 1.542651 0
M  V30 35 H 2.235248 -1.347491 0.159563 0
M  V30 36 H 3.364680 -0.779770 2.474995 0
M  V30 37 H 4.231236 1.083177 3.712490 0
M  V30 38 H 3.275151 3.342934 3.460880 0
M  V30 39 H 0.459159 4.097817 1.198228 0
M  V30 40 H 2.239967 7.260545 4.658858 0
M  V30 41 H 3.997066 8.032070 2.961028 0
M  V30 42 H 0.501037 -2.796040 -0.439274 0
M  V30 43 H 0.380751 -1.981129 -1.998873 0
M  V30 44 H -1.701713 -3.112591 -1.721917 0
M  V30 45 H -1.938106 -1.340642 -1.620425 0
M  V30 46 H -3.296782 -2.158237 -0.002242 0
M  V30 47 H -4.735298 -4.849231 0.432781 0
M  V30 48 H -5.722636 -6.469719 -1.058401 0
M  V30 49 H -4.381763 -7.775076 -2.627902 0
M  V30 50 H -1.085498 -1.850467 1.977796 0
M  V30 51 H -2.565490 -0.885155 1.739765 0
M  V30 52 H -0.758233 0.531120 1.248938 0
M  V30 53 H -1.711724 0.211676 -0.203725 0
M  V30 END ATOM
M  V30 BEGIN BOND
M  V30 1 2 1 2
M  V30 2 1 2 3
M  V30 3 1 2 4
M  V30 4 1 4 5 CFG=1
M  V30 5 1 5 6
M  V30 6 2 6 7
M  V30 7 1 7 8
M  V30 8 2 8 9
M  V30 9 1 9 10
M  V30 10 1 10 11
M  V30 11 1 11 12
M  V30 12 2 12 13
M  V30 13 1 13 14
M  V30 14 2 14 15
M  V30 15 1 15 16
M  V30 16 2 10 17
M  V30 17 1 4 18
M  V30 18 1 18 19
M  V30 19 1 19 20
M  V30 20 1 20 21
M  V30 21 1 21 22
M  V30 22 1 21 23
M  V30 23 2 23 24
M  V30 24 1 24 25
M  V30 25 2 25 26
M  V30 26 1 26 27
M  V30 27 1 27 28
M  V30 28 2 27 29
M  V30 29 1 29 30
M  V30 30 1 20 31
M  V30 31 1 31 32
M  V30 32 1 32 4
M  V30 33 1 17 6
M  V30 34 1 29 23
M  V30 35 1 16 12
M  V30 36 1 3 33
M  V30 37 1 5 34
M  V30 38 1 5 35
M  V30 39 1 7 36
M  V30 40 1 8 37
M  V30 41 1 9 38
M  V30 42 1 11 39
M  V30 43 1 14 40
M  V30 44 1 15 41
M  V30 45 1 18 42
M  V30 46 1 18 43
M  V30 47 1 19 44
M  V30 48 1 19 45
M  V30 49 1 20 46 CFG=3
M  V30 50 1 24 47
M  V30 51 1 25 48
M  V30 52 1 26 49
M  V30 53 1 31 50
M  V30 54 1 31 51
M  V30 55 1 32 52
M  V30 56 1 32 53
M  V30 END BOND
M  V30 END CTAB
M  END
>  <Dataset>  (359) 
ChEMBL_Kinases

>  <Ligand_Instance>  (359) 
nan

>  <PDB_ID>  (359) 
nan

>  <Standardized_SMILES>  (359) 
O=C(O)[C@]1(Cc2cccc(Nc3nccs3)n2)CC[C@@H]([S+]([O-])c2cccc(Cl)c2Cl)CC1

>  <Name>  (359) 
nan

>  <Pocket>  (359) 
nan

>  <ATP_Site>  (359) 
nan

>  <Peripheral>  (359) 
nan

>  <Num_H_Atoms_ProtBoundConf>  (359) 
nan

>  <Num_Resolved_Atoms>  (359) 
nan

>  <Num_Not_Resolved_Atoms>  (359) 
nan

$$$$
CHEMBL4870057
     RDKit          3D

  0  0  0  0  0  0  0  0  0  0999 V3000
M  V30 BEGIN CTAB
M  V30 COUNTS 64 68 0 0 0
M  V30 BEGIN ATOM
M  V30 1 C 2.197827 0.133881 4.224044 0
M  V30 2 N 3.523609 0.330770 3.722911 0
M  V30 3 C 4.870039 0.143058 4.266669 0
M  V30 4 C 5.369471 1.351882 4.943792 0
M  V30 5 C 6.059841 2.235417 4.139647 0
M  V30 6 C 6.578797 3.401836 4.643947 0
M  V30 7 C 6.407261 3.698382 5.983315 0
M  V30 8 C 5.723393 2.835489 6.807360 0
M  V30 9 C 5.218459 1.676060 6.262415 0
M  V30 10 C 3.408981 0.818315 2.394762 0
M  V30 11 O 2.132539 0.827214 2.335271 0
M  V30 12 C 3.427204 1.334307 0.992864 0
M  V30 13 N 2.085994 1.507664 0.478274 0
M  V30 14 C 1.149296 2.614526 0.488449 0
M  V30 15 C -0.027944 2.056767 -0.220407 0
M  V30 16 C -1.250958 2.669993 -0.510853 0
M  V30 17 C -2.247725 1.998095 -1.187437 0
M  V30 18 C -2.077117 0.693123 -1.604755 0
M  V30 19 C -3.078803 -0.097276 -2.326603 0
M  V30 20 N -3.206187 -1.350791 -1.844740 0
M  V30 21 C -4.049578 -2.263895 -2.328271 0
M  V30 22 N -4.159054 -3.586934 -1.794554 0
M  V30 23 C -5.090715 -4.547998 -2.349668 0
M  V30 24 C -4.823490 -4.831267 -3.802672 0
M  V30 25 C -4.285447 -6.265366 -3.888640 0
M  V30 26 O -5.188043 -7.202469 -3.437056 0
M  V30 27 C -5.714093 -6.956637 -2.192772 0
M  V30 28 C -4.938937 -5.825002 -1.551334 0
M  V30 29 N -4.812942 -1.879298 -3.368142 0
M  V30 30 C -4.740078 -0.643962 -3.901599 0
M  V30 31 C -3.860639 0.288612 -3.387788 0
M  V30 32 Cl -3.620662 1.924952 -3.934753 0
M  V30 33 C -0.864301 0.122882 -1.302452 0
M  V30 34 C 0.162450 0.753211 -0.628626 0
M  V30 35 C 1.504985 0.373273 -0.196810 0
M  V30 36 O 1.939950 -0.778231 -0.443494 0
M  V30 37 H 1.632043 -0.645967 3.655937 0
M  V30 38 H 1.562517 1.047811 4.225153 0
M  V30 39 H 2.280870 -0.153319 5.299213 0
M  V30 40 H 5.523917 -0.150714 3.419680 0
M  V30 41 H 4.859621 -0.733312 4.964795 0
M  V30 42 H 6.262861 2.115901 3.065491 0
M  V30 43 H 7.134020 4.172952 4.130023 0
M  V30 44 H 6.775900 4.589238 6.479541 0
M  V30 45 H 5.572396 3.040344 7.862724 0
M  V30 46 H 4.664203 0.949496 6.870550 0
M  V30 47 H 4.079506 0.746188 0.347183 0
M  V30 48 H 3.870308 2.358980 1.074942 0
M  V30 49 H 0.915879 2.968040 1.510342 0
M  V30 50 H 1.620282 3.420029 -0.135744 0
M  V30 51 H -1.410053 3.693810 -0.194315 0
M  V30 52 H -3.210841 2.456920 -1.425119 0
M  V30 53 H -3.518496 -3.810903 -0.974930 0
M  V30 54 H -6.106779 -4.152114 -2.252261 0
M  V30 55 H -4.057433 -4.182638 -4.245937 0
M  V30 56 H -5.732875 -4.730243 -4.396879 0
M  V30 57 H -4.150596 -6.470239 -4.987425 0
M  V30 58 H -3.290195 -6.338377 -3.416386 0
M  V30 59 H -5.764214 -7.840639 -1.528900 0
M  V30 60 H -6.760285 -6.583195 -2.334648 0
M  V30 61 H -5.338098 -5.593718 -0.532843 0
M  V30 62 H -3.891762 -6.131099 -1.472095 0
M  V30 63 H -5.335174 -0.291313 -4.738618 0
M  V30 64 H -0.700439 -0.897882 -1.616052 0
M  V30 END ATOM
M  V30 BEGIN BOND
M  V30 1 1 1 2
M  V30 2 1 2 3
M  V30 3 1 3 4
M  V30 4 2 4 5
M  V30 5 1 5 6
M  V30 6 2 6 7
M  V30 7 1 7 8
M  V30 8 2 8 9
M  V30 9 1 2 10
M  V30 10 2 10 11
M  V30 11 1 10 12
M  V30 12 1 12 13
M  V30 13 1 13 14
M  V30 14 1 14 15
M  V30 15 2 15 16
M  V30 16 1 16 17
M  V30 17 2 17 18
M  V30 18 1 18 19
M  V30 19 2 19 20
M  V30 20 1 20 21
M  V30 21 1 21 22
M  V30 22 1 22 23
M  V30 23 1 23 24
M  V30 24 1 24 25
M  V30 25 1 25 26
M  V30 26 1 26 27
M  V30 27 1 27 28
M  V30 28 2 21 29
M  V30 29 1 29 30
M  V30 30 2 30 31
M  V30 31 1 31 32
M  V30 32 1 18 33
M  V30 33 2 33 34
M  V30 34 1 34 35
M  V30 35 2 35 36
M  V30 36 1 9 4
M  V30 37 1 35 13
M  V30 38 1 34 15
M  V30 39 1 31 19
M  V30 40 1 28 23
M  V30 41 1 1 37
M  V30 42 1 1 38
M  V30 43 1 1 39
M  V30 44 1 3 40
M  V30 45 1 3 41
M  V30 46 1 5 42
M  V30 47 1 6 43
M  V30 48 1 7 44
M  V30 49 1 8 45
M  V30 50 1 9 46
M  V30 51 1 12 47
M  V30 52 1 12 48
M  V30 53 1 14 49
M  V30 54 1 14 50
M  V30 55 1 16 51
M  V30 56 1 17 52
M  V30 57 1 22 53
M  V30 58 1 23 54
M  V30 59 1 24 55
M  V30 60 1 24 56
M  V30 61 1 25 57
M  V30 62 1 25 58
M  V30 63 1 27 59
M  V30 64 1 27 60
M  V30 65 1 28 61
M  V30 66 1 28 62
M  V30 67 1 30 63
M  V30 68 1 33 64
M  V30 END BOND
M  V30 END CTAB
M  END
>  <Dataset>  (360) 
ChEMBL_Kinases

>  <Ligand_Instance>  (360) 
nan

>  <PDB_ID>  (360) 
nan

>  <Standardized_SMILES>  (360) 
CN(Cc1ccccc1)C(=O)CN1Cc2ccc(-c3nc(NC4CCOCC4)ncc3Cl)cc2C1=O

>  <Name>  (360) 
nan

>  <Pocket>  (360) 
nan

>  <ATP_Site>  (360) 
nan

>  <Peripheral>  (360) 
nan

>  <Num_H_Atoms_ProtBoundConf>  (360) 
nan

>  <Num_Resolved_Atoms>  (360) 
nan

>  <Num_Not_Resolved_Atoms>  (360) 
nan

$$$$
CHEMBL85403
     RDKit          3D

  0  0  0  0  0  0  0  0  0  0999 V3000
M  V30 BEGIN CTAB
M  V30 COUNTS 29 31 0 0 0
M  V30 BEGIN ATOM
M  V30 1 C -0.534235 -3.245279 1.523150 0
M  V30 2 C -0.359701 -2.165998 2.490219 0
M  V30 3 C -0.573589 -2.330459 3.847514 0
M  V30 4 C -0.446746 -1.418682 4.868119 0
M  V30 5 C -0.042366 -0.152918 4.448623 0
M  V30 6 C 0.194256 0.101234 3.116037 0
M  V30 7 C 0.037563 -0.892656 2.144760 0
M  V30 8 C 0.370866 -0.272470 0.880276 0
M  V30 9 C 0.319588 -0.838136 -0.309586 0
M  V30 10 C 0.669516 -0.185178 -1.580057 0
M  V30 11 C -0.126013 -0.157212 -2.713832 0
M  V30 12 C 0.493214 0.490484 -3.755975 0
M  V30 13 C 1.714593 0.876522 -3.250107 0
M  V30 14 N 1.768494 0.452694 -1.960871 0
M  V30 15 C 0.733589 1.119647 1.106065 0
M  V30 16 O 1.082593 2.002987 0.289563 0
M  V30 17 N 0.616797 1.329104 2.503867 0
M  V30 18 H 0.427142 -3.581201 1.028302 0
M  V30 19 H -0.770578 -4.172884 2.134637 0
M  V30 20 H -1.390419 -3.177203 0.852176 0
M  V30 21 H -0.891771 -3.337327 4.162698 0
M  V30 22 H -0.653378 -1.701166 5.890666 0
M  V30 23 H 0.076153 0.614473 5.214512 0
M  V30 24 H 0.015785 -1.836261 -0.483707 0
M  V30 25 H -1.133723 -0.568804 -2.872041 0
M  V30 26 H 0.201194 0.710040 -4.773546 0
M  V30 27 H 2.503914 1.422176 -3.772449 0
M  V30 28 H 2.613809 0.627856 -1.381890 0
M  V30 29 H 0.806348 2.234218 3.001572 0
M  V30 END ATOM
M  V30 BEGIN BOND
M  V30 1 1 1 2
M  V30 2 2 2 3
M  V30 3 1 3 4
M  V30 4 2 4 5
M  V30 5 1 5 6
M  V30 6 2 6 7
M  V30 7 1 7 8
M  V30 8 2 8 9
M  V30 9 1 9 10
M  V30 10 2 10 11
M  V30 11 1 11 12
M  V30 12 2 12 13
M  V30 13 1 13 14
M  V30 14 1 8 15
M  V30 15 2 15 16
M  V30 16 1 15 17
M  V30 17 1 7 2
M  V30 18 1 14 10
M  V30 19 1 17 6
M  V30 20 1 1 18
M  V30 21 1 1 19
M  V30 22 1 1 20
M  V30 23 1 3 21
M  V30 24 1 4 22
M  V30 25 1 5 23
M  V30 26 1 9 24
M  V30 27 1 11 25
M  V30 28 1 12 26
M  V30 29 1 13 27
M  V30 30 1 14 28
M  V30 31 1 17 29
M  V30 END BOND
M  V30 END CTAB
M  END
>  <Dataset>  (361) 
ChEMBL_Kinases

>  <Ligand_Instance>  (361) 
nan

>  <PDB_ID>  (361) 
nan

>  <Standardized_SMILES>  (361) 
Cc1cccc2c1/C(=C/c1ccc[nH]1)C(=O)N2

>  <Name>  (361) 
nan

>  <Pocket>  (361) 
nan

>  <ATP_Site>  (361) 
nan

>  <Peripheral>  (361) 
nan

>  <Num_H_Atoms_ProtBoundConf>  (361) 
nan

>  <Num_Resolved_Atoms>  (361) 
nan

>  <Num_Not_Resolved_Atoms>  (361) 
nan

$$$$
CHEMBL85015
     RDKit          3D

  0  0  0  0  0  0  0  0  0  0999 V3000
M  V30 BEGIN CTAB
M  V30 COUNTS 37 39 0 0 0
M  V30 BEGIN ATOM
M  V30 1 C -0.950009 -3.780556 4.474195 0
M  V30 2 C 0.119596 -4.158480 3.449266 0
M  V30 3 C -0.338610 -5.242169 2.513834 0
M  V30 4 N 0.347735 -2.956177 2.671301 0
M  V30 5 C 1.194034 -1.960538 3.011897 0
M  V30 6 N 1.117762 -1.035119 2.035800 0
M  V30 7 C 0.239485 -1.432596 1.090230 0
M  V30 8 C -0.139487 -0.782162 -0.083229 0
M  V30 9 N 0.393589 0.482451 -0.462437 0
M  V30 10 C -0.048676 1.112046 -1.711235 0
M  V30 11 C 0.705237 2.409231 -1.790321 0
M  V30 12 C 0.116049 3.519506 -1.218204 0
M  V30 13 C 0.727357 4.756137 -1.237914 0
M  V30 14 C 1.959806 4.832145 -1.858398 0
M  V30 15 C 2.574332 3.740543 -2.439161 0
M  V30 16 C 1.942072 2.493531 -2.411087 0
M  V30 17 N -1.046076 -1.432265 -0.835912 0
M  V30 18 C -1.526249 -2.621072 -0.448122 0
M  V30 19 N -1.134578 -3.224507 0.700585 0
M  V30 20 C -0.237446 -2.641905 1.501968 0
M  V30 21 H -0.880558 -2.697334 4.742512 0
M  V30 22 H -0.789389 -4.352696 5.402383 0
M  V30 23 H -1.944528 -3.915735 4.015304 0
M  V30 24 H 1.073410 -4.436041 3.970729 0
M  V30 25 H -1.450646 -5.237850 2.480380 0
M  V30 26 H 0.027511 -5.149191 1.481224 0
M  V30 27 H 0.046431 -6.236697 2.874858 0
M  V30 28 H 1.824570 -1.889697 3.890530 0
M  V30 29 H 1.095769 0.908488 0.192610 0
M  V30 30 H 0.140475 0.480592 -2.592315 0
M  V30 31 H -1.122882 1.322692 -1.649966 0
M  V30 32 H -0.845496 3.464856 -0.732983 0
M  V30 33 H 0.333055 5.671354 -0.813673 0
M  V30 34 H 2.484071 5.788116 -1.900434 0
M  V30 35 H 3.537380 3.761827 -2.933188 0
M  V30 36 H 2.310480 1.566618 -2.824719 0
M  V30 37 H -2.257928 -3.083774 -1.113335 0
M  V30 END ATOM
M  V30 BEGIN BOND
M  V30 1 1 1 2
M  V30 2 1 2 3
M  V30 3 1 2 4
M  V30 4 1 4 5
M  V30 5 2 5 6
M  V30 6 1 6 7
M  V30 7 2 7 8
M  V30 8 1 8 9
M  V30 9 1 9 10
M  V30 10 1 10 11
M  V30 11 2 11 12
M  V30 12 1 12 13
M  V30 13 2 13 14
M  V30 14 1 14 15
M  V30 15 2 15 16
M  V30 16 1 8 17
M  V30 17 2 17 18
M  V30 18 1 18 19
M  V30 19 2 19 20
M  V30 20 1 20 4
M  V30 21 1 20 7
M  V30 22 1 16 11
M  V30 23 1 1 21
M  V30 24 1 1 22
M  V30 25 1 1 23
M  V30 26 1 2 24
M  V30 27 1 3 25
M  V30 28 1 3 26
M  V30 29 1 3 27
M  V30 30 1 5 28
M  V30 31 1 9 29
M  V30 32 1 10 30
M  V30 33 1 10 31
M  V30 34 1 12 32
M  V30 35 1 13 33
M  V30 36 1 14 34
M  V30 37 1 15 35
M  V30 38 1 16 36
M  V30 39 1 18 37
M  V30 END BOND
M  V30 END CTAB
M  END
>  <Dataset>  (362) 
ChEMBL_Kinases

>  <Ligand_Instance>  (362) 
nan

>  <PDB_ID>  (362) 
nan

>  <Standardized_SMILES>  (362) 
CC(C)n1cnc2c(NCc3ccccc3)ncnc21

>  <Name>  (362) 
nan

>  <Pocket>  (362) 
nan

>  <ATP_Site>  (362) 
nan

>  <Peripheral>  (362) 
nan

>  <Num_H_Atoms_ProtBoundConf>  (362) 
nan

>  <Num_Resolved_Atoms>  (362) 
nan

>  <Num_Not_Resolved_Atoms>  (362) 
nan

$$$$
CHEMBL4870100
     RDKit          3D

  0  0  0  0  0  0  0  0  0  0999 V3000
M  V30 BEGIN CTAB
M  V30 COUNTS 56 58 0 0 0
M  V30 BEGIN ATOM
M  V30 1 C 0.626277 -4.196793 2.232755 0
M  V30 2 C 0.447302 -2.721682 2.267700 0
M  V30 3 C 1.280762 -1.947993 3.053839 0
M  V30 4 C 1.119609 -0.572991 3.090444 0
M  V30 5 N 1.910811 0.327912 3.857272 0
M  V30 6 C 3.102497 0.906095 3.299479 0
M  V30 7 O 3.261191 0.478548 2.115396 0
M  V30 8 C 3.960970 1.851084 4.060082 0 CFG=2
M  V30 9 O 3.360004 2.001656 5.331581 0
M  V30 10 C 3.902931 3.203587 3.447266 0
M  V30 11 C 4.285277 4.223223 4.325809 0
M  V30 12 C 4.303529 5.570892 3.954340 0
M  V30 13 F 4.680155 6.529467 4.834069 0
M  V30 14 C 3.930729 5.915077 2.671844 0
M  V30 15 C 3.559604 4.912395 1.823280 0
M  V30 16 F 3.172693 5.135440 0.535108 0
M  V30 17 C 3.537050 3.579661 2.176427 0
M  V30 18 C 0.120752 0.004702 2.334468 0
M  V30 19 C -0.711066 -0.775383 1.548908 0
M  V30 20 C -0.548298 -2.163758 1.512005 0
M  V30 21 C -1.465810 -2.912554 0.660145 0
M  V30 22 C -2.150916 -4.073914 0.949819 0
M  V30 23 N -2.960400 -4.627978 0.032655 0
M  V30 24 C -3.178260 -4.140201 -1.194480 0
M  V30 25 N -4.053428 -4.788995 -2.109550 0
M  V30 26 C -2.500600 -2.973661 -1.508282 0
M  V30 27 C -2.673474 -2.364634 -2.823570 0
M  V30 28 O -2.083166 -1.306756 -3.161422 0
M  V30 29 O -3.504726 -2.921991 -3.782812 0
M  V30 30 C -3.688524 -2.350653 -5.064064 0
M  V30 31 C -3.394670 -3.298066 -6.186787 0
M  V30 32 C -5.136308 -1.909200 -5.177563 0
M  V30 33 C -1.656425 -2.361185 -0.605240 0
M  V30 34 H 1.703953 -4.447953 2.339871 0
M  V30 35 H 0.320589 -4.543540 1.229201 0
M  V30 36 H 0.125570 -4.721895 3.071248 0
M  V30 37 H 2.074273 -2.366713 3.659341 0
M  V30 38 H 1.623884 0.579259 4.850769 0
M  V30 39 H 5.002136 1.481943 4.156111 0
M  V30 40 H 3.901067 1.440754 5.944221 0
M  V30 41 H 4.597286 4.039477 5.366042 0
M  V30 42 H 3.921015 6.941675 2.314335 0
M  V30 43 H 3.254731 2.742986 1.554773 0
M  V30 44 H -0.058914 1.080934 2.318703 0
M  V30 45 H -1.496439 -0.282006 0.959332 0
M  V30 46 H -1.970134 -4.456676 1.935292 0
M  V30 47 H -4.858183 -4.138300 -2.311640 0
M  V30 48 H -3.701709 -5.754638 -2.370463 0
M  V30 49 H -3.090900 -1.417527 -5.194027 0
M  V30 50 H -2.614776 -4.044213 -5.943390 0
M  V30 51 H -3.017638 -2.694620 -7.051129 0
M  V30 52 H -4.341177 -3.767699 -6.511235 0
M  V30 53 H -5.813028 -2.747131 -5.406304 0
M  V30 54 H -5.206750 -1.212233 -6.061885 0
M  V30 55 H -5.438099 -1.313045 -4.306793 0
M  V30 56 H -1.149326 -1.436050 -0.920451 0
M  V30 END ATOM
M  V30 BEGIN BOND
M  V30 1 1 1 2
M  V30 2 2 2 3
M  V30 3 1 3 4
M  V30 4 1 4 5
M  V30 5 1 5 6
M  V30 6 2 6 7
M  V30 7 1 6 8
M  V30 8 1 8 9
M  V30 9 1 8 10
M  V30 10 2 10 11
M  V30 11 1 11 12
M  V30 12 1 12 13
M  V30 13 2 12 14
M  V30 14 1 14 15
M  V30 15 1 15 16
M  V30 16 2 15 17
M  V30 17 2 4 18
M  V30 18 1 18 19
M  V30 19 2 19 20
M  V30 20 1 20 21
M  V30 21 2 21 22
M  V30 22 1 22 23
M  V30 23 2 23 24
M  V30 24 1 24 25
M  V30 25 1 24 26
M  V30 26 1 26 27
M  V30 27 2 27 28
M  V30 28 1 27 29
M  V30 29 1 29 30
M  V30 30 1 30 31
M  V30 31 1 30 32
M  V30 32 2 26 33
M  V30 33 1 20 2
M  V30 34 1 33 21
M  V30 35 1 17 10
M  V30 36 1 1 34
M  V30 37 1 1 35
M  V30 38 1 1 36
M  V30 39 1 3 37
M  V30 40 1 5 38
M  V30 41 1 8 39 CFG=1
M  V30 42 1 9 40
M  V30 43 1 11 41
M  V30 44 1 14 42
M  V30 45 1 17 43
M  V30 46 1 18 44
M  V30 47 1 19 45
M  V30 48 1 22 46
M  V30 49 1 25 47
M  V30 50 1 25 48
M  V30 51 1 30 49
M  V30 52 1 31 50
M  V30 53 1 31 51
M  V30 54 1 31 52
M  V30 55 1 32 53
M  V30 56 1 32 54
M  V30 57 1 32 55
M  V30 58 1 33 56
M  V30 END BOND
M  V30 END CTAB
M  END
>  <Dataset>  (363) 
ChEMBL_Kinases

>  <Ligand_Instance>  (363) 
nan

>  <PDB_ID>  (363) 
nan

>  <Standardized_SMILES>  (363) 
Cc1cc(NC(=O)[C@H](O)c2cc(F)cc(F)c2)ccc1-c1cnc(N)c(C(=O)OC(C)C)c1

>  <Name>  (363) 
nan

>  <Pocket>  (363) 
nan

>  <ATP_Site>  (363) 
nan

>  <Peripheral>  (363) 
nan

>  <Num_H_Atoms_ProtBoundConf>  (363) 
nan

>  <Num_Resolved_Atoms>  (363) 
nan

>  <Num_Not_Resolved_Atoms>  (363) 
nan

$$$$
CHEMBL4870121
     RDKit          3D

  0  0  0  0  0  0  0  0  0  0999 V3000
M  V30 BEGIN CTAB
M  V30 COUNTS 37 40 0 0 0
M  V30 BEGIN ATOM
M  V30 1 C 0.359867 -3.837212 3.898490 0
M  V30 2 C -0.110814 -3.367483 2.546964 0 CFG=2
M  V30 3 C 0.220686 -4.426322 1.516485 0
M  V30 4 C 1.384333 -3.817265 0.761478 0
M  V30 5 N 0.971886 -2.422033 0.771383 0
M  V30 6 C 0.938427 -1.590249 -0.385844 0
M  V30 7 N 1.307723 -2.119489 -1.552204 0
M  V30 8 C 1.316356 -1.428961 -2.712021 0
M  V30 9 C 0.908584 -0.133184 -2.570365 0
M  V30 10 C 0.510896 0.495222 -1.408551 0
M  V30 11 C 0.092634 1.891921 -1.372442 0
M  V30 12 C 0.028833 2.759975 -2.421364 0
M  V30 13 N -0.413851 3.941136 -1.905173 0
M  V30 14 N -0.604817 3.770454 -0.587533 0
M  V30 15 N -1.028281 4.659594 0.293651 0
M  V30 16 C -1.170668 4.332061 1.598342 0
M  V30 17 C -0.875888 3.046599 2.057759 0
M  V30 18 C -0.440515 2.158806 1.109397 0
M  V30 19 C -0.305913 2.523030 -0.211854 0
M  V30 20 N 0.544863 -0.306120 -0.303085 0
M  V30 21 C 0.627059 -2.105901 2.150218 0
M  V30 22 H 1.041209 -4.683069 3.778812 0
M  V30 23 H -0.552990 -4.183532 4.455297 0
M  V30 24 H 0.796820 -2.955307 4.419214 0
M  V30 25 H -1.203051 -3.164216 2.530025 0
M  V30 26 H -0.615612 -4.533550 0.775295 0
M  V30 27 H 0.486416 -5.399227 1.973033 0
M  V30 28 H 2.291520 -3.900302 1.364149 0
M  V30 29 H 1.480927 -4.217054 -0.261124 0
M  V30 30 H 1.611414 -1.837667 -3.666717 0
M  V30 31 H 0.880885 0.512495 -3.459299 0
M  V30 32 H 0.274417 2.577540 -3.468791 0
M  V30 33 H -1.519507 5.078960 2.300972 0
M  V30 34 H -0.980218 2.753694 3.098838 0
M  V30 35 H -0.204510 1.163725 1.422304 0
M  V30 36 H -0.021516 -1.208159 2.204406 0
M  V30 37 H 1.570047 -1.985333 2.702827 0
M  V30 END ATOM
M  V30 BEGIN BOND
M  V30 1 1 1 2
M  V30 2 1 2 3
M  V30 3 1 3 4
M  V30 4 1 4 5
M  V30 5 1 5 6
M  V30 6 2 6 7
M  V30 7 1 7 8
M  V30 8 2 8 9
M  V30 9 1 9 10
M  V30 10 1 10 11
M  V30 11 1 11 12
M  V30 12 2 12 13
M  V30 13 1 13 14
M  V30 14 1 14 15
M  V30 15 2 15 16
M  V30 16 1 16 17
M  V30 17 2 17 18
M  V30 18 1 18 19
M  V30 19 2 10 20
M  V30 20 1 5 21
M  V30 21 1 21 2
M  V30 22 1 20 6
M  V30 23 2 19 11
M  V30 24 1 19 14
M  V30 25 1 1 22
M  V30 26 1 1 23
M  V30 27 1 1 24
M  V30 28 1 2 25 CFG=1
M  V30 29 1 3 26
M  V30 30 1 3 27
M  V30 31 1 4 28
M  V30 32 1 4 29
M  V30 33 1 8 30
M  V30 34 1 9 31
M  V30 35 1 12 32
M  V30 36 1 16 33
M  V30 37 1 17 34
M  V30 38 1 18 35
M  V30 39 1 21 36
M  V30 40 1 21 37
M  V30 END BOND
M  V30 END CTAB
M  END
>  <Dataset>  (364) 
ChEMBL_Kinases

>  <Ligand_Instance>  (364) 
nan

>  <PDB_ID>  (364) 
nan

>  <Standardized_SMILES>  (364) 
C[C@@H]1CCN(c2nccc(-c3cnn4ncccc34)n2)C1

>  <Name>  (364) 
nan

>  <Pocket>  (364) 
nan

>  <ATP_Site>  (364) 
nan

>  <Peripheral>  (364) 
nan

>  <Num_H_Atoms_ProtBoundConf>  (364) 
nan

>  <Num_Resolved_Atoms>  (364) 
nan

>  <Num_Not_Resolved_Atoms>  (364) 
nan

$$$$
CHEMBL4870044
     RDKit          3D

  0  0  0  0  0  0  0  0  0  0999 V3000
M  V30 BEGIN CTAB
M  V30 COUNTS 51 53 0 0 0
M  V30 BEGIN ATOM
M  V30 1 C -0.735880 -6.085865 2.279549 0
M  V30 2 N 0.225598 -5.370097 3.096991 0
M  V30 3 C 1.641472 -5.182603 2.949189 0
M  V30 4 C 1.971803 -4.065107 2.223220 0
M  V30 5 C 3.262751 -3.714400 1.972904 0
M  V30 6 O 3.826742 -2.661969 1.285014 0
M  V30 7 C 3.136298 -1.660845 0.626526 0
M  V30 8 C 3.286503 -0.328782 1.031097 0
M  V30 9 C 2.607760 0.686466 0.387687 0
M  V30 10 C 2.767300 2.101186 0.817193 0
M  V30 11 C 1.763064 0.416679 -0.671319 0
M  V30 12 N 1.024044 1.432182 -1.386271 0
M  V30 13 C -0.257114 1.675399 -0.825683 0
M  V30 14 O -0.565131 0.996771 0.183354 0
M  V30 15 N -1.189658 2.617835 -1.325482 0
M  V30 16 C -2.485699 2.955914 -0.868068 0
M  V30 17 C -3.197658 3.908059 -1.524467 0
M  V30 18 C -4.454383 4.287850 -1.142851 0
M  V30 19 C -5.072540 3.717589 -0.058842 0
M  V30 20 C -4.398848 2.754762 0.635514 0
M  V30 21 C -5.027397 2.107068 1.818040 0
M  V30 22 F -4.973664 3.014617 2.864464 0
M  V30 23 F -6.346593 1.810567 1.598419 0
M  V30 24 F -4.331572 0.968546 2.194760 0
M  V30 25 C -3.134101 2.405583 0.212369 0
M  V30 26 C 1.590140 -0.884652 -1.098313 0
M  V30 27 C 2.282112 -1.877386 -0.435449 0
M  V30 28 C 2.070356 -3.259211 -0.941812 0
M  V30 29 N 4.255721 -4.509086 2.466419 0
M  V30 30 C 3.908987 -5.616412 3.186250 0
M  V30 31 N 2.628497 -5.960003 3.431471 0
M  V30 32 H -1.370165 -5.344665 1.734216 0
M  V30 33 H -1.383983 -6.746318 2.888089 0
M  V30 34 H -0.183518 -6.742254 1.594108 0
M  V30 35 H 0.001443 -4.851373 3.975617 0
M  V30 36 H 1.262667 -3.383551 1.804230 0
M  V30 37 H 3.952136 -0.081847 1.871346 0
M  V30 38 H 2.124816 2.221378 1.727963 0
M  V30 39 H 3.818318 2.282327 1.181996 0
M  V30 40 H 2.470648 2.813039 0.042973 0
M  V30 41 H 1.308670 1.976900 -2.220944 0
M  V30 42 H -0.805745 3.108023 -2.160894 0
M  V30 43 H -2.747067 4.396581 -2.400821 0
M  V30 44 H -4.948931 5.053704 -1.722606 0
M  V30 45 H -6.067071 4.048665 0.207030 0
M  V30 46 H -2.650495 1.640181 0.798551 0
M  V30 47 H 0.924957 -1.102530 -1.933111 0
M  V30 48 H 2.796895 -3.986352 -0.563621 0
M  V30 49 H 1.016391 -3.521470 -0.636361 0
M  V30 50 H 2.024880 -3.270649 -2.069144 0
M  V30 51 H 4.623948 -6.317151 3.624170 0
M  V30 END ATOM
M  V30 BEGIN BOND
M  V30 1 1 1 2
M  V30 2 1 2 3
M  V30 3 2 3 4
M  V30 4 1 4 5
M  V30 5 1 5 6
M  V30 6 1 6 7
M  V30 7 2 7 8
M  V30 8 1 8 9
M  V30 9 1 9 10
M  V30 10 2 9 11
M  V30 11 1 11 12
M  V30 12 1 12 13
M  V30 13 2 13 14
M  V30 14 1 13 15
M  V30 15 1 15 16
M  V30 16 2 16 17
M  V30 17 1 17 18
M  V30 18 2 18 19
M  V30 19 1 19 20
M  V30 20 1 20 21
M  V30 21 1 21 22
M  V30 22 1 21 23
M  V30 23 1 21 24
M  V30 24 2 20 25
M  V30 25 1 11 26
M  V30 26 2 26 27
M  V30 27 1 27 28
M  V30 28 2 5 29
M  V30 29 1 29 30
M  V30 30 2 30 31
M  V30 31 1 31 3
M  V30 32 1 27 7
M  V30 33 1 25 16
M  V30 34 1 1 32
M  V30 35 1 1 33
M  V30 36 1 1 34
M  V30 37 1 2 35
M  V30 38 1 4 36
M  V30 39 1 8 37
M  V30 40 1 10 38
M  V30 41 1 10 39
M  V30 42 1 10 40
M  V30 43 1 12 41
M  V30 44 1 15 42
M  V30 45 1 17 43
M  V30 46 1 18 44
M  V30 47 1 19 45
M  V30 48 1 25 46
M  V30 49 1 26 47
M  V30 50 1 28 48
M  V30 51 1 28 49
M  V30 52 1 28 50
M  V30 53 1 30 51
M  V30 END BOND
M  V30 END CTAB
M  END
>  <Dataset>  (365) 
ChEMBL_Kinases

>  <Ligand_Instance>  (365) 
nan

>  <PDB_ID>  (365) 
nan

>  <Standardized_SMILES>  (365) 
CNc1cc(Oc2cc(C)c(NC(=O)Nc3cccc(C(F)(F)F)c3)cc2C)ncn1

>  <Name>  (365) 
nan

>  <Pocket>  (365) 
nan

>  <ATP_Site>  (365) 
nan

>  <Peripheral>  (365) 
nan

>  <Num_H_Atoms_ProtBoundConf>  (365) 
nan

>  <Num_Resolved_Atoms>  (365) 
nan

>  <Num_Not_Resolved_Atoms>  (365) 
nan

$$$$
CHEMBL81971
     RDKit          3D

  0  0  0  0  0  0  0  0  0  0999 V3000
M  V30 BEGIN CTAB
M  V30 COUNTS 67 67 0 0 0
M  V30 BEGIN ATOM
M  V30 1 C 3.551211 -1.637055 6.266832 0
M  V30 2 C 3.828077 -0.781411 5.046099 0
M  V30 3 C 2.602788 -0.812965 4.161962 0
M  V30 4 C 2.795797 0.028150 2.900832 0
M  V30 5 C 3.067326 1.463315 3.232853 0
M  V30 6 C 3.262341 2.311874 1.988673 0
M  V30 7 C 2.017411 2.272124 1.113898 0
M  V30 8 C 2.266003 3.120426 -0.087503 0
M  V30 9 C 1.121262 3.178678 -1.040864 0
M  V30 10 C 0.819603 1.753626 -1.535157 0
M  V30 11 C -0.307928 1.734641 -2.490892 0
M  V30 12 C -0.630403 0.444828 -3.092971 0
M  V30 13 C -1.032461 -0.748494 -2.335988 0
M  V30 14 C -0.117400 -1.401772 -1.392239 0
M  V30 15 C -0.761282 -2.660512 -0.744982 0
M  V30 16 C -1.982496 -2.369775 0.017351 0
M  V30 17 C -3.254765 -3.003651 -0.391976 0 CFG=1
M  V30 18 O -4.182914 -2.061423 -0.897415 0
M  V30 19 C -5.400415 -1.875186 -0.273587 0
M  V30 20 C -6.383222 -0.889340 -0.794136 0
M  V30 21 O -5.712123 -2.546809 0.767852 0
M  V30 22 C -3.144795 -4.156872 -1.351287 0 CFG=2
M  V30 23 C -2.874287 -5.418146 -0.546438 0
M  V30 24 O -1.652568 -5.311760 0.102469 0
M  V30 25 O -2.118851 -3.961787 -2.328244 0
M  V30 26 C -0.874424 -3.630563 -1.855875 0
M  V30 27 O 0.230865 -4.098278 -2.302137 0
M  V30 28 H 4.447620 -1.700286 6.925427 0
M  V30 29 H 2.768957 -1.156560 6.914210 0
M  V30 30 H 3.243029 -2.654608 6.011437 0
M  V30 31 H 4.711592 -1.226608 4.552635 0
M  V30 32 H 4.076757 0.227372 5.418274 0
M  V30 33 H 2.441488 -1.874448 3.885561 0
M  V30 34 H 1.757476 -0.412890 4.779754 0
M  V30 35 H 1.898013 -0.124058 2.295533 0
M  V30 36 H 3.659436 -0.393052 2.367245 0
M  V30 37 H 2.111215 1.852650 3.688010 0
M  V30 38 H 3.882377 1.614267 3.936097 0
M  V30 39 H 4.136325 1.859847 1.452185 0
M  V30 40 H 3.569213 3.335976 2.263857 0
M  V30 41 H 1.951708 1.216488 0.761364 0
M  V30 42 H 1.172234 2.589334 1.735103 0
M  V30 43 H 3.169374 2.699488 -0.600860 0
M  V30 44 H 2.581885 4.131260 0.242297 0
M  V30 45 H 0.234800 3.588055 -0.516937 0
M  V30 46 H 1.322504 3.864031 -1.886846 0
M  V30 47 H 1.721342 1.357212 -1.967316 0
M  V30 48 H 0.447210 1.269462 -0.602715 0
M  V30 49 H -0.058102 2.440230 -3.349571 0
M  V30 50 H -1.217427 2.226923 -1.994804 0
M  V30 51 H -1.435261 0.661377 -3.898026 0
M  V30 52 H 0.249303 0.173828 -3.776948 0
M  V30 53 H -1.277528 -1.541866 -3.131418 0
M  V30 54 H -2.082847 -0.610023 -1.888454 0
M  V30 55 H 0.738024 -1.841889 -1.994574 0
M  V30 56 H 0.285566 -0.867989 -0.549285 0
M  V30 57 H 0.032810 -3.047184 -0.066701 0
M  V30 58 H -1.817267 -2.569989 1.123572 0
M  V30 59 H -2.140359 -1.249448 0.021660 0
M  V30 60 H -3.774596 -3.443854 0.511073 0
M  V30 61 H -6.925474 -0.483383 0.098561 0
M  V30 62 H -7.043588 -1.290742 -1.565459 0
M  V30 63 H -5.775779 -0.015125 -1.166981 0
M  V30 64 H -4.086965 -4.262009 -1.902869 0
M  V30 65 H -2.875359 -6.322633 -1.197484 0
M  V30 66 H -3.653618 -5.457087 0.244531 0
M  V30 67 H -1.567674 -6.004148 0.796505 0
M  V30 END ATOM
M  V30 BEGIN BOND
M  V30 1 1 1 2
M  V30 2 1 2 3
M  V30 3 1 3 4
M  V30 4 1 4 5
M  V30 5 1 5 6
M  V30 6 1 6 7
M  V30 7 1 7 8
M  V30 8 1 8 9
M  V30 9 1 9 10
M  V30 10 1 10 11
M  V30 11 1 11 12
M  V30 12 1 12 13
M  V30 13 1 13 14
M  V30 14 1 14 15
M  V30 15 1 15 16
M  V30 16 1 16 17
M  V30 17 1 17 18
M  V30 18 1 18 19
M  V30 19 1 19 20
M  V30 20 2 19 21
M  V30 21 1 17 22
M  V30 22 1 22 23
M  V30 23 1 23 24
M  V30 24 1 22 25
M  V30 25 1 25 26
M  V30 26 2 26 27
M  V30 27 1 26 15
M  V30 28 1 1 28
M  V30 29 1 1 29
M  V30 30 1 1 30
M  V30 31 1 2 31
M  V30 32 1 2 32
M  V30 33 1 3 33
M  V30 34 1 3 34
M  V30 35 1 4 35
M  V30 36 1 4 36
M  V30 37 1 5 37
M  V30 38 1 5 38
M  V30 39 1 6 39
M  V30 40 1 6 40
M  V30 41 1 7 41
M  V30 42 1 7 42
M  V30 43 1 8 43
M  V30 44 1 8 44
M  V30 45 1 9 45
M  V30 46 1 9 46
M  V30 47 1 10 47
M  V30 48 1 10 48
M  V30 49 1 11 49
M  V30 50 1 11 50
M  V30 51 1 12 51
M  V30 52 1 12 52
M  V30 53 1 13 53
M  V30 54 1 13 54
M  V30 55 1 14 55
M  V30 56 1 14 56
M  V30 57 1 15 57
M  V30 58 1 16 58
M  V30 59 1 16 59
M  V30 60 1 17 60 CFG=1
M  V30 61 1 20 61
M  V30 62 1 20 62
M  V30 63 1 20 63
M  V30 64 1 22 64 CFG=3
M  V30 65 1 23 65
M  V30 66 1 23 66
M  V30 67 1 24 67
M  V30 END BOND
M  V30 END CTAB
M  END
>  <Dataset>  (366) 
ChEMBL_Kinases

>  <Ligand_Instance>  (366) 
nan

>  <PDB_ID>  (366) 
nan

>  <Standardized_SMILES>  (366) 
CCCCCCCCCCCCCCC1C[C@@H](OC(C)=O)[C@H](CO)OC1=O

>  <Name>  (366) 
nan

>  <Pocket>  (366) 
nan

>  <ATP_Site>  (366) 
nan

>  <Peripheral>  (366) 
nan

>  <Num_H_Atoms_ProtBoundConf>  (366) 
nan

>  <Num_Resolved_Atoms>  (366) 
nan

>  <Num_Not_Resolved_Atoms>  (366) 
nan

$$$$
CHEMBL81714
     RDKit          3D

  0  0  0  0  0  0  0  0  0  0999 V3000
M  V30 BEGIN CTAB
M  V30 COUNTS 40 42 0 0 0
M  V30 BEGIN ATOM
M  V30 1 O 2.332411 -0.074610 -0.891177 0
M  V30 2 C 1.644560 -0.657865 -0.026228 0
M  V30 3 N 2.166322 -1.025084 1.241719 0
M  V30 4 C 3.537330 -0.754757 1.638997 0
M  V30 5 C 3.734195 0.718252 1.588461 0
M  V30 6 C 4.445097 1.317022 0.544103 0
M  V30 7 C 4.661012 2.677310 0.443521 0
M  V30 8 C 4.155128 3.504762 1.416848 0
M  V30 9 O 4.381847 4.876278 1.300484 0
M  V30 10 C 3.450900 2.944607 2.457574 0
M  V30 11 C 3.237886 1.567177 2.550562 0
M  V30 12 O 2.526965 1.022060 3.604605 0
M  V30 13 C 0.248453 -0.971544 -0.337760 0
M  V30 14 C -0.301590 -0.628798 -1.556247 0
M  V30 15 C -1.587423 -0.853322 -1.991439 0
M  V30 16 C -2.409196 -1.505019 -1.074212 0
M  V30 17 C -3.707741 -1.751573 -1.467720 0
M  V30 18 C -4.546002 -2.395378 -0.581876 0
M  V30 19 C -4.027865 -2.753976 0.649673 0
M  V30 20 C -4.918787 -3.434789 1.582984 0
M  V30 21 O -4.553289 -3.804886 2.728613 0
M  V30 22 O -6.239397 -3.725593 1.276127 0
M  V30 23 C -2.730088 -2.512545 1.054589 0
M  V30 24 O -2.287130 -2.909840 2.319387 0
M  V30 25 C -1.880745 -1.859336 0.155412 0
M  V30 26 N -0.605408 -1.597986 0.496459 0
M  V30 27 H 1.545984 -1.511665 1.926709 0
M  V30 28 H 4.217660 -1.239623 0.896004 0
M  V30 29 H 3.791144 -1.187550 2.604350 0
M  V30 30 H 4.873814 0.731203 -0.255907 0
M  V30 31 H 5.215980 3.109488 -0.377871 0
M  V30 32 H 4.045598 5.301178 0.430421 0
M  V30 33 H 3.068461 3.623645 3.204747 0
M  V30 34 H 2.869449 1.111908 4.560244 0
M  V30 35 H 0.364051 -0.116633 -2.261297 0
M  V30 36 H -1.934667 -0.555010 -2.951006 0
M  V30 37 H -4.067663 -1.458777 -2.425818 0
M  V30 38 H -5.559659 -2.589595 -0.886068 0
M  V30 39 H -6.732064 -4.554491 1.609549 0
M  V30 40 H -2.222051 -3.923087 2.508311 0
M  V30 END ATOM
M  V30 BEGIN BOND
M  V30 1 2 1 2
M  V30 2 1 2 3
M  V30 3 1 3 4
M  V30 4 1 4 5
M  V30 5 2 5 6
M  V30 6 1 6 7
M  V30 7 2 7 8
M  V30 8 1 8 9
M  V30 9 1 8 10
M  V30 10 2 10 11
M  V30 11 1 11 12
M  V30 12 1 2 13
M  V30 13 2 13 14
M  V30 14 1 14 15
M  V30 15 2 15 16
M  V30 16 1 16 17
M  V30 17 2 17 18
M  V30 18 1 18 19
M  V30 19 1 19 20
M  V30 20 2 20 21
M  V30 21 1 20 22
M  V30 22 2 19 23
M  V30 23 1 23 24
M  V30 24 1 23 25
M  V30 25 2 25 26
M  V30 26 1 11 5
M  V30 27 1 26 13
M  V30 28 1 25 16
M  V30 29 1 3 27
M  V30 30 1 4 28
M  V30 31 1 4 29
M  V30 32 1 6 30
M  V30 33 1 7 31
M  V30 34 1 9 32
M  V30 35 1 10 33
M  V30 36 1 12 34
M  V30 37 1 14 35
M  V30 38 1 15 36
M  V30 39 1 17 37
M  V30 40 1 18 38
M  V30 41 1 22 39
M  V30 42 1 24 40
M  V30 END BOND
M  V30 END CTAB
M  END
>  <Dataset>  (367) 
ChEMBL_Kinases

>  <Ligand_Instance>  (367) 
nan

>  <PDB_ID>  (367) 
nan

>  <Standardized_SMILES>  (367) 
O=C(NCc1ccc(O)cc1O)c1ccc2ccc(C(=O)O)c(O)c2n1

>  <Name>  (367) 
nan

>  <Pocket>  (367) 
nan

>  <ATP_Site>  (367) 
nan

>  <Peripheral>  (367) 
nan

>  <Num_H_Atoms_ProtBoundConf>  (367) 
nan

>  <Num_Resolved_Atoms>  (367) 
nan

>  <Num_Not_Resolved_Atoms>  (367) 
nan

$$$$
CHEMBL4871382
     RDKit          3D

  0  0  0  0  0  0  0  0  0  0999 V3000
M  V30 BEGIN CTAB
M  V30 COUNTS 57 60 0 0 0
M  V30 BEGIN ATOM
M  V30 1 C -2.190749 -4.524974 3.210689 0
M  V30 2 O -1.400159 -3.549246 2.604386 0
M  V30 3 C -0.753503 -3.620909 1.404082 0
M  V30 4 C -0.736077 -4.676780 0.517873 0
M  V30 5 C -0.055299 -4.672606 -0.681609 0
M  V30 6 C 0.647168 -3.528243 -0.995703 0
M  V30 7 C 0.672950 -2.434774 -0.155397 0
M  V30 8 C -0.023707 -2.485227 1.034685 0
M  V30 9 N 0.029716 -1.354538 1.859327 0
M  V30 10 C 0.687762 -0.102734 1.705082 0
M  V30 11 N 1.931982 0.172298 2.106022 0
M  V30 12 C 2.479669 1.392627 1.919305 0
M  V30 13 C 1.663497 2.308292 1.294175 0
M  V30 14 C 2.261409 3.616387 1.097600 0
M  V30 15 N 3.564482 3.994642 1.490329 0
M  V30 16 O 2.085095 4.760210 0.647787 0
M  V30 17 C 0.376622 2.080395 0.860791 0
M  V30 18 N -0.430243 3.058345 0.218858 0
M  V30 19 C -1.766056 2.682197 -0.183389 0
M  V30 20 C -2.397666 3.895499 -0.832759 0
M  V30 21 C -3.364043 4.484969 0.177415 0
M  V30 22 C -3.075922 3.739807 1.480714 0
M  V30 23 C -2.685734 2.396435 0.960282 0
M  V30 24 N -0.064856 0.836095 1.097360 0
M  V30 25 C 1.375205 -3.562218 -2.310065 0
M  V30 26 N 1.897308 -4.902042 -2.427217 0
M  V30 27 C 2.754670 -5.278219 -1.343052 0
M  V30 28 C 0.872426 -5.909186 -2.578498 0
M  V30 29 C -0.160378 -5.906832 -1.496700 0
M  V30 30 H -3.094658 -4.055773 3.651472 0
M  V30 31 H -2.516034 -5.257535 2.451371 0
M  V30 32 H -1.674496 -5.108178 4.011729 0
M  V30 33 H -1.307224 -5.533635 0.833593 0
M  V30 34 H 1.249655 -1.566427 -0.470572 0
M  V30 35 H -0.451484 -1.281898 2.776037 0
M  V30 36 H 3.483017 1.616729 2.241824 0
M  V30 37 H 3.992652 4.204153 2.410689 0
M  V30 38 H 3.749096 4.152905 2.520131 0
M  V30 39 H -0.037476 4.010338 0.058615 0
M  V30 40 H -1.783219 1.801138 -0.851778 0
M  V30 41 H -2.934665 3.566114 -1.737931 0
M  V30 42 H -1.624473 4.667392 -1.083218 0
M  V30 43 H -3.212269 5.561514 0.340302 0
M  V30 44 H -4.418108 4.237788 -0.093239 0
M  V30 45 H -3.998290 3.630503 2.087390 0
M  V30 46 H -2.305309 4.242270 2.073069 0
M  V30 47 H -3.573839 1.878286 0.569390 0
M  V30 48 H -2.247323 1.730084 1.728374 0
M  V30 49 H 2.267795 -2.892553 -2.270887 0
M  V30 50 H 0.715828 -3.352549 -3.149837 0
M  V30 51 H 3.513572 -6.042540 -1.657681 0
M  V30 52 H 2.217818 -5.748087 -0.493827 0
M  V30 53 H 3.325880 -4.415455 -0.934483 0
M  V30 54 H 0.437455 -5.892918 -3.608463 0
M  V30 55 H 1.418103 -6.893155 -2.498962 0
M  V30 56 H -0.164183 -6.819366 -0.881054 0
M  V30 57 H -1.161377 -5.862569 -2.013335 0
M  V30 END ATOM
M  V30 BEGIN BOND
M  V30 1 1 1 2
M  V30 2 1 2 3
M  V30 3 2 3 4
M  V30 4 1 4 5
M  V30 5 2 5 6
M  V30 6 1 6 7
M  V30 7 2 7 8
M  V30 8 1 8 9
M  V30 9 1 9 10
M  V30 10 2 10 11
M  V30 11 1 11 12
M  V30 12 2 12 13
M  V30 13 1 13 14
M  V30 14 1 14 15
M  V30 15 2 14 16
M  V30 16 1 13 17
M  V30 17 1 17 18
M  V30 18 1 18 19
M  V30 19 1 19 20
M  V30 20 1 20 21
M  V30 21 1 21 22
M  V30 22 1 22 23
M  V30 23 2 17 24
M  V30 24 1 6 25
M  V30 25 1 25 26
M  V30 26 1 26 27
M  V30 27 1 26 28
M  V30 28 1 28 29
M  V30 29 1 8 3
M  V30 30 1 24 10
M  V30 31 1 29 5
M  V30 32 1 23 19
M  V30 33 1 1 30
M  V30 34 1 1 31
M  V30 35 1 1 32
M  V30 36 1 4 33
M  V30 37 1 7 34
M  V30 38 1 9 35
M  V30 39 1 12 36
M  V30 40 1 15 37
M  V30 41 1 15 38
M  V30 42 1 18 39
M  V30 43 1 19 40
M  V30 44 1 20 41
M  V30 45 1 20 42
M  V30 46 1 21 43
M  V30 47 1 21 44
M  V30 48 1 22 45
M  V30 49 1 22 46
M  V30 50 1 23 47
M  V30 51 1 23 48
M  V30 52 1 25 49
M  V30 53 1 25 50
M  V30 54 1 27 51
M  V30 55 1 27 52
M  V30 56 1 27 53
M  V30 57 1 28 54
M  V30 58 1 28 55
M  V30 59 1 29 56
M  V30 60 1 29 57
M  V30 END BOND
M  V30 END CTAB
M  END
>  <Dataset>  (368) 
ChEMBL_Kinases

>  <Ligand_Instance>  (368) 
nan

>  <PDB_ID>  (368) 
nan

>  <Standardized_SMILES>  (368) 
COc1cc2c(cc1Nc1ncc(C(N)=O)c(NC3CCCC3)n1)CN(C)CC2

>  <Name>  (368) 
nan

>  <Pocket>  (368) 
nan

>  <ATP_Site>  (368) 
nan

>  <Peripheral>  (368) 
nan

>  <Num_H_Atoms_ProtBoundConf>  (368) 
nan

>  <Num_Resolved_Atoms>  (368) 
nan

>  <Num_Not_Resolved_Atoms>  (368) 
nan

$$$$
CHEMBL4871399
     RDKit          3D

  0  0  0  0  0  0  0  0  0  0999 V3000
M  V30 BEGIN CTAB
M  V30 COUNTS 32 35 0 0 0
M  V30 BEGIN ATOM
M  V30 1 O -0.237450 -2.917668 0.841923 0
M  V30 2 C -0.920403 -2.627476 1.882038 0
M  V30 3 N -0.408727 -1.580298 2.685871 0
M  V30 4 C 0.812365 -1.092431 2.086469 0
M  V30 5 N 1.996893 -1.643291 2.428895 0
M  V30 6 C 3.172678 -1.214434 1.888655 0
M  V30 7 C 3.097324 -0.187317 0.971917 0
M  V30 8 C 1.897273 0.384304 0.612788 0
M  V30 9 C 0.701336 -0.055474 1.165508 0
M  V30 10 N -0.349070 0.643819 0.671684 0
M  V30 11 C 0.140075 1.557487 -0.216340 0
M  V30 12 C -0.562615 2.481933 -0.958617 0
M  V30 13 C 0.222074 3.287791 -1.787926 0
M  V30 14 F -0.420737 4.220417 -2.545390 0
M  V30 15 C 1.594375 3.183251 -1.872618 0
M  V30 16 C 2.227112 2.218276 -1.084655 0
M  V30 17 C 1.507276 1.392345 -0.245699 0
M  V30 18 C -2.160820 -3.398546 2.146069 0
M  V30 19 C -2.953499 -3.916558 0.962208 0
M  V30 20 C -2.065461 -4.853151 1.683311 0
M  V30 21 H -1.008619 -1.377310 3.534508 0
M  V30 22 H 4.106632 -1.679979 2.186797 0
M  V30 23 H 4.018012 0.196153 0.505896 0
M  V30 24 H -1.357546 0.514732 0.919677 0
M  V30 25 H -1.638010 2.575523 -0.902776 0
M  V30 26 H 2.133285 3.849903 -2.544287 0
M  V30 27 H 3.313574 2.130851 -1.147503 0
M  V30 28 H -2.769029 -3.174876 3.028826 0
M  V30 29 H -2.624291 -3.451247 -0.005848 0
M  V30 30 H -4.055046 -3.984705 1.039193 0
M  V30 31 H -1.149332 -5.200776 1.182139 0
M  V30 32 H -2.561746 -5.625544 2.294661 0
M  V30 END ATOM
M  V30 BEGIN BOND
M  V30 1 2 1 2
M  V30 2 1 2 3
M  V30 3 1 3 4
M  V30 4 2 4 5
M  V30 5 1 5 6
M  V30 6 2 6 7
M  V30 7 1 7 8
M  V30 8 2 8 9
M  V30 9 1 9 10
M  V30 10 1 10 11
M  V30 11 2 11 12
M  V30 12 1 12 13
M  V30 13 1 13 14
M  V30 14 2 13 15
M  V30 15 1 15 16
M  V30 16 2 16 17
M  V30 17 1 2 18
M  V30 18 1 18 19
M  V30 19 1 19 20
M  V30 20 1 9 4
M  V30 21 1 17 11
M  V30 22 1 20 18
M  V30 23 1 17 8
M  V30 24 1 3 21
M  V30 25 1 6 22
M  V30 26 1 7 23
M  V30 27 1 10 24
M  V30 28 1 12 25
M  V30 29 1 15 26
M  V30 30 1 16 27
M  V30 31 1 18 28
M  V30 32 1 19 29
M  V30 33 1 19 30
M  V30 34 1 20 31
M  V30 35 1 20 32
M  V30 END BOND
M  V30 END CTAB
M  END
>  <Dataset>  (369) 
ChEMBL_Kinases

>  <Ligand_Instance>  (369) 
nan

>  <PDB_ID>  (369) 
nan

>  <Standardized_SMILES>  (369) 
O=C(Nc1nccc2c1[nH]c1cc(F)ccc12)C1CC1

>  <Name>  (369) 
nan

>  <Pocket>  (369) 
nan

>  <ATP_Site>  (369) 
nan

>  <Peripheral>  (369) 
nan

>  <Num_H_Atoms_ProtBoundConf>  (369) 
nan

>  <Num_Resolved_Atoms>  (369) 
nan

>  <Num_Not_Resolved_Atoms>  (369) 
nan

$$$$
CHEMBL81073
     RDKit          3D

  0  0  0  0  0  0  0  0  0  0999 V3000
M  V30 BEGIN CTAB
M  V30 COUNTS 50 52 0 0 0
M  V30 BEGIN ATOM
M  V30 1 C 3.626996 -2.574452 -3.053114 0
M  V30 2 O 2.350680 -2.433080 -2.600133 0
M  V30 3 C 1.759391 -1.328783 -1.967273 0
M  V30 4 C 2.594787 -0.244922 -1.812284 0
M  V30 5 C 2.126765 0.888512 -1.208024 0
M  V30 6 N 2.903987 1.962751 -1.002692 0
M  V30 7 C 2.416716 3.063078 -0.360228 0
M  V30 8 C 1.124604 3.129991 0.099925 0
M  V30 9 C 0.579307 4.255136 0.773737 0
M  V30 10 N 0.122788 5.177354 1.348660 0
M  V30 11 C 0.248323 2.068125 -0.071973 0
M  V30 12 N -1.093433 1.916051 0.417176 0
M  V30 13 C -1.080492 0.950753 1.500709 0
M  V30 14 C 0.059286 0.368913 1.976056 0
M  V30 15 C -0.123566 -0.708435 2.864292 0
M  V30 16 O 1.119114 -1.293322 3.321068 0
M  V30 17 C 2.315358 -0.703603 2.871915 0
M  V30 18 C -1.384827 -1.138379 3.228803 0
M  V30 19 O -1.199763 -2.220024 4.107796 0
M  V30 20 C -1.005323 -3.535336 3.585920 0
M  V30 21 C -2.542297 -0.490842 2.712270 0
M  V30 22 O -3.612571 -1.192425 3.305557 0
M  V30 23 C -4.948175 -0.768412 3.018932 0
M  V30 24 C -2.355143 0.572944 1.830490 0
M  V30 25 C 0.827653 0.972035 -0.742285 0
M  V30 26 C 0.051396 -0.155051 -0.933375 0
M  V30 27 C 0.401459 -1.346945 -1.527368 0
M  V30 28 O -0.058991 -2.459306 -1.823841 0
M  V30 29 C -0.594356 -3.625446 -2.117962 0
M  V30 30 H 4.279016 -1.698638 -3.094893 0
M  V30 31 H 4.189523 -3.341695 -2.440567 0
M  V30 32 H 3.584373 -3.057462 -4.077622 0
M  V30 33 H 3.639684 -0.132301 -2.112270 0
M  V30 34 H 3.012590 3.944945 -0.162558 0
M  V30 35 H -1.940538 2.385323 0.001182 0
M  V30 36 H 1.003179 0.768374 1.662459 0
M  V30 37 H 3.192415 -1.318957 3.186923 0
M  V30 38 H 2.469465 0.328085 3.235062 0
M  V30 39 H 2.290830 -0.680716 1.773026 0
M  V30 40 H -1.603722 -3.631999 2.656142 0
M  V30 41 H 0.080440 -3.669506 3.333542 0
M  V30 42 H -1.284691 -4.322228 4.278209 0
M  V30 43 H -4.938429 0.079019 2.295267 0
M  V30 44 H -5.604378 -1.547142 2.630923 0
M  V30 45 H -5.369481 -0.373346 3.956003 0
M  V30 46 H -3.321991 0.924472 1.544844 0
M  V30 47 H -0.996860 -0.233926 -0.632783 0
M  V30 48 H -1.722983 -3.587429 -2.222034 0
M  V30 49 H -0.468447 -4.445957 -1.337844 0
M  V30 50 H -0.218146 -4.137235 -3.046498 0
M  V30 END ATOM
M  V30 BEGIN BOND
M  V30 1 1 1 2
M  V30 2 1 2 3
M  V30 3 2 3 4
M  V30 4 1 4 5
M  V30 5 2 5 6
M  V30 6 1 6 7
M  V30 7 2 7 8
M  V30 8 1 8 9
M  V30 9 3 9 10
M  V30 10 1 8 11
M  V30 11 1 11 12
M  V30 12 1 12 13
M  V30 13 2 13 14
M  V30 14 1 14 15
M  V30 15 1 15 16
M  V30 16 1 16 17
M  V30 17 2 15 18
M  V30 18 1 18 19
M  V30 19 1 19 20
M  V30 20 1 18 21
M  V30 21 1 21 22
M  V30 22 1 22 23
M  V30 23 2 21 24
M  V30 24 2 11 25
M  V30 25 1 25 26
M  V30 26 2 26 27
M  V30 27 1 27 28
M  V30 28 1 28 29
M  V30 29 1 27 3
M  V30 30 1 25 5
M  V30 31 1 24 13
M  V30 32 1 1 30
M  V30 33 1 1 31
M  V30 34 1 1 32
M  V30 35 1 4 33
M  V30 36 1 7 34
M  V30 37 1 12 35
M  V30 38 1 14 36
M  V30 39 1 17 37
M  V30 40 1 17 38
M  V30 41 1 17 39
M  V30 42 1 20 40
M  V30 43 1 20 41
M  V30 44 1 20 42
M  V30 45 1 23 43
M  V30 46 1 23 44
M  V30 47 1 23 45
M  V30 48 1 24 46
M  V30 49 1 26 47
M  V30 50 1 29 48
M  V30 51 1 29 49
M  V30 52 1 29 50
M  V30 END BOND
M  V30 END CTAB
M  END
>  <Dataset>  (370) 
ChEMBL_Kinases

>  <Ligand_Instance>  (370) 
nan

>  <PDB_ID>  (370) 
nan

>  <Standardized_SMILES>  (370) 
COc1cc2ncc(C#N)c(Nc3cc(OC)c(OC)c(OC)c3)c2cc1OC

>  <Name>  (370) 
nan

>  <Pocket>  (370) 
nan

>  <ATP_Site>  (370) 
nan

>  <Peripheral>  (370) 
nan

>  <Num_H_Atoms_ProtBoundConf>  (370) 
nan

>  <Num_Resolved_Atoms>  (370) 
nan

>  <Num_Not_Resolved_Atoms>  (370) 
nan

$$$$
CHEMBL4871499
     RDKit          3D

  0  0  0  0  0  0  0  0  0  0999 V3000
M  V30 BEGIN CTAB
M  V30 COUNTS 39 42 0 0 0
M  V30 BEGIN ATOM
M  V30 1 O 3.585132 -1.554981 2.387423 0
M  V30 2 S 2.510281 -1.741963 1.365857 0
M  V30 3 O 1.743369 -3.001280 1.737980 0
M  V30 4 N 3.122200 -1.985820 -0.215420 0
M  V30 5 C 3.841604 -0.956918 -0.884277 0
M  V30 6 C 4.798849 -0.288850 -0.159366 0
M  V30 7 C 5.565460 0.731457 -0.696818 0
M  V30 8 C 5.330478 1.069183 -2.030641 0
M  V30 9 N 4.389590 0.416654 -2.752669 0
M  V30 10 C 3.657503 -0.571938 -2.206623 0
M  V30 11 C 1.349193 -0.431507 1.400889 0
M  V30 12 C 1.823270 0.844421 1.640489 0
M  V30 13 C 0.935782 1.900770 1.674932 0
M  V30 14 C -0.396428 1.607641 1.463220 0
M  V30 15 C -0.925448 0.336426 1.217244 0
M  V30 16 C -2.362386 0.175260 1.010618 0
M  V30 17 N -3.184854 0.921786 0.249198 0
M  V30 18 N -4.423034 0.460129 0.318654 0
M  V30 19 C -4.476276 -0.612369 1.128785 0
M  V30 20 C -5.459499 -1.479126 1.567449 0
M  V30 21 C -5.186649 -2.536924 2.441243 0
M  V30 22 F -6.181666 -3.362713 2.845781 0
M  V30 23 C -3.887656 -2.734107 2.890943 0
M  V30 24 C -2.962475 -1.848353 2.424374 0
M  V30 25 C -3.162861 -0.797734 1.572738 0
M  V30 26 C 0.007837 -0.680598 1.194181 0
M  V30 27 H 3.076836 -2.820934 -0.870057 0
M  V30 28 H 5.029009 -0.501625 0.875191 0
M  V30 29 H 6.323098 1.258735 -0.119651 0
M  V30 30 H 5.904151 1.856980 -2.488785 0
M  V30 31 H 2.893189 -1.113745 -2.766097 0
M  V30 32 H 2.858886 1.116262 1.811230 0
M  V30 33 H 1.215836 2.931732 1.855339 0
M  V30 34 H -1.104462 2.423395 1.486910 0
M  V30 35 H -5.256151 0.857388 -0.177400 0
M  V30 36 H -6.476024 -1.293556 1.191562 0
M  V30 37 H -3.629991 -3.541445 3.569199 0
M  V30 38 H -1.937556 -2.012421 2.785702 0
M  V30 39 H -0.361175 -1.680116 1.006788 0
M  V30 END ATOM
M  V30 BEGIN BOND
M  V30 1 2 1 2
M  V30 2 2 2 3
M  V30 3 1 2 4
M  V30 4 1 4 5
M  V30 5 2 5 6
M  V30 6 1 6 7
M  V30 7 2 7 8
M  V30 8 1 8 9
M  V30 9 2 9 10
M  V30 10 1 2 11
M  V30 11 2 11 12
M  V30 12 1 12 13
M  V30 13 2 13 14
M  V30 14 1 14 15
M  V30 15 1 15 16
M  V30 16 2 16 17
M  V30 17 1 17 18
M  V30 18 1 18 19
M  V30 19 2 19 20
M  V30 20 1 20 21
M  V30 21 1 21 22
M  V30 22 2 21 23
M  V30 23 1 23 24
M  V30 24 2 24 25
M  V30 25 2 15 26
M  V30 26 1 10 5
M  V30 27 1 26 11
M  V30 28 1 25 16
M  V30 29 1 25 19
M  V30 30 1 4 27
M  V30 31 1 6 28
M  V30 32 1 7 29
M  V30 33 1 8 30
M  V30 34 1 10 31
M  V30 35 1 12 32
M  V30 36 1 13 33
M  V30 37 1 14 34
M  V30 38 1 18 35
M  V30 39 1 20 36
M  V30 40 1 23 37
M  V30 41 1 24 38
M  V30 42 1 26 39
M  V30 END BOND
M  V30 END CTAB
M  END
>  <Dataset>  (371) 
ChEMBL_Kinases

>  <Ligand_Instance>  (371) 
nan

>  <PDB_ID>  (371) 
nan

>  <Standardized_SMILES>  (371) 
O=S(=O)(Nc1cccnc1)c1cccc(-c2n[nH]c3cc(F)ccc23)c1

>  <Name>  (371) 
nan

>  <Pocket>  (371) 
nan

>  <ATP_Site>  (371) 
nan

>  <Peripheral>  (371) 
nan

>  <Num_H_Atoms_ProtBoundConf>  (371) 
nan

>  <Num_Resolved_Atoms>  (371) 
nan

>  <Num_Not_Resolved_Atoms>  (371) 
nan

$$$$
CHEMBL4871526
     RDKit          3D

  0  0  0  0  0  0  0  0  0  0999 V3000
M  V30 BEGIN CTAB
M  V30 COUNTS 44 47 0 0 0
M  V30 BEGIN ATOM
M  V30 1 O 3.098385 -3.635772 3.807512 0
M  V30 2 C 2.605612 -4.348494 2.903640 0
M  V30 3 O 2.882645 -5.726006 2.928721 0
M  V30 4 C 1.763428 -3.835999 1.828988 0
M  V30 5 C 1.246312 -4.679755 0.854414 0
M  V30 6 C 0.454753 -4.134099 -0.138222 0
M  V30 7 C 0.169345 -2.797498 -0.186447 0
M  V30 8 C 0.676185 -1.958834 0.771924 0
M  V30 9 C 1.466483 -2.491506 1.766275 0
M  V30 10 C 0.369205 -0.617286 0.693972 0
M  V30 11 C -0.413608 -0.017613 -0.271674 0
M  V30 12 N -0.704995 1.351118 -0.329881 0
M  V30 13 C -0.272092 2.415309 0.537264 0
M  V30 14 C 1.209452 2.556567 0.469097 0
M  V30 15 C 1.820099 3.289063 1.610118 0
M  V30 16 C 1.392547 2.655065 2.909521 0
M  V30 17 C -0.103604 2.833349 3.014496 0
M  V30 18 C -0.855603 2.200358 1.902127 0
M  V30 19 C -0.892657 -0.910604 -1.204593 0
M  V30 20 C -1.691342 -0.522554 -2.250797 0
M  V30 21 C -2.221434 -1.330972 -3.234751 0
M  V30 22 N -1.921198 -2.662699 -3.163645 0
M  V30 23 C -1.128825 -3.091298 -2.137592 0
M  V30 24 C -0.618007 -2.259507 -1.175084 0
M  V30 25 H 3.165191 -6.214247 3.778217 0
M  V30 26 H 1.495589 -5.747809 0.923527 0
M  V30 27 H 0.108843 -4.867928 -0.836167 0
M  V30 28 H 1.874933 -1.830283 2.534625 0
M  V30 29 H 0.811320 -0.046572 1.494254 0
M  V30 30 H -1.319048 1.678215 -1.094915 0
M  V30 31 H -0.718100 3.380763 0.136293 0
M  V30 32 H 1.778284 1.644735 0.227979 0
M  V30 33 H 1.409372 3.220093 -0.437519 0
M  V30 34 H 1.482572 4.345264 1.591318 0
M  V30 35 H 2.924947 3.223098 1.485822 0
M  V30 36 H 1.713463 1.594006 2.946238 0
M  V30 37 H 1.849131 3.212688 3.770031 0
M  V30 38 H -0.297758 3.920336 3.123529 0
M  V30 39 H -0.406665 2.310173 3.962034 0
M  V30 40 H -1.092807 1.155557 2.151856 0
M  V30 41 H -1.875748 2.703878 1.900549 0
M  V30 42 H -1.991117 0.501549 -2.405295 0
M  V30 43 H -2.853869 -0.981403 -4.051664 0
M  V30 44 H -0.991738 -4.153263 -2.228506 0
M  V30 END ATOM
M  V30 BEGIN BOND
M  V30 1 2 1 2
M  V30 2 1 2 3
M  V30 3 1 2 4
M  V30 4 2 4 5
M  V30 5 1 5 6
M  V30 6 2 6 7
M  V30 7 1 7 8
M  V30 8 2 8 9
M  V30 9 1 8 10
M  V30 10 2 10 11
M  V30 11 1 11 12
M  V30 12 1 12 13
M  V30 13 1 13 14
M  V30 14 1 14 15
M  V30 15 1 15 16
M  V30 16 1 16 17
M  V30 17 1 17 18
M  V30 18 1 11 19
M  V30 19 2 19 20
M  V30 20 1 20 21
M  V30 21 2 21 22
M  V30 22 1 22 23
M  V30 23 2 23 24
M  V30 24 1 9 4
M  V30 25 1 18 13
M  V30 26 1 24 19
M  V30 27 1 24 7
M  V30 28 1 3 25
M  V30 29 1 5 26
M  V30 30 1 6 27
M  V30 31 1 9 28
M  V30 32 1 10 29
M  V30 33 1 12 30
M  V30 34 1 13 31
M  V30 35 1 14 32
M  V30 36 1 14 33
M  V30 37 1 15 34
M  V30 38 1 15 35
M  V30 39 1 16 36
M  V30 40 1 16 37
M  V30 41 1 17 38
M  V30 42 1 17 39
M  V30 43 1 18 40
M  V30 44 1 18 41
M  V30 45 1 20 42
M  V30 46 1 21 43
M  V30 47 1 23 44
M  V30 END BOND
M  V30 END CTAB
M  END
>  <Dataset>  (372) 
ChEMBL_Kinases

>  <Ligand_Instance>  (372) 
nan

>  <PDB_ID>  (372) 
nan

>  <Standardized_SMILES>  (372) 
O=C(O)c1ccc2c(c1)cc(NC1CCCCC1)c1ccncc12

>  <Name>  (372) 
nan

>  <Pocket>  (372) 
nan

>  <ATP_Site>  (372) 
nan

>  <Peripheral>  (372) 
nan

>  <Num_H_Atoms_ProtBoundConf>  (372) 
nan

>  <Num_Resolved_Atoms>  (372) 
nan

>  <Num_Not_Resolved_Atoms>  (372) 
nan

$$$$
CHEMBL4871527
     RDKit          3D

  0  0  0  0  0  0  0  0  0  0999 V3000
M  V30 BEGIN CTAB
M  V30 COUNTS 49 51 0 0 0
M  V30 BEGIN ATOM
M  V30 1 O -2.060525 -2.655125 -0.006989 0
M  V30 2 C -3.113703 -2.168995 0.428650 0
M  V30 3 N -3.152881 -0.752567 0.515539 0
M  V30 4 C -1.987652 -0.050594 0.096007 0
M  V30 5 C -1.050222 0.182608 1.076368 0
M  V30 6 C 0.092684 0.855788 0.726085 0
M  V30 7 C 0.415180 1.333921 -0.518159 0
M  V30 8 O 1.391753 1.996209 -1.163854 0
M  V30 9 C 2.566088 2.486431 -0.734103 0
M  V30 10 C 3.355326 2.604631 0.385741 0
M  V30 11 C 4.576457 3.213513 0.442546 0
M  V30 12 N 5.186500 3.203944 1.705200 0
M  V30 13 C 4.871641 4.328240 2.531003 0
M  V30 14 C 5.604401 4.176555 3.863883 0
M  V30 15 O 5.183561 3.005956 4.465939 0
M  V30 16 N 5.054143 3.744477 -0.686911 0
M  V30 17 C 4.322152 3.661198 -1.829205 0
M  V30 18 N 3.100387 3.047175 -1.867066 0
M  V30 19 C -0.560406 1.075645 -1.476516 0
M  V30 20 C -1.747500 0.400372 -1.207741 0
M  V30 21 N -4.159022 -3.020186 0.793643 0
M  V30 22 C -4.251649 -4.431931 0.758853 0
M  V30 23 C -5.407152 -5.049932 1.177424 0
M  V30 24 C -5.551957 -6.419024 1.165407 0
M  V30 25 C -4.541796 -7.250769 0.731035 0
M  V30 26 C -3.367771 -6.669075 0.303487 0
M  V30 27 C -2.257052 -7.528327 -0.171210 0
M  V30 28 F -2.355034 -8.804803 0.349253 0
M  V30 29 F -1.021262 -6.964780 0.061030 0
M  V30 30 F -2.401597 -7.626843 -1.561457 0
M  V30 31 C -3.270707 -5.295125 0.334292 0
M  V30 32 H -4.028152 -0.296930 0.880313 0
M  V30 33 H -1.095699 -0.102352 2.116353 0
M  V30 34 H 0.872486 1.077065 1.432946 0
M  V30 35 H 2.878734 2.151212 1.212024 0
M  V30 36 H 5.831928 2.428982 2.031807 0
M  V30 37 H 3.818958 4.466144 2.782676 0
M  V30 38 H 5.266520 5.257418 2.046720 0
M  V30 39 H 5.339384 5.014355 4.551023 0
M  V30 40 H 6.716280 4.187026 3.715036 0
M  V30 41 H 4.618519 2.446071 3.900224 0
M  V30 42 H 4.870263 4.145178 -2.632691 0
M  V30 43 H -0.619063 1.316686 -2.554032 0
M  V30 44 H -2.572203 0.138687 -1.845640 0
M  V30 45 H -4.995519 -2.482158 1.146877 0
M  V30 46 H -6.229991 -4.438818 1.527878 0
M  V30 47 H -6.489239 -6.821549 1.509761 0
M  V30 48 H -4.722889 -8.314395 0.748469 0
M  V30 49 H -2.329798 -4.908662 -0.012320 0
M  V30 END ATOM
M  V30 BEGIN BOND
M  V30 1 2 1 2
M  V30 2 1 2 3
M  V30 3 1 3 4
M  V30 4 2 4 5
M  V30 5 1 5 6
M  V30 6 2 6 7
M  V30 7 1 7 8
M  V30 8 1 8 9
M  V30 9 2 9 10
M  V30 10 1 10 11
M  V30 11 1 11 12
M  V30 12 1 12 13
M  V30 13 1 13 14
M  V30 14 1 14 15
M  V30 15 2 11 16
M  V30 16 1 16 17
M  V30 17 2 17 18
M  V30 18 1 7 19
M  V30 19 2 19 20
M  V30 20 1 2 21
M  V30 21 1 21 22
M  V30 22 2 22 23
M  V30 23 1 23 24
M  V30 24 2 24 25
M  V30 25 1 25 26
M  V30 26 1 26 27
M  V30 27 1 27 28
M  V30 28 1 27 29
M  V30 29 1 27 30
M  V30 30 2 26 31
M  V30 31 1 20 4
M  V30 32 1 31 22
M  V30 33 1 18 9
M  V30 34 1 3 32
M  V30 35 1 5 33
M  V30 36 1 6 34
M  V30 37 1 10 35
M  V30 38 1 12 36
M  V30 39 1 13 37
M  V30 40 1 13 38
M  V30 41 1 14 39
M  V30 42 1 14 40
M  V30 43 1 15 41
M  V30 44 1 17 42
M  V30 45 1 19 43
M  V30 46 1 20 44
M  V30 47 1 21 45
M  V30 48 1 23 46
M  V30 49 1 24 47
M  V30 50 1 25 48
M  V30 51 1 31 49
M  V30 END BOND
M  V30 END CTAB
M  END
>  <Dataset>  (373) 
ChEMBL_Kinases

>  <Ligand_Instance>  (373) 
nan

>  <PDB_ID>  (373) 
nan

>  <Standardized_SMILES>  (373) 
O=C(Nc1ccc(Oc2cc(NCCO)ncn2)cc1)Nc1cccc(C(F)(F)F)c1

>  <Name>  (373) 
nan

>  <Pocket>  (373) 
nan

>  <ATP_Site>  (373) 
nan

>  <Peripheral>  (373) 
nan

>  <Num_H_Atoms_ProtBoundConf>  (373) 
nan

>  <Num_Resolved_Atoms>  (373) 
nan

>  <Num_Not_Resolved_Atoms>  (373) 
nan

$$$$
CHEMBL4871543
     RDKit          3D

  0  0  0  0  0  0  0  0  0  0999 V3000
M  V30 BEGIN CTAB
M  V30 COUNTS 51 54 0 0 0
M  V30 BEGIN ATOM
M  V30 1 C 0.790252 1.958770 4.826441 0
M  V30 2 O 0.463754 1.585388 3.492832 0
M  V30 3 C 1.448025 1.253094 2.599628 0
M  V30 4 N 2.776374 1.235073 2.844858 0
M  V30 5 N 3.454118 0.871605 1.775950 0
M  V30 6 C 4.895990 0.765314 1.749888 0
M  V30 7 C 5.349751 -0.619949 2.139061 0
M  V30 8 C 6.847540 -0.866987 2.152200 0
M  V30 9 C 6.092472 -0.775564 3.436682 0
M  V30 10 C 2.550425 0.650169 0.821487 0
M  V30 11 C 1.271512 0.875339 1.285813 0
M  V30 12 C 0.039248 0.732826 0.522076 0
M  V30 13 O 0.090259 0.374323 -0.674531 0
M  V30 14 N -1.232614 0.980865 1.065539 0
M  V30 15 C -2.291455 0.769276 0.109149 0
M  V30 16 C -2.706589 1.823456 -0.679779 0
M  V30 17 C -3.722407 1.569890 -1.578788 0
M  V30 18 C -4.269361 0.301629 -1.650812 0
M  V30 19 C -3.829027 -0.750640 -0.837980 0
M  V30 20 C -4.490021 -2.036065 -1.013537 0
M  V30 21 N -5.833380 -2.211201 -0.925616 0
M  V30 22 N -6.111392 -3.497865 -1.135583 0
M  V30 23 C -4.939286 -4.120917 -1.353868 0
M  V30 24 N -3.913992 -3.221589 -1.281272 0
M  V30 25 C -2.519516 -3.523349 -1.460854 0 CFG=1
M  V30 26 C -1.717708 -2.431823 -2.098280 0
M  V30 27 C -1.853002 -4.086783 -0.223506 0
M  V30 28 F -2.474369 -5.261554 0.155342 0
M  V30 29 F -1.878608 -3.261958 0.856877 0
M  V30 30 F -0.568031 -4.452294 -0.611504 0
M  V30 31 N -2.840045 -0.440741 0.014319 0
M  V30 32 H 1.875731 1.794149 4.990045 0
M  V30 33 H 0.621788 3.038723 4.915195 0
M  V30 34 H 0.160457 1.416469 5.543315 0
M  V30 35 H 5.361234 1.482018 2.456478 0
M  V30 36 H 5.217058 0.983543 0.713169 0
M  V30 37 H 4.733837 -1.484767 1.801136 0
M  V30 38 H 7.513672 -0.007300 1.902095 0
M  V30 39 H 7.228475 -1.869196 1.881947 0
M  V30 40 H 5.967183 -1.701219 4.021037 0
M  V30 41 H 6.188408 0.158497 4.042429 0
M  V30 42 H 2.807550 0.331402 -0.193738 0
M  V30 43 H -1.348907 1.282930 2.056765 0
M  V30 44 H -2.224592 2.784362 -0.559241 0
M  V30 45 H -4.045606 2.386373 -2.191500 0
M  V30 46 H -5.059427 0.159730 -2.370166 0
M  V30 47 H -4.764591 -5.187794 -1.564111 0
M  V30 48 H -2.482995 -4.383366 -2.195799 0
M  V30 49 H -1.056781 -2.804091 -2.934840 0
M  V30 50 H -1.001739 -2.061032 -1.335662 0
M  V30 51 H -2.321971 -1.633877 -2.576125 0
M  V30 END ATOM
M  V30 BEGIN BOND
M  V30 1 1 1 2
M  V30 2 1 2 3
M  V30 3 2 3 4
M  V30 4 1 4 5
M  V30 5 1 5 6
M  V30 6 1 6 7
M  V30 7 1 7 8
M  V30 8 1 8 9
M  V30 9 1 5 10
M  V30 10 2 10 11
M  V30 11 1 11 12
M  V30 12 2 12 13
M  V30 13 1 12 14
M  V30 14 1 14 15
M  V30 15 2 15 16
M  V30 16 1 16 17
M  V30 17 2 17 18
M  V30 18 1 18 19
M  V30 19 1 19 20
M  V30 20 2 20 21
M  V30 21 1 21 22
M  V30 22 2 22 23
M  V30 23 1 23 24
M  V30 24 1 24 25
M  V30 25 1 25 26
M  V30 26 1 25 27
M  V30 27 1 27 28
M  V30 28 1 27 29
M  V30 29 1 27 30
M  V30 30 2 19 31
M  V30 31 1 11 3
M  V30 32 1 31 15
M  V30 33 1 9 7
M  V30 34 1 24 20
M  V30 35 1 1 32
M  V30 36 1 1 33
M  V30 37 1 1 34
M  V30 38 1 6 35
M  V30 39 1 6 36
M  V30 40 1 7 37
M  V30 41 1 8 38
M  V30 42 1 8 39
M  V30 43 1 9 40
M  V30 44 1 9 41
M  V30 45 1 10 42
M  V30 46 1 14 43
M  V30 47 1 16 44
M  V30 48 1 17 45
M  V30 49 1 18 46
M  V30 50 1 23 47
M  V30 51 1 25 48 CFG=3
M  V30 52 1 26 49
M  V30 53 1 26 50
M  V30 54 1 26 51
M  V30 END BOND
M  V30 END CTAB
M  END
>  <Dataset>  (374) 
ChEMBL_Kinases

>  <Ligand_Instance>  (374) 
nan

>  <PDB_ID>  (374) 
nan

>  <Standardized_SMILES>  (374) 
COc1nn(CC2CC2)cc1C(=O)Nc1cccc(-c2nncn2[C@@H](C)C(F)(F)F)n1

>  <Name>  (374) 
nan

>  <Pocket>  (374) 
nan

>  <ATP_Site>  (374) 
nan

>  <Peripheral>  (374) 
nan

>  <Num_H_Atoms_ProtBoundConf>  (374) 
nan

>  <Num_Resolved_Atoms>  (374) 
nan

>  <Num_Not_Resolved_Atoms>  (374) 
nan

$$$$
CHEMBL80837
     RDKit          3D

  0  0  0  0  0  0  0  0  0  0999 V3000
M  V30 BEGIN CTAB
M  V30 COUNTS 44 46 0 0 0
M  V30 BEGIN ATOM
M  V30 1 C -0.472394 -0.540867 -2.339574 0
M  V30 2 C 0.199015 0.091514 -1.204181 0
M  V30 3 C 1.401393 0.706924 -1.461001 0
M  V30 4 C 2.147811 0.813390 -2.738829 0
M  V30 5 C 2.869455 -0.430561 -3.099772 0
M  V30 6 C 4.147110 -0.524653 -2.532901 0
M  V30 7 C 4.949437 -1.621060 -2.775977 0
M  V30 8 C 4.486973 -2.630894 -3.584547 0
M  V30 9 C 3.234852 -2.585391 -4.167146 0
M  V30 10 C 2.466096 -1.473877 -3.898766 0
M  V30 11 C 1.987348 1.299936 -0.331358 0
M  V30 12 O 3.097017 1.920480 -0.344642 0
M  V30 13 O 1.502909 1.317549 0.909351 0
M  V30 14 C 0.338001 0.723390 1.168688 0
M  V30 15 C -0.195750 0.719723 2.439109 0
M  V30 16 C -1.423170 0.086703 2.682028 0
M  V30 17 O -1.857025 0.149896 3.998311 0
M  V30 18 C -1.719351 -0.889073 4.897809 0
M  V30 19 O -1.243256 -2.049038 4.861240 0
M  V30 20 N -2.267314 -0.509930 6.179436 0
M  V30 21 C -2.896031 0.755425 6.565920 0
M  V30 22 C -2.271644 -1.392570 7.351241 0
M  V30 23 C -2.019020 -0.503000 1.591587 0
M  V30 24 Cl -3.561067 -1.287475 1.950446 0
M  V30 25 C -1.486081 -0.499266 0.324245 0
M  V30 26 C -0.275678 0.126361 0.088550 0
M  V30 27 H -0.206740 -0.018244 -3.306134 0
M  V30 28 H -0.352506 -1.622043 -2.398491 0
M  V30 29 H -1.576495 -0.312930 -2.239491 0
M  V30 30 H 1.465844 1.082194 -3.574030 0
M  V30 31 H 2.863678 1.666157 -2.671656 0
M  V30 32 H 4.616929 0.219202 -1.872855 0
M  V30 33 H 5.942009 -1.774095 -2.381280 0
M  V30 34 H 5.049708 -3.523646 -3.825801 0
M  V30 35 H 2.804945 -3.335554 -4.810115 0
M  V30 36 H 1.479026 -1.359766 -4.315608 0
M  V30 37 H 0.373495 1.221000 3.216406 0
M  V30 38 H -2.370043 1.235802 7.394872 0
M  V30 39 H -3.913628 0.503839 6.922075 0
M  V30 40 H -3.014153 1.425976 5.691636 0
M  V30 41 H -3.327166 -1.656403 7.563615 0
M  V30 42 H -1.677230 -2.320794 7.161809 0
M  V30 43 H -1.828795 -0.867685 8.221500 0
M  V30 44 H -2.070633 -1.007466 -0.428131 0
M  V30 END ATOM
M  V30 BEGIN BOND
M  V30 1 1 1 2
M  V30 2 2 2 3
M  V30 3 1 3 4
M  V30 4 1 4 5
M  V30 5 2 5 6
M  V30 6 1 6 7
M  V30 7 2 7 8
M  V30 8 1 8 9
M  V30 9 2 9 10
M  V30 10 1 3 11
M  V30 11 2 11 12
M  V30 12 1 11 13
M  V30 13 1 13 14
M  V30 14 2 14 15
M  V30 15 1 15 16
M  V30 16 1 16 17
M  V30 17 1 17 18
M  V30 18 2 18 19
M  V30 19 1 18 20
M  V30 20 1 20 21
M  V30 21 1 20 22
M  V30 22 2 16 23
M  V30 23 1 23 24
M  V30 24 1 23 25
M  V30 25 2 25 26
M  V30 26 1 26 2
M  V30 27 1 10 5
M  V30 28 1 26 14
M  V30 29 1 1 27
M  V30 30 1 1 28
M  V30 31 1 1 29
M  V30 32 1 4 30
M  V30 33 1 4 31
M  V30 34 1 6 32
M  V30 35 1 7 33
M  V30 36 1 8 34
M  V30 37 1 9 35
M  V30 38 1 10 36
M  V30 39 1 15 37
M  V30 40 1 21 38
M  V30 41 1 21 39
M  V30 42 1 21 40
M  V30 43 1 22 41
M  V30 44 1 22 42
M  V30 45 1 22 43
M  V30 46 1 25 44
M  V30 END BOND
M  V30 END CTAB
M  END
>  <Dataset>  (375) 
ChEMBL_Kinases

>  <Ligand_Instance>  (375) 
nan

>  <PDB_ID>  (375) 
nan

>  <Standardized_SMILES>  (375) 
Cc1c(Cc2ccccc2)c(=O)oc2cc(OC(=O)N(C)C)c(Cl)cc12

>  <Name>  (375) 
nan

>  <Pocket>  (375) 
nan

>  <ATP_Site>  (375) 
nan

>  <Peripheral>  (375) 
nan

>  <Num_H_Atoms_ProtBoundConf>  (375) 
nan

>  <Num_Resolved_Atoms>  (375) 
nan

>  <Num_Not_Resolved_Atoms>  (375) 
nan

$$$$
CHEMBL4871551
     RDKit          3D

  0  0  0  0  0  0  0  0  0  0999 V3000
M  V30 BEGIN CTAB
M  V30 COUNTS 43 44 0 0 0
M  V30 BEGIN ATOM
M  V30 1 C -0.967312 -4.558136 4.391431 0
M  V30 2 C 0.044896 -3.455997 4.706074 0
M  V30 3 C -0.540909 -2.670704 5.863450 0
M  V30 4 C 0.071182 -2.546323 3.498130 0
M  V30 5 C 1.029959 -1.394591 3.647362 0 CFG=1
M  V30 6 N 2.370705 -1.915287 3.841384 0
M  V30 7 C 1.059488 -0.692813 2.330029 0
M  V30 8 O 2.151039 -0.676454 1.672084 0
M  V30 9 N -0.025628 -0.017650 1.702918 0
M  V30 10 C 0.262679 0.573971 0.440799 0
M  V30 11 C 0.713743 1.875810 0.435310 0
M  V30 12 C 1.015914 2.521871 -0.740786 0
M  V30 13 C 0.876802 1.887510 -1.946961 0
M  V30 14 C 1.173342 2.419592 -3.269437 0
M  V30 15 C 1.617476 3.724865 -3.320173 0
M  V30 16 N 1.848273 4.075662 -4.590356 0
M  V30 17 C 1.548754 2.989920 -5.336498 0
M  V30 18 O 1.158837 2.047758 -4.518028 0
M  V30 19 C 0.427875 0.585770 -1.994153 0
M  V30 20 O 0.180594 -0.306827 -3.022884 0
M  V30 21 C -1.025239 -0.523004 -3.678341 0
M  V30 22 F -2.031104 -0.955147 -2.827138 0
M  V30 23 F -1.421351 0.583226 -4.356800 0
M  V30 24 F -0.799914 -1.532585 -4.616624 0
M  V30 25 C 0.123235 -0.065454 -0.797345 0
M  V30 26 H -1.995915 -4.156102 4.454134 0
M  V30 27 H -0.849767 -4.890821 3.333216 0
M  V30 28 H -0.824052 -5.432303 5.045414 0
M  V30 29 H 1.024103 -3.860360 4.955632 0
M  V30 30 H 0.074001 -1.770882 6.073874 0
M  V30 31 H -1.525516 -2.281845 5.475160 0
M  V30 32 H -0.666764 -3.314098 6.764062 0
M  V30 33 H 0.367537 -3.086044 2.575344 0
M  V30 34 H -0.929247 -2.095843 3.336900 0
M  V30 35 H 0.782660 -0.723293 4.473112 0
M  V30 36 H 2.499461 -2.477467 4.689588 0
M  V30 37 H 2.687303 -2.470623 3.015587 0
M  V30 38 H -0.924423 -0.044323 2.269243 0
M  V30 39 H 0.869947 2.498127 1.322830 0
M  V30 40 H 1.372310 3.540903 -0.794322 0
M  V30 41 H 1.808945 4.492069 -2.565225 0
M  V30 42 H 1.584065 2.810711 -6.415133 0
M  V30 43 H -0.243017 -1.092168 -0.634072 0
M  V30 END ATOM
M  V30 BEGIN BOND
M  V30 1 1 1 2
M  V30 2 1 2 3
M  V30 3 1 2 4
M  V30 4 1 4 5
M  V30 5 1 5 6
M  V30 6 1 5 7
M  V30 7 2 7 8
M  V30 8 1 7 9
M  V30 9 1 9 10
M  V30 10 2 10 11
M  V30 11 1 11 12
M  V30 12 2 12 13
M  V30 13 1 13 14
M  V30 14 2 14 15
M  V30 15 1 15 16
M  V30 16 2 16 17
M  V30 17 1 17 18
M  V30 18 1 13 19
M  V30 19 1 19 20
M  V30 20 1 20 21
M  V30 21 1 21 22
M  V30 22 1 21 23
M  V30 23 1 21 24
M  V30 24 2 19 25
M  V30 25 1 25 10
M  V30 26 1 18 14
M  V30 27 1 1 26
M  V30 28 1 1 27
M  V30 29 1 1 28
M  V30 30 1 2 29
M  V30 31 1 3 30
M  V30 32 1 3 31
M  V30 33 1 3 32
M  V30 34 1 4 33
M  V30 35 1 4 34
M  V30 36 1 5 35 CFG=1
M  V30 37 1 6 36
M  V30 38 1 6 37
M  V30 39 1 9 38
M  V30 40 1 11 39
M  V30 41 1 12 40
M  V30 42 1 15 41
M  V30 43 1 17 42
M  V30 44 1 25 43
M  V30 END BOND
M  V30 END CTAB
M  END
>  <Dataset>  (376) 
ChEMBL_Kinases

>  <Ligand_Instance>  (376) 
nan

>  <PDB_ID>  (376) 
nan

>  <Standardized_SMILES>  (376) 
CC(C)C[C@@H](N)C(=O)Nc1ccc(-c2cnco2)c(OC(F)(F)F)c1

>  <Name>  (376) 
nan

>  <Pocket>  (376) 
nan

>  <ATP_Site>  (376) 
nan

>  <Peripheral>  (376) 
nan

>  <Num_H_Atoms_ProtBoundConf>  (376) 
nan

>  <Num_Resolved_Atoms>  (376) 
nan

>  <Num_Not_Resolved_Atoms>  (376) 
nan

$$$$
CHEMBL4870565
     RDKit          3D

  0  0  0  0  0  0  0  0  0  0999 V3000
M  V30 BEGIN CTAB
M  V30 COUNTS 58 60 0 0 0
M  V30 BEGIN ATOM
M  V30 1 C 2.319929 -4.753681 2.230973 0
M  V30 2 O 1.128110 -3.987926 2.188833 0
M  V30 3 C 1.154771 -2.696039 1.723693 0
M  V30 4 C 2.337104 -2.128509 1.292935 0
M  V30 5 C 2.367263 -0.831305 0.825212 0
M  V30 6 N 3.497549 -0.111248 0.350087 0
M  V30 7 C 4.200981 0.613539 1.335276 0
M  V30 8 O 3.809140 0.586872 2.532722 0
M  V30 9 C 5.406671 1.394534 0.886762 0 CFG=2
M  V30 10 O 6.000941 2.057098 1.937037 0
M  V30 11 C 4.904425 2.295557 -0.187979 0
M  V30 12 C 4.208013 3.402597 0.252828 0
M  V30 13 C 3.710354 4.287300 -0.699346 0
M  V30 14 F 3.007533 5.418171 -0.437901 0
M  V30 15 C 3.914429 4.052817 -2.045637 0
M  V30 16 C 4.605113 2.955948 -2.496564 0
M  V30 17 F 4.829503 2.687435 -3.819417 0
M  V30 18 C 5.108209 2.062557 -1.548692 0
M  V30 19 C 1.205357 -0.086011 0.784686 0
M  V30 20 C 0.011277 -0.635435 1.211291 0
M  V30 21 C -0.005928 -1.951262 1.682993 0
M  V30 22 C -1.305556 -2.471592 2.119437 0
M  V30 23 C -1.540204 -3.196551 3.281462 0
M  V30 24 N -2.790657 -3.609619 3.554412 0
M  V30 25 C -3.821430 -3.324709 2.706392 0
M  V30 26 N -5.081341 -3.844405 3.159758 0
M  V30 27 C -3.643520 -2.610741 1.543294 0
M  V30 28 C -4.821367 -2.370564 0.720304 0
M  V30 29 O -5.910993 -2.820497 1.114901 0
M  V30 30 N -4.705387 -1.642209 -0.492100 0
M  V30 31 C -5.634612 -1.244048 -1.500843 0
M  V30 32 C -5.339442 -1.854580 -2.852657 0
M  V30 33 C -5.714100 0.259138 -1.663012 0
M  V30 34 C -2.363570 -2.186397 1.261293 0
M  V30 35 H 3.049938 -4.337033 2.960980 0
M  V30 36 H 2.830579 -4.785522 1.241024 0
M  V30 37 H 2.121123 -5.790592 2.539748 0
M  V30 38 H 3.284267 -2.645435 1.293803 0
M  V30 39 H 3.723890 -0.167196 -0.670474 0
M  V30 40 H 6.184124 0.727397 0.440367 0
M  V30 41 H 5.989722 3.056742 1.801990 0
M  V30 42 H 4.006363 3.656755 1.282997 0
M  V30 43 H 3.564633 4.686072 -2.863946 0
M  V30 44 H 5.667988 1.165998 -1.817821 0
M  V30 45 H 1.132764 0.951168 0.429508 0
M  V30 46 H -0.914206 -0.059023 1.184938 0
M  V30 47 H -0.657128 -3.365484 3.879000 0
M  V30 48 H -5.513287 -4.763318 2.929142 0
M  V30 49 H -5.893706 -3.586162 3.760949 0
M  V30 50 H -3.810999 -1.248846 -0.856829 0
M  V30 51 H -6.642792 -1.615117 -1.214649 0
M  V30 52 H -4.257228 -1.852517 -3.046274 0
M  V30 53 H -5.846737 -1.227233 -3.619454 0
M  V30 54 H -5.783345 -2.869095 -2.974534 0
M  V30 55 H -5.851467 0.744773 -0.659162 0
M  V30 56 H -4.842765 0.659821 -2.209221 0
M  V30 57 H -6.626171 0.535189 -2.226170 0
M  V30 58 H -2.219517 -1.625432 0.348919 0
M  V30 END ATOM
M  V30 BEGIN BOND
M  V30 1 1 1 2
M  V30 2 1 2 3
M  V30 3 2 3 4
M  V30 4 1 4 5
M  V30 5 1 5 6
M  V30 6 1 6 7
M  V30 7 2 7 8
M  V30 8 1 7 9
M  V30 9 1 9 10
M  V30 10 1 9 11
M  V30 11 2 11 12
M  V30 12 1 12 13
M  V30 13 1 13 14
M  V30 14 2 13 15
M  V30 15 1 15 16
M  V30 16 1 16 17
M  V30 17 2 16 18
M  V30 18 2 5 19
M  V30 19 1 19 20
M  V30 20 2 20 21
M  V30 21 1 21 22
M  V30 22 2 22 23
M  V30 23 1 23 24
M  V30 24 2 24 25
M  V30 25 1 25 26
M  V30 26 1 25 27
M  V30 27 1 27 28
M  V30 28 2 28 29
M  V30 29 1 28 30
M  V30 30 1 30 31
M  V30 31 1 31 32
M  V30 32 1 31 33
M  V30 33 2 27 34
M  V30 34 1 21 3
M  V30 35 1 34 22
M  V30 36 1 18 11
M  V30 37 1 1 35
M  V30 38 1 1 36
M  V30 39 1 1 37
M  V30 40 1 4 38
M  V30 41 1 6 39
M  V30 42 1 9 40 CFG=3
M  V30 43 1 10 41
M  V30 44 1 12 42
M  V30 45 1 15 43
M  V30 46 1 18 44
M  V30 47 1 19 45
M  V30 48 1 20 46
M  V30 49 1 23 47
M  V30 50 1 26 48
M  V30 51 1 26 49
M  V30 52 1 30 50
M  V30 53 1 31 51
M  V30 54 1 32 52
M  V30 55 1 32 53
M  V30 56 1 32 54
M  V30 57 1 33 55
M  V30 58 1 33 56
M  V30 59 1 33 57
M  V30 60 1 34 58
M  V30 END BOND
M  V30 END CTAB
M  END
>  <Dataset>  (377) 
ChEMBL_Kinases

>  <Ligand_Instance>  (377) 
nan

>  <PDB_ID>  (377) 
nan

>  <Standardized_SMILES>  (377) 
COc1cc(NC(=O)[C@H](O)c2cc(F)cc(F)c2)ccc1-c1cnc(N)c(C(=O)NC(C)C)c1

>  <Name>  (377) 
nan

>  <Pocket>  (377) 
nan

>  <ATP_Site>  (377) 
nan

>  <Peripheral>  (377) 
nan

>  <Num_H_Atoms_ProtBoundConf>  (377) 
nan

>  <Num_Resolved_Atoms>  (377) 
nan

>  <Num_Not_Resolved_Atoms>  (377) 
nan

$$$$
CHEMBL3702073
     RDKit          3D

  0  0  0  0  0  0  0  0  0  0999 V3000
M  V30 BEGIN CTAB
M  V30 COUNTS 64 69 0 0 0
M  V30 BEGIN ATOM
M  V30 1 O 6.087398 0.686874 4.722184 0
M  V30 2 C 4.727201 0.941615 4.465686 0
M  V30 3 C 4.420862 0.380688 3.112381 0
M  V30 4 N 5.259247 1.031010 2.135039 0
M  V30 5 C 5.021323 0.527307 0.792969 0
M  V30 6 C 4.094363 1.438463 0.017830 0
M  V30 7 N 3.075383 2.015186 0.835791 0
M  V30 8 C 1.660702 1.897228 0.745862 0
M  V30 9 C 0.786063 2.523189 1.609621 0
M  V30 10 C -0.571523 2.347096 1.443727 0
M  V30 11 C -1.135172 1.571179 0.452176 0
M  V30 12 N -2.535741 1.388522 0.285084 0
M  V30 13 C -3.079010 0.580784 -0.752605 0
M  V30 14 N -3.465512 0.925757 -2.001532 0
M  V30 15 C -3.956048 -0.046125 -2.809343 0
M  V30 16 C -4.066764 -1.368956 -2.383468 0
M  V30 17 C -4.520562 -2.535803 -2.980891 0
M  V30 18 C -5.025060 -2.777703 -4.225661 0
M  V30 19 C -5.416884 -4.046098 -4.594655 0
M  V30 20 N -5.290993 -5.030408 -3.705884 0
M  V30 21 C -4.791611 -4.808195 -2.464132 0
M  V30 22 Cl -4.661680 -6.156042 -1.353629 0
M  V30 23 C -4.382252 -3.560782 -2.035993 0
M  V30 24 N -3.864192 -3.027635 -0.913190 0
M  V30 25 C -3.578932 -3.768855 0.270776 0
M  V30 26 C -2.263751 -4.493014 0.077985 0
M  V30 27 C -1.255661 -3.411810 0.408744 0
M  V30 28 C -1.837008 -2.783573 1.630987 0
M  V30 29 C -3.320201 -2.951622 1.487050 0
M  V30 30 C -3.670201 -1.697961 -1.116133 0
M  V30 31 N -3.193016 -0.689752 -0.364479 0
M  V30 32 N -0.263864 0.954242 -0.399841 0
M  V30 33 C 1.063552 1.130270 -0.232492 0
M  V30 34 C 3.677220 2.810776 1.870166 0
M  V30 35 C 5.112363 2.473183 2.114294 0
M  V30 36 H 6.180524 -0.281163 4.771469 0
M  V30 37 H 4.115047 0.454239 5.270027 0
M  V30 38 H 4.586697 2.017452 4.572993 0
M  V30 39 H 4.703660 -0.688692 3.123145 0
M  V30 40 H 3.345246 0.431200 2.851742 0
M  V30 41 H 4.659759 -0.516159 0.849488 0
M  V30 42 H 5.991852 0.511244 0.247716 0
M  V30 43 H 4.677710 2.247562 -0.507041 0
M  V30 44 H 3.642456 0.824844 -0.787326 0
M  V30 45 H 1.159516 3.137356 2.397284 0
M  V30 46 H -1.224421 2.852928 2.139284 0
M  V30 47 H -3.134175 1.878171 0.963352 0
M  V30 48 H -4.257974 0.240020 -3.794018 0
M  V30 49 H -5.132481 -1.997573 -4.950666 0
M  V30 50 H -5.826737 -4.345859 -5.548694 0
M  V30 51 H -4.421196 -4.446735 0.516211 0
M  V30 52 H -2.143964 -5.379125 0.731948 0
M  V30 53 H -2.052492 -4.742426 -0.993211 0
M  V30 54 H -1.257989 -2.700398 -0.440191 0
M  V30 55 H -0.249665 -3.853740 0.580923 0
M  V30 56 H -1.404795 -3.348603 2.507031 0
M  V30 57 H -1.523106 -1.735158 1.784797 0
M  V30 58 H -3.855329 -1.988080 1.547034 0
M  V30 59 H -3.649329 -3.502735 2.401996 0
M  V30 60 H 1.630985 0.590832 -0.968208 0
M  V30 61 H 3.080889 2.616129 2.807772 0
M  V30 62 H 3.546994 3.915217 1.696559 0
M  V30 63 H 5.504518 2.944654 3.012306 0
M  V30 64 H 5.678229 2.810183 1.205570 0
M  V30 END ATOM
M  V30 BEGIN BOND
M  V30 1 1 1 2
M  V30 2 1 2 3
M  V30 3 1 3 4
M  V30 4 1 4 5
M  V30 5 1 5 6
M  V30 6 1 6 7
M  V30 7 1 7 8
M  V30 8 2 8 9
M  V30 9 1 9 10
M  V30 10 2 10 11
M  V30 11 1 11 12
M  V30 12 1 12 13
M  V30 13 2 13 14
M  V30 14 1 14 15
M  V30 15 2 15 16
M  V30 16 1 16 17
M  V30 17 2 17 18
M  V30 18 1 18 19
M  V30 19 2 19 20
M  V30 20 1 20 21
M  V30 21 1 21 22
M  V30 22 2 21 23
M  V30 23 1 23 24
M  V30 24 1 24 25
M  V30 25 1 25 26
M  V30 26 1 26 27
M  V30 27 1 27 28
M  V30 28 1 28 29
M  V30 29 1 24 30
M  V30 30 2 30 31
M  V30 31 1 11 32
M  V30 32 2 32 33
M  V30 33 1 7 34
M  V30 34 1 34 35
M  V30 35 1 35 4
M  V30 36 1 33 8
M  V30 37 1 31 13
M  V30 38 1 30 16
M  V30 39 1 23 17
M  V30 40 1 29 25
M  V30 41 1 1 36
M  V30 42 1 2 37
M  V30 43 1 2 38
M  V30 44 1 3 39
M  V30 45 1 3 40
M  V30 46 1 5 41
M  V30 47 1 5 42
M  V30 48 1 6 43
M  V30 49 1 6 44
M  V30 50 1 9 45
M  V30 51 1 10 46
M  V30 52 1 12 47
M  V30 53 1 15 48
M  V30 54 1 18 49
M  V30 55 1 19 50
M  V30 56 1 25 51
M  V30 57 1 26 52
M  V30 58 1 26 53
M  V30 59 1 27 54
M  V30 60 1 27 55
M  V30 61 1 28 56
M  V30 62 1 28 57
M  V30 63 1 29 58
M  V30 64 1 29 59
M  V30 65 1 33 60
M  V30 66 1 34 61
M  V30 67 1 34 62
M  V30 68 1 35 63
M  V30 69 1 35 64
M  V30 END BOND
M  V30 END CTAB
M  END
>  <Dataset>  (378) 
ChEMBL_Kinases

>  <Ligand_Instance>  (378) 
nan

>  <PDB_ID>  (378) 
nan

>  <Standardized_SMILES>  (378) 
OCCN1CCN(c2ccc(Nc3ncc4c5ccnc(Cl)c5n(C5CCCC5)c4n3)nc2)CC1

>  <Name>  (378) 
nan

>  <Pocket>  (378) 
nan

>  <ATP_Site>  (378) 
nan

>  <Peripheral>  (378) 
nan

>  <Num_H_Atoms_ProtBoundConf>  (378) 
nan

>  <Num_Resolved_Atoms>  (378) 
nan

>  <Num_Not_Resolved_Atoms>  (378) 
nan

$$$$
CHEMBL4871581
     RDKit          3D

  0  0  0  0  0  0  0  0  0  0999 V3000
M  V30 BEGIN CTAB
M  V30 COUNTS 53 57 0 0 0
M  V30 BEGIN ATOM
M  V30 1 C 4.850788 -0.793011 6.354699 0
M  V30 2 O 3.685860 -0.876746 5.551871 0
M  V30 3 C 3.759747 -0.443744 4.237867 0
M  V30 4 C 4.925051 0.062244 3.693526 0
M  V30 5 C 5.019664 0.499926 2.383634 0
M  V30 6 O 6.166373 1.004864 1.825559 0
M  V30 7 C 7.322706 1.080600 2.646054 0
M  V30 8 C 3.892584 0.424341 1.589519 0
M  V30 9 F 3.822331 0.811157 0.290540 0
M  V30 10 C 2.710853 -0.070482 2.083142 0
M  V30 11 N 1.476404 -0.211321 1.398427 0
M  V30 12 C 0.551791 0.896707 1.440998 0
M  V30 13 C -0.697378 0.670805 0.710632 0
M  V30 14 C -1.587656 1.722788 0.745342 0
M  V30 15 N -2.783722 1.615105 0.095660 0
M  V30 16 C -3.051689 0.457762 -0.568682 0
M  V30 17 N -4.153032 0.147422 -1.263545 0
M  V30 18 C -3.973460 -1.117798 -1.752579 0
M  V30 19 C -5.015035 -1.772959 -2.575314 0
M  V30 20 C -4.937874 -3.057807 -3.124679 0
M  V30 21 N -6.076033 -3.279282 -3.797428 0
M  V30 22 N -6.852952 -2.219775 -3.702498 0
M  V30 23 C -8.160426 -2.092628 -4.300696 0
M  V30 24 C -6.221432 -1.291423 -2.960536 0
M  V30 25 C -2.735983 -1.545538 -1.327250 0
M  V30 26 C -2.136124 -0.568640 -0.578984 0
M  V30 27 C -0.927838 -0.511162 0.053847 0
M  V30 28 N -0.075634 -1.612876 -0.022567 0
M  V30 29 C -0.280735 -2.850453 -0.692213 0
M  V30 30 C 1.155097 -1.398045 0.693797 0
M  V30 31 O 2.056045 -2.305246 0.730898 0
M  V30 32 C 2.638157 -0.507469 3.410949 0
M  V30 33 F 1.502816 -1.014089 3.984856 0
M  V30 34 H 5.241835 0.253020 6.288015 0
M  V30 35 H 5.671736 -1.446855 6.024364 0
M  V30 36 H 4.632776 -1.040746 7.413075 0
M  V30 37 H 5.830803 0.135936 4.290360 0
M  V30 38 H 7.560346 0.135695 3.144909 0
M  V30 39 H 8.142487 1.480161 2.008723 0
M  V30 40 H 7.049346 1.805665 3.460113 0
M  V30 41 H 1.078521 1.824535 1.103803 0
M  V30 42 H 0.264677 1.118731 2.510174 0
M  V30 43 H -1.393351 2.649265 1.267023 0
M  V30 44 H -5.001510 0.768563 -1.405089 0
M  V30 45 H -4.053539 -3.682049 -2.966462 0
M  V30 46 H -8.842820 -2.834656 -3.857673 0
M  V30 47 H -8.594320 -1.101501 -4.173297 0
M  V30 48 H -8.100868 -2.342127 -5.381129 0
M  V30 49 H -6.613445 -0.312577 -2.709294 0
M  V30 50 H -2.496026 -2.527667 -1.656337 0
M  V30 51 H -1.052661 -3.516055 -0.254618 0
M  V30 52 H 0.662410 -3.471892 -0.506493 0
M  V30 53 H -0.269595 -2.762656 -1.787410 0
M  V30 END ATOM
M  V30 BEGIN BOND
M  V30 1 1 1 2
M  V30 2 1 2 3
M  V30 3 2 3 4
M  V30 4 1 4 5
M  V30 5 1 5 6
M  V30 6 1 6 7
M  V30 7 2 5 8
M  V30 8 1 8 9
M  V30 9 1 8 10
M  V30 10 1 10 11
M  V30 11 1 11 12
M  V30 12 1 12 13
M  V30 13 2 13 14
M  V30 14 1 14 15
M  V30 15 2 15 16
M  V30 16 1 16 17
M  V30 17 1 17 18
M  V30 18 1 18 19
M  V30 19 1 19 20
M  V30 20 2 20 21
M  V30 21 1 21 22
M  V30 22 1 22 23
M  V30 23 1 22 24
M  V30 24 2 18 25
M  V30 25 1 25 26
M  V30 26 2 26 27
M  V30 27 1 27 28
M  V30 28 1 28 29
M  V30 29 1 28 30
M  V30 30 2 30 31
M  V30 31 2 10 32
M  V30 32 1 32 33
M  V30 33 1 32 3
M  V30 34 1 30 11
M  V30 35 1 27 13
M  V30 36 1 26 16
M  V30 37 2 24 19
M  V30 38 1 1 34
M  V30 39 1 1 35
M  V30 40 1 1 36
M  V30 41 1 4 37
M  V30 42 1 7 38
M  V30 43 1 7 39
M  V30 44 1 7 40
M  V30 45 1 12 41
M  V30 46 1 12 42
M  V30 47 1 14 43
M  V30 48 1 17 44
M  V30 49 1 20 45
M  V30 50 1 23 46
M  V30 51 1 23 47
M  V30 52 1 23 48
M  V30 53 1 24 49
M  V30 54 1 25 50
M  V30 55 1 29 51
M  V30 56 1 29 52
M  V30 57 1 29 53
M  V30 END BOND
M  V30 END CTAB
M  END
>  <Dataset>  (379) 
ChEMBL_Kinases

>  <Ligand_Instance>  (379) 
nan

>  <PDB_ID>  (379) 
nan

>  <Standardized_SMILES>  (379) 
COc1cc(OC)c(F)c(N2Cc3cnc4[nH]c(-c5cnn(C)c5)cc4c3N(C)C2=O)c1F

>  <Name>  (379) 
nan

>  <Pocket>  (379) 
nan

>  <ATP_Site>  (379) 
nan

>  <Peripheral>  (379) 
nan

>  <Num_H_Atoms_ProtBoundConf>  (379) 
nan

>  <Num_Resolved_Atoms>  (379) 
nan

>  <Num_Not_Resolved_Atoms>  (379) 
nan

$$$$
CHEMBL4871624
     RDKit          3D

  0  0  0  0  0  0  0  0  0  0999 V3000
M  V30 BEGIN CTAB
M  V30 COUNTS 54 57 0 0 0
M  V30 BEGIN ATOM
M  V30 1 C -0.456850 -1.673662 5.455489 0
M  V30 2 O 0.601428 -1.936150 4.585933 0
M  V30 3 C 1.766510 -1.431903 5.167660 0
M  V30 4 C 2.886020 -1.741330 4.186195 0
M  V30 5 N 2.551729 -1.070085 2.942082 0
M  V30 6 C 3.459129 -1.211733 1.856741 0
M  V30 7 O 4.472497 -1.913521 2.088221 0
M  V30 8 C 3.293323 -0.614152 0.536872 0
M  V30 9 C 4.293311 -0.876904 -0.376005 0
M  V30 10 C 4.111728 -0.293004 -1.634159 0
M  V30 11 C 3.028471 0.494484 -1.980674 0
M  V30 12 C 2.054996 0.724635 -1.023932 0
M  V30 13 C 0.918564 1.556634 -1.403021 0
M  V30 14 N 0.952277 2.730080 -2.081337 0
M  V30 15 N -0.297005 3.186188 -2.234176 0
M  V30 16 C -1.200300 2.356143 -1.677164 0
M  V30 17 C -2.561158 2.339265 -1.547990 0
M  V30 18 C -3.226305 1.303592 -0.893535 0
M  V30 19 C -2.475402 0.258344 -0.357875 0
M  V30 20 C -3.105845 -0.872920 0.348545 0
M  V30 21 N -3.628444 -0.788152 1.563227 0
M  V30 22 N -4.097008 -1.981413 1.871390 0
M  V30 23 C -3.847743 -2.787015 0.821246 0
M  V30 24 N -3.216711 -2.105564 -0.163224 0
M  V30 25 C -2.781813 -2.606758 -1.439034 0
M  V30 26 C -3.064677 -1.688289 -2.596256 0
M  V30 27 C -1.326248 -3.004040 -1.364798 0
M  V30 28 C -1.099216 0.312435 -0.509814 0
M  V30 29 C -0.427112 1.330635 -1.154823 0
M  V30 30 C 2.198619 0.165474 0.229668 0
M  V30 31 H -0.212226 -2.194947 6.413809 0
M  V30 32 H -1.425827 -2.016060 5.095563 0
M  V30 33 H -0.506545 -0.573822 5.644184 0
M  V30 34 H 1.654795 -0.336241 5.189973 0
M  V30 35 H 1.954440 -1.848642 6.164939 0
M  V30 36 H 2.834370 -2.859181 4.048100 0
M  V30 37 H 3.868645 -1.470760 4.584745 0
M  V30 38 H 1.697579 -0.492261 2.783339 0
M  V30 39 H 5.168876 -1.481907 -0.179582 0
M  V30 40 H 4.882478 -0.485761 -2.363680 0
M  V30 41 H 2.983107 0.898949 -2.981710 0
M  V30 42 H -0.605612 4.068274 -2.714754 0
M  V30 43 H -3.156927 3.142228 -1.957824 0
M  V30 44 H -4.304179 1.261478 -0.774677 0
M  V30 45 H -4.102927 -3.851197 0.734158 0
M  V30 46 H -3.361099 -3.536652 -1.634803 0
M  V30 47 H -3.931540 -1.039364 -2.450482 0
M  V30 48 H -2.110038 -1.140626 -2.821433 0
M  V30 49 H -3.277394 -2.282369 -3.523608 0
M  V30 50 H -1.130409 -4.048367 -1.679054 0
M  V30 51 H -0.972367 -2.953999 -0.301580 0
M  V30 52 H -0.694213 -2.303558 -1.949571 0
M  V30 53 H -0.559438 -0.504458 -0.087049 0
M  V30 54 H 1.420644 0.364478 0.954245 0
M  V30 END ATOM
M  V30 BEGIN BOND
M  V30 1 1 1 2
M  V30 2 1 2 3
M  V30 3 1 3 4
M  V30 4 1 4 5
M  V30 5 1 5 6
M  V30 6 2 6 7
M  V30 7 1 6 8
M  V30 8 2 8 9
M  V30 9 1 9 10
M  V30 10 2 10 11
M  V30 11 1 11 12
M  V30 12 1 12 13
M  V30 13 2 13 14
M  V30 14 1 14 15
M  V30 15 1 15 16
M  V30 16 2 16 17
M  V30 17 1 17 18
M  V30 18 2 18 19
M  V30 19 1 19 20
M  V30 20 2 20 21
M  V30 21 1 21 22
M  V30 22 2 22 23
M  V30 23 1 23 24
M  V30 24 1 24 25
M  V30 25 1 25 26
M  V30 26 1 25 27
M  V30 27 1 19 28
M  V30 28 2 28 29
M  V30 29 2 12 30
M  V30 30 1 30 8
M  V30 31 1 29 13
M  V30 32 1 29 16
M  V30 33 1 24 20
M  V30 34 1 1 31
M  V30 35 1 1 32
M  V30 36 1 1 33
M  V30 37 1 3 34
M  V30 38 1 3 35
M  V30 39 1 4 36
M  V30 40 1 4 37
M  V30 41 1 5 38
M  V30 42 1 9 39
M  V30 43 1 10 40
M  V30 44 1 11 41
M  V30 45 1 15 42
M  V30 46 1 17 43
M  V30 47 1 18 44
M  V30 48 1 23 45
M  V30 49 1 25 46
M  V30 50 1 26 47
M  V30 51 1 26 48
M  V30 52 1 26 49
M  V30 53 1 27 50
M  V30 54 1 27 51
M  V30 55 1 27 52
M  V30 56 1 28 53
M  V30 57 1 30 54
M  V30 END BOND
M  V30 END CTAB
M  END
>  <Dataset>  (380) 
ChEMBL_Kinases

>  <Ligand_Instance>  (380) 
nan

>  <PDB_ID>  (380) 
nan

>  <Standardized_SMILES>  (380) 
COCCNC(=O)c1cccc(-c2n[nH]c3ccc(-c4nncn4C(C)C)cc23)c1

>  <Name>  (380) 
nan

>  <Pocket>  (380) 
nan

>  <ATP_Site>  (380) 
nan

>  <Peripheral>  (380) 
nan

>  <Num_H_Atoms_ProtBoundConf>  (380) 
nan

>  <Num_Resolved_Atoms>  (380) 
nan

>  <Num_Not_Resolved_Atoms>  (380) 
nan

$$$$
CHEMBL799
     RDKit          3D

  0  0  0  0  0  0  0  0  0  0999 V3000
M  V30 BEGIN CTAB
M  V30 COUNTS 54 57 0 0 0
M  V30 BEGIN ATOM
M  V30 1 O 3.064239 -8.182493 2.133873 0
M  V30 2 C 2.403698 -7.295180 1.549634 0
M  V30 3 C 1.368629 -6.413075 2.156148 0
M  V30 4 C 1.701780 -4.968315 1.839028 0
M  V30 5 C 1.955519 -4.772285 0.405735 0
M  V30 6 C 1.718562 -3.519793 -0.094263 0
M  V30 7 C 1.915493 -3.200357 -1.418046 0
M  V30 8 O 1.777086 -2.082600 -2.193520 0
M  V30 9 C 1.364092 -0.800650 -1.835361 0
M  V30 10 C 2.267222 -0.154282 -0.843614 0
M  V30 11 C 1.812869 1.236968 -0.452217 0
M  V30 12 C 0.443095 1.264518 0.170420 0
M  V30 13 C 0.133161 2.687523 0.500896 0
M  V30 14 N 0.917546 3.760605 0.290077 0
M  V30 15 N 0.281508 4.839259 0.721822 0
M  V30 16 N -0.866248 4.425723 1.185093 0
M  V30 17 N -1.005892 3.114876 1.072768 0
M  V30 18 C -2.104344 2.233713 1.451176 0
M  V30 19 C -2.775363 2.875168 2.647391 0
M  V30 20 C -3.755357 3.896114 2.104394 0
M  V30 21 C -4.996032 3.098117 1.733682 0
M  V30 22 C -4.536926 1.938122 0.903365 0
M  V30 23 C -3.136330 2.078647 0.371689 0
M  V30 24 C 2.377888 -4.243515 -2.237158 0
M  V30 25 C 2.624514 -5.520384 -1.752100 0
M  V30 26 C 2.409584 -5.786311 -0.410638 0
M  V30 27 N 2.643898 -7.081947 0.157492 0
M  V30 28 H 1.357464 -6.545199 3.256314 0
M  V30 29 H 0.372340 -6.614238 1.701902 0
M  V30 30 H 2.638390 -4.656788 2.385892 0
M  V30 31 H 0.844672 -4.341636 2.152487 0
M  V30 32 H 1.361041 -2.688751 0.459498 0
M  V30 33 H 1.339607 -0.206672 -2.796123 0
M  V30 34 H 0.298493 -0.818623 -1.513698 0
M  V30 35 H 3.254267 0.020695 -1.376253 0
M  V30 36 H 2.528392 -0.718558 0.043223 0
M  V30 37 H 1.871291 1.882568 -1.348598 0
M  V30 38 H 2.558853 1.605515 0.270115 0
M  V30 39 H 0.495176 0.720694 1.142391 0
M  V30 40 H -0.327719 0.794815 -0.435146 0
M  V30 41 H -1.687467 1.261129 1.787290 0
M  V30 42 H -3.334041 2.126175 3.224361 0
M  V30 43 H -2.045517 3.377729 3.316071 0
M  V30 44 H -4.011580 4.647014 2.887303 0
M  V30 45 H -3.312844 4.429659 1.241239 0
M  V30 46 H -5.413325 2.718284 2.691959 0
M  V30 47 H -5.768893 3.727123 1.266493 0
M  V30 48 H -4.556802 1.000205 1.495275 0
M  V30 49 H -5.197838 1.789734 0.027021 0
M  V30 50 H -2.917311 1.097649 -0.134401 0
M  V30 51 H -3.025448 2.861517 -0.395880 0
M  V30 52 H 2.603725 -4.224502 -3.313531 0
M  V30 53 H 2.974047 -6.361288 -2.304282 0
M  V30 54 H 2.988098 -7.835872 -0.479989 0
M  V30 END ATOM
M  V30 BEGIN BOND
M  V30 1 2 1 2
M  V30 2 1 2 3
M  V30 3 1 3 4
M  V30 4 1 4 5
M  V30 5 2 5 6
M  V30 6 1 6 7
M  V30 7 1 7 8
M  V30 8 1 8 9
M  V30 9 1 9 10
M  V30 10 1 10 11
M  V30 11 1 11 12
M  V30 12 1 12 13
M  V30 13 2 13 14
M  V30 14 1 14 15
M  V30 15 2 15 16
M  V30 16 1 16 17
M  V30 17 1 17 18
M  V30 18 1 18 19
M  V30 19 1 19 20
M  V30 20 1 20 21
M  V30 21 1 21 22
M  V30 22 1 22 23
M  V30 23 2 7 24
M  V30 24 1 24 25
M  V30 25 2 25 26
M  V30 26 1 26 27
M  V30 27 1 27 2
M  V30 28 1 26 5
M  V30 29 1 17 13
M  V30 30 1 23 18
M  V30 31 1 3 28
M  V30 32 1 3 29
M  V30 33 1 4 30
M  V30 34 1 4 31
M  V30 35 1 6 32
M  V30 36 1 9 33
M  V30 37 1 9 34
M  V30 38 1 10 35
M  V30 39 1 10 36
M  V30 40 1 11 37
M  V30 41 1 11 38
M  V30 42 1 12 39
M  V30 43 1 12 40
M  V30 44 1 18 41
M  V30 45 1 19 42
M  V30 46 1 19 43
M  V30 47 1 20 44
M  V30 48 1 20 45
M  V30 49 1 21 46
M  V30 50 1 21 47
M  V30 51 1 22 48
M  V30 52 1 22 49
M  V30 53 1 23 50
M  V30 54 1 23 51
M  V30 55 1 24 52
M  V30 56 1 25 53
M  V30 57 1 27 54
M  V30 END BOND
M  V30 END CTAB
M  END
>  <Dataset>  (381) 
ChEMBL_Kinases

>  <Ligand_Instance>  (381) 
nan

>  <PDB_ID>  (381) 
nan

>  <Standardized_SMILES>  (381) 
O=C1CCc2cc(OCCCCc3nnnn3C3CCCCC3)ccc2N1

>  <Name>  (381) 
CILOSTAZOL

>  <Pocket>  (381) 
nan

>  <ATP_Site>  (381) 
nan

>  <Peripheral>  (381) 
nan

>  <Num_H_Atoms_ProtBoundConf>  (381) 
nan

>  <Num_Resolved_Atoms>  (381) 
nan

>  <Num_Not_Resolved_Atoms>  (381) 
nan

$$$$
CHEMBL4871634
     RDKit          3D

  0  0  0  0  0  0  0  0  0  0999 V3000
M  V30 BEGIN CTAB
M  V30 COUNTS 56 61 0 0 0
M  V30 BEGIN ATOM
M  V30 1 C 3.944479 1.045339 5.610343 0
M  V30 2 O 3.186759 1.542811 4.550409 0
M  V30 3 C 2.948770 0.762039 3.397247 0
M  V30 4 N 3.471742 -0.473308 3.348020 0
M  V30 5 C 3.242954 -1.212917 2.250289 0
M  V30 6 C 2.480675 -0.605860 1.278850 0
M  V30 7 C 1.926345 0.649223 1.280741 0
M  V30 8 C 2.187721 1.365332 2.423352 0
M  V30 9 N 1.658504 2.676509 2.530621 0
M  V30 10 S 0.437941 3.331871 1.524884 0
M  V30 11 O 0.908762 3.385005 0.081134 0
M  V30 12 O 0.249801 4.794573 1.910293 0
M  V30 13 C -1.084160 2.497139 1.601223 0
M  V30 14 C -1.954373 2.938739 2.574398 0
M  V30 15 C -3.210003 2.413938 2.786561 0
M  V30 16 C -3.644823 1.368446 1.974439 0
M  V30 17 C -2.771477 0.908660 0.983045 0
M  V30 18 C -1.528989 1.462673 0.807246 0
M  V30 19 C -3.193733 -0.199256 0.138643 0
M  V30 20 O -3.944051 0.444350 -0.625126 0
M  V30 21 N -3.251750 -1.537239 -0.312182 0
M  V30 22 C -4.122254 -1.663805 -1.470136 0
M  V30 23 C -4.204494 -3.086483 -1.935424 0
M  V30 24 N -2.909257 -3.637407 -2.268338 0
M  V30 25 C -1.707928 -3.034988 -2.195979 0
M  V30 26 C -0.799203 -3.981300 -2.598298 0
M  V30 27 C -1.483919 -5.138162 -2.906065 0
M  V30 28 N -2.783196 -4.894135 -2.692339 0
M  V30 29 C 0.645760 -3.890178 -2.703075 0
M  V30 30 N 1.419423 -4.510447 -3.608978 0
M  V30 31 C 2.779380 -4.347161 -3.581719 0
M  V30 32 N 3.418094 -3.584073 -2.682197 0
M  V30 33 C 2.691584 -2.923218 -1.730954 0
M  V30 34 C 3.210789 -2.122651 -0.771935 0
M  V30 35 C 2.262034 -1.559457 0.076935 0
M  V30 36 S 0.628107 -2.256904 -0.600423 0
M  V30 37 C 1.301288 -3.103323 -1.776219 0
M  V30 38 H 3.543508 1.490902 6.555851 0
M  V30 39 H 4.971909 1.459034 5.503095 0
M  V30 40 H 3.937730 -0.045610 5.737412 0
M  V30 41 H 3.624802 -2.225920 2.107259 0
M  V30 42 H 1.374012 0.917953 0.402362 0
M  V30 43 H 2.098122 3.241875 3.316839 0
M  V30 44 H -1.719091 3.746469 3.262389 0
M  V30 45 H -3.934104 2.697747 3.510191 0
M  V30 46 H -4.577320 0.817097 1.948965 0
M  V30 47 H -0.913349 1.062758 0.016296 0
M  V30 48 H -2.605301 -1.666178 0.484567 0
M  V30 49 H -3.799359 -0.973732 -2.282454 0
M  V30 50 H -5.136566 -1.358174 -1.144281 0
M  V30 51 H -4.649573 -3.669815 -1.077917 0
M  V30 52 H -4.862876 -3.207245 -2.804612 0
M  V30 53 H -1.553460 -2.034684 -1.887317 0
M  V30 54 H -1.153268 -6.127976 -3.263993 0
M  V30 55 H 3.323406 -4.871922 -4.333080 0
M  V30 56 H 4.246981 -1.882818 -0.598012 0
M  V30 END ATOM
M  V30 BEGIN BOND
M  V30 1 1 1 2
M  V30 2 1 2 3
M  V30 3 2 3 4
M  V30 4 1 4 5
M  V30 5 2 5 6
M  V30 6 1 6 7
M  V30 7 2 7 8
M  V30 8 1 8 9
M  V30 9 1 9 10
M  V30 10 2 10 11
M  V30 11 2 10 12
M  V30 12 1 10 13
M  V30 13 1 13 14
M  V30 14 2 14 15
M  V30 15 1 15 16
M  V30 16 2 16 17
M  V30 17 1 17 18
M  V30 18 1 17 19
M  V30 19 2 19 20
M  V30 20 1 19 21
M  V30 21 1 21 22
M  V30 22 1 22 23
M  V30 23 1 23 24
M  V30 24 1 24 25
M  V30 25 2 25 26
M  V30 26 1 26 27
M  V30 27 2 27 28
M  V30 28 1 26 29
M  V30 29 1 29 30
M  V30 30 2 30 31
M  V30 31 1 31 32
M  V30 32 2 32 33
M  V30 33 1 33 34
M  V30 34 2 34 35
M  V30 35 1 35 36
M  V30 36 1 36 37
M  V30 37 1 8 3
M  V30 38 2 18 13
M  V30 39 1 28 24
M  V30 40 2 37 29
M  V30 41 1 35 6
M  V30 42 1 37 33
M  V30 43 1 1 38
M  V30 44 1 1 39
M  V30 45 1 1 40
M  V30 46 1 5 41
M  V30 47 1 7 42
M  V30 48 1 9 43
M  V30 49 1 14 44
M  V30 50 1 15 45
M  V30 51 1 16 46
M  V30 52 1 18 47
M  V30 53 1 21 48
M  V30 54 1 22 49
M  V30 55 1 22 50
M  V30 56 1 23 51
M  V30 57 1 23 52
M  V30 58 1 25 53
M  V30 59 1 27 54
M  V30 60 1 31 55
M  V30 61 1 34 56
M  V30 END BOND
M  V30 END CTAB
M  END
>  <Dataset>  (382) 
ChEMBL_Kinases

>  <Ligand_Instance>  (382) 
nan

>  <PDB_ID>  (382) 
nan

>  <Standardized_SMILES>  (382) 
COc1ncc2cc1NS(=O)(=O)c1cccc(c1)C(=O)NCCn1cc(cn1)-c1ncnc3cc-2sc13

>  <Name>  (382) 
nan

>  <Pocket>  (382) 
nan

>  <ATP_Site>  (382) 
nan

>  <Peripheral>  (382) 
nan

>  <Num_H_Atoms_ProtBoundConf>  (382) 
nan

>  <Num_Resolved_Atoms>  (382) 
nan

>  <Num_Not_Resolved_Atoms>  (382) 
nan

$$$$
CHEMBL4871660
     RDKit          3D

  0  0  0  0  0  0  0  0  0  0999 V3000
M  V30 BEGIN CTAB
M  V30 COUNTS 46 49 0 0 0
M  V30 BEGIN ATOM
M  V30 1 O 1.904643 -3.181462 3.696199 0
M  V30 2 S 1.195688 -3.760359 2.506723 0
M  V30 3 O 1.461705 -5.237624 2.502920 0
M  V30 4 N 1.794293 -3.134727 1.028571 0
M  V30 5 C 1.823774 -1.856703 0.454259 0
M  V30 6 C 2.224346 -0.872680 1.362385 0
M  V30 7 C 2.328547 0.456598 1.023640 0
M  V30 8 C 2.025853 0.844141 -0.268604 0
M  V30 9 C 2.106817 2.211685 -0.711822 0
M  V30 10 N 3.167961 2.978471 -0.395360 0
M  V30 11 N 3.033179 4.200697 -0.906697 0
M  V30 12 C 1.861709 4.282088 -1.587335 0
M  V30 13 C 1.172747 5.229795 -2.308834 0
M  V30 14 C -0.034363 4.893043 -2.859961 0
M  V30 15 F -0.650946 5.886440 -3.557476 0
M  V30 16 C -0.637070 3.649118 -2.751105 0
M  V30 17 C 0.058591 2.695418 -2.023739 0
M  V30 18 C 1.286952 3.033911 -1.461399 0
M  V30 19 C 1.630664 -0.113454 -1.171650 0
M  V30 20 C 1.527312 -1.445862 -0.828134 0
M  V30 21 C -0.543274 -3.507943 2.594534 0
M  V30 22 C -0.972527 -2.077155 2.479573 0
M  V30 23 C -2.474143 -2.029796 2.548709 0
M  V30 24 C -3.126623 -3.389519 2.472218 0
M  V30 25 C -2.610588 -4.336546 3.524665 0
M  V30 26 C -1.152875 -4.073966 3.852008 0
M  V30 27 H 2.270066 -3.728370 0.292551 0
M  V30 28 H 2.489434 -1.063200 2.414421 0
M  V30 29 H 2.636686 1.227998 1.714594 0
M  V30 30 H 3.679173 5.009913 -0.836294 0
M  V30 31 H 1.619962 6.206104 -2.408638 0
M  V30 32 H -1.583976 3.478523 -3.216845 0
M  V30 33 H -0.371491 1.702421 -1.908428 0
M  V30 34 H 1.366250 0.060838 -2.212600 0
M  V30 35 H 1.226134 -2.266757 -1.467517 0
M  V30 36 H -0.997574 -4.043801 1.733741 0
M  V30 37 H -0.577604 -1.576195 1.569959 0
M  V30 38 H -0.611904 -1.503705 3.377017 0
M  V30 39 H -2.865550 -1.515523 3.453318 0
M  V30 40 H -2.830462 -1.472670 1.656811 0
M  V30 41 H -4.208502 -3.239390 2.666338 0
M  V30 42 H -3.058027 -3.814494 1.437969 0
M  V30 43 H -3.244694 -4.276427 4.412656 0
M  V30 44 H -2.644453 -5.354658 3.085113 0
M  V30 45 H -1.171804 -3.283500 4.640744 0
M  V30 46 H -0.635738 -4.937184 4.268704 0
M  V30 END ATOM
M  V30 BEGIN BOND
M  V30 1 2 1 2
M  V30 2 2 2 3
M  V30 3 1 2 4
M  V30 4 1 4 5
M  V30 5 2 5 6
M  V30 6 1 6 7
M  V30 7 2 7 8
M  V30 8 1 8 9
M  V30 9 2 9 10
M  V30 10 1 10 11
M  V30 11 1 11 12
M  V30 12 2 12 13
M  V30 13 1 13 14
M  V30 14 1 14 15
M  V30 15 2 14 16
M  V30 16 1 16 17
M  V30 17 2 17 18
M  V30 18 1 8 19
M  V30 19 2 19 20
M  V30 20 1 2 21
M  V30 21 1 21 22
M  V30 22 1 22 23
M  V30 23 1 23 24
M  V30 24 1 24 25
M  V30 25 1 25 26
M  V30 26 1 20 5
M  V30 27 1 26 21
M  V30 28 1 18 9
M  V30 29 1 18 12
M  V30 30 1 4 27
M  V30 31 1 6 28
M  V30 32 1 7 29
M  V30 33 1 11 30
M  V30 34 1 13 31
M  V30 35 1 16 32
M  V30 36 1 17 33
M  V30 37 1 19 34
M  V30 38 1 20 35
M  V30 39 1 21 36
M  V30 40 1 22 37
M  V30 41 1 22 38
M  V30 42 1 23 39
M  V30 43 1 23 40
M  V30 44 1 24 41
M  V30 45 1 24 42
M  V30 46 1 25 43
M  V30 47 1 25 44
M  V30 48 1 26 45
M  V30 49 1 26 46
M  V30 END BOND
M  V30 END CTAB
M  END
>  <Dataset>  (383) 
ChEMBL_Kinases

>  <Ligand_Instance>  (383) 
nan

>  <PDB_ID>  (383) 
nan

>  <Standardized_SMILES>  (383) 
O=S(=O)(Nc1ccc(-c2n[nH]c3cc(F)ccc23)cc1)C1CCCCC1

>  <Name>  (383) 
nan

>  <Pocket>  (383) 
nan

>  <ATP_Site>  (383) 
nan

>  <Peripheral>  (383) 
nan

>  <Num_H_Atoms_ProtBoundConf>  (383) 
nan

>  <Num_Resolved_Atoms>  (383) 
nan

>  <Num_Not_Resolved_Atoms>  (383) 
nan

$$$$
CHEMBL4871803
     RDKit          3D

  0  0  0  0  0  0  0  0  0  0999 V3000
M  V30 BEGIN CTAB
M  V30 COUNTS 70 75 0 0 0
M  V30 BEGIN ATOM
M  V30 1 C 6.877726 0.390061 0.142263 0
M  V30 2 C 6.327739 -0.434257 1.005024 0
M  V30 3 C 5.197999 -1.328684 1.398491 0
M  V30 4 N 4.147617 -1.377071 0.415763 0
M  V30 5 C 4.152002 -2.300576 -0.593012 0
M  V30 6 O 4.979626 -3.234874 -0.881570 0
M  V30 7 C 3.044736 -2.130790 -1.391233 0
M  V30 8 C 2.507624 -2.723961 -2.512567 0
M  V30 9 N 1.342416 -2.254787 -3.027984 0
M  V30 10 C 0.686067 -1.219111 -2.476836 0
M  V30 11 N -0.499301 -0.940654 -3.199071 0
M  V30 12 C -1.726477 -1.210860 -2.528147 0
M  V30 13 C -1.713760 -1.543157 -1.177854 0
M  V30 14 C -2.853517 -1.818644 -0.450384 0
M  V30 15 C -4.047150 -1.748817 -1.142078 0
M  V30 16 N -5.291234 -1.993095 -0.497576 0
M  V30 17 C -6.553512 -2.336143 -1.142763 0
M  V30 18 C -6.945903 -3.683405 -0.552377 0
M  V30 19 N -6.025288 -4.205032 0.381228 0
M  V30 20 C -5.111646 -5.196060 -0.057961 0
M  V30 21 C -5.593246 -3.360549 1.428694 0
M  V30 22 C -5.501488 -1.922856 0.954677 0
M  V30 23 C -4.109936 -1.422532 -2.487084 0
M  V30 24 C -2.942567 -1.152383 -3.181839 0
M  V30 25 N 1.203667 -0.631387 -1.378540 0
M  V30 26 C 2.364470 -1.074485 -0.837452 0
M  V30 27 N 3.054404 -0.655185 0.236844 0
M  V30 28 C 2.749221 0.396181 1.138599 0
M  V30 29 C 2.383531 -0.080047 2.404803 0
M  V30 30 C 2.037146 0.752438 3.464108 0
M  V30 31 C 2.037063 2.107521 3.316171 0
M  V30 32 C 2.406511 2.547520 2.040337 0
M  V30 33 N 2.740452 1.737582 1.020045 0
M  V30 34 C 2.360637 4.043231 2.014598 0 CFG=2
M  V30 35 C 1.625300 4.508662 0.759825 0
M  V30 36 O 3.654931 4.521060 2.034076 0
M  V30 37 C 1.563548 4.435544 3.243017 0
M  V30 38 C 1.734793 3.270074 4.194919 0
M  V30 39 H 7.780631 0.990343 0.024227 0
M  V30 40 H 6.202880 0.495449 -0.723821 0
M  V30 41 H 7.084972 -0.452132 1.809392 0
M  V30 42 H 5.645425 -2.343994 1.555310 0
M  V30 43 H 4.835635 -1.041212 2.424453 0
M  V30 44 H 3.045525 -3.565952 -2.956988 0
M  V30 45 H -0.549523 -0.557454 -4.169736 0
M  V30 46 H -0.799638 -1.614430 -0.583771 0
M  V30 47 H -2.827117 -2.076002 0.598891 0
M  V30 48 H -7.299229 -1.590925 -0.801864 0
M  V30 49 H -6.485065 -2.364371 -2.241780 0
M  V30 50 H -7.957274 -3.639336 -0.098171 0
M  V30 51 H -7.018560 -4.389329 -1.411332 0
M  V30 52 H -5.191657 -6.128409 0.545657 0
M  V30 53 H -5.222099 -5.505450 -1.113835 0
M  V30 54 H -4.082456 -4.797880 0.085023 0
M  V30 55 H -4.533974 -3.651121 1.699250 0
M  V30 56 H -6.158280 -3.466029 2.388551 0
M  V30 57 H -6.411848 -1.329815 1.194747 0
M  V30 58 H -4.583369 -1.413199 1.349831 0
M  V30 59 H -4.976514 -1.341631 -3.109889 0
M  V30 60 H -2.902119 -0.891837 -4.218275 0
M  V30 61 H 2.341813 -1.152231 2.664281 0
M  V30 62 H 1.762241 0.352816 4.425882 0
M  V30 63 H 1.045209 3.671862 0.312428 0
M  V30 64 H 2.357912 4.838619 -0.001738 0
M  V30 65 H 0.899131 5.320566 1.018537 0
M  V30 66 H 4.200934 3.852031 1.531629 0
M  V30 67 H 0.494339 4.493071 2.978573 0
M  V30 68 H 1.939210 5.378494 3.665382 0
M  V30 69 H 2.553728 3.495410 4.907325 0
M  V30 70 H 0.826707 3.059285 4.793177 0
M  V30 END ATOM
M  V30 BEGIN BOND
M  V30 1 2 1 2
M  V30 2 1 2 3
M  V30 3 1 3 4
M  V30 4 1 4 5
M  V30 5 2 5 6
M  V30 6 1 5 7
M  V30 7 2 7 8
M  V30 8 1 8 9
M  V30 9 2 9 10
M  V30 10 1 10 11
M  V30 11 1 11 12
M  V30 12 2 12 13
M  V30 13 1 13 14
M  V30 14 2 14 15
M  V30 15 1 15 16
M  V30 16 1 16 17
M  V30 17 1 17 18
M  V30 18 1 18 19
M  V30 19 1 19 20
M  V30 20 1 19 21
M  V30 21 1 21 22
M  V30 22 1 15 23
M  V30 23 2 23 24
M  V30 24 1 10 25
M  V30 25 2 25 26
M  V30 26 1 26 27
M  V30 27 1 27 28
M  V30 28 2 28 29
M  V30 29 1 29 30
M  V30 30 2 30 31
M  V30 31 1 31 32
M  V30 32 2 32 33
M  V30 33 1 32 34
M  V30 34 1 34 35
M  V30 35 1 34 36 CFG=1
M  V30 36 1 34 37
M  V30 37 1 37 38
M  V30 38 1 27 4
M  V30 39 1 33 28
M  V30 40 1 26 7
M  V30 41 1 38 31
M  V30 42 1 24 12
M  V30 43 1 22 16
M  V30 44 1 1 39
M  V30 45 1 1 40
M  V30 46 1 2 41
M  V30 47 1 3 42
M  V30 48 1 3 43
M  V30 49 1 8 44
M  V30 50 1 11 45
M  V30 51 1 13 46
M  V30 52 1 14 47
M  V30 53 1 17 48
M  V30 54 1 17 49
M  V30 55 1 18 50
M  V30 56 1 18 51
M  V30 57 1 20 52
M  V30 58 1 20 53
M  V30 59 1 20 54
M  V30 60 1 21 55
M  V30 61 1 21 56
M  V30 62 1 22 57
M  V30 63 1 22 58
M  V30 64 1 23 59
M  V30 65 1 24 60
M  V30 66 1 29 61
M  V30 67 1 30 62
M  V30 68 1 35 63
M  V30 69 1 35 64
M  V30 70 1 35 65
M  V30 71 1 36 66
M  V30 72 1 37 67
M  V30 73 1 37 68
M  V30 74 1 38 69
M  V30 75 1 38 70
M  V30 END BOND
M  V30 END CTAB
M  END
>  <Dataset>  (384) 
ChEMBL_Kinases

>  <Ligand_Instance>  (384) 
nan

>  <PDB_ID>  (384) 
nan

>  <Standardized_SMILES>  (384) 
C=CCn1c(=O)c2cnc(Nc3ccc(N4CCN(C)CC4)cc3)nc2n1-c1ccc2c(n1)[C@](C)(O)CC2

>  <Name>  (384) 
nan

>  <Pocket>  (384) 
nan

>  <ATP_Site>  (384) 
nan

>  <Peripheral>  (384) 
nan

>  <Num_H_Atoms_ProtBoundConf>  (384) 
nan

>  <Num_Resolved_Atoms>  (384) 
nan

>  <Num_Not_Resolved_Atoms>  (384) 
nan

$$$$
CHEMBL79376
     RDKit          3D

  0  0  0  0  0  0  0  0  0  0999 V3000
M  V30 BEGIN CTAB
M  V30 COUNTS 65 65 0 0 0
M  V30 BEGIN ATOM
M  V30 1 C 1.917079 -5.193838 4.537184 0
M  V30 2 C 2.256686 -4.430487 3.267029 0
M  V30 3 C 3.714853 -4.529518 2.946856 0
M  V30 4 C 4.056926 -3.778941 1.685694 0
M  V30 5 C 3.713602 -2.336146 1.845100 0
M  V30 6 C 4.055130 -1.545261 0.596463 0
M  V30 7 C 3.304256 -2.063331 -0.606311 0
M  V30 8 C 1.806152 -1.993015 -0.451951 0
M  V30 9 C 1.098240 -2.518820 -1.685312 0
M  V30 10 C 1.453988 -1.720069 -2.915562 0
M  V30 11 C 1.068200 -0.265075 -2.763894 0
M  V30 12 C -0.420284 -0.104149 -2.537434 0
M  V30 13 C -0.745311 1.368802 -2.388850 0
M  V30 14 C -2.162137 1.654264 -2.160970 0
M  V30 15 C -2.699415 2.208399 -1.057149 0
M  V30 16 C -4.176542 2.459673 -0.934143 0
M  V30 17 C -4.467373 2.514266 0.547548 0 CFG=1
M  V30 18 O -4.098350 1.230551 1.053384 0
M  V30 19 C -4.987599 0.422501 1.727077 0
M  V30 20 C -4.376607 -0.881182 2.164525 0
M  V30 21 O -6.178391 0.810667 1.917211 0
M  V30 22 C -3.641168 3.516064 1.280360 0 CFG=2
M  V30 23 C -4.234128 4.909454 1.297010 0
M  V30 24 O -3.441152 5.679497 2.159224 0
M  V30 25 O -2.306195 3.641579 0.806699 0
M  V30 26 C -1.819532 2.553369 0.055308 0
M  V30 27 O -0.791796 1.822796 0.145807 0
M  V30 28 H 2.285615 -6.237829 4.494876 0
M  V30 29 H 2.342285 -4.625431 5.398183 0
M  V30 30 H 0.814767 -5.228074 4.602619 0
M  V30 31 H 1.966350 -3.377263 3.462072 0
M  V30 32 H 1.646181 -4.818640 2.447676 0
M  V30 33 H 4.019389 -5.586892 2.769065 0
M  V30 34 H 4.334661 -4.146742 3.794603 0
M  V30 35 H 3.449498 -4.208776 0.855080 0
M  V30 36 H 5.134814 -3.843356 1.449024 0
M  V30 37 H 4.250997 -1.870720 2.690414 0
M  V30 38 H 2.618111 -2.155630 2.002741 0
M  V30 39 H 5.122336 -1.437973 0.407700 0
M  V30 40 H 3.651599 -0.510435 0.789912 0
M  V30 41 H 3.638837 -3.081142 -0.893617 0
M  V30 42 H 3.606205 -1.386238 -1.458284 0
M  V30 43 H 1.503692 -2.650809 0.373867 0
M  V30 44 H 1.486937 -0.965214 -0.203045 0
M  V30 45 H 1.496091 -3.538822 -1.865506 0
M  V30 46 H 0.020929 -2.587686 -1.563118 0
M  V30 47 H 0.902824 -2.119072 -3.765320 0
M  V30 48 H 2.523596 -1.781401 -3.141859 0
M  V30 49 H 1.320433 0.200690 -3.757670 0
M  V30 50 H 1.694185 0.282595 -2.039179 0
M  V30 51 H -0.807289 -0.735484 -1.732641 0
M  V30 52 H -0.897062 -0.520018 -3.457033 0
M  V30 53 H -0.591800 1.725890 -3.479084 0
M  V30 54 H 0.001428 1.980250 -1.902646 0
M  V30 55 H -2.875638 1.390571 -2.964802 0
M  V30 56 H -4.780996 1.652728 -1.386744 0
M  V30 57 H -4.416847 3.435967 -1.421384 0
M  V30 58 H -5.529454 2.740639 0.771161 0
M  V30 59 H -3.382750 -0.723278 2.590069 0
M  V30 60 H -4.260575 -1.567460 1.292081 0
M  V30 61 H -5.011769 -1.387223 2.903692 0
M  V30 62 H -3.639672 3.185431 2.360440 0
M  V30 63 H -5.252670 4.910220 1.738853 0
M  V30 64 H -4.211422 5.401914 0.304379 0
M  V30 65 H -2.754011 5.144860 2.607311 0
M  V30 END ATOM
M  V30 BEGIN BOND
M  V30 1 1 1 2
M  V30 2 1 2 3
M  V30 3 1 3 4
M  V30 4 1 4 5
M  V30 5 1 5 6
M  V30 6 1 6 7
M  V30 7 1 7 8
M  V30 8 1 8 9
M  V30 9 1 9 10
M  V30 10 1 10 11
M  V30 11 1 11 12
M  V30 12 1 12 13
M  V30 13 1 13 14
M  V30 14 2 14 15
M  V30 15 1 15 16
M  V30 16 1 16 17
M  V30 17 1 17 18
M  V30 18 1 18 19
M  V30 19 1 19 20
M  V30 20 2 19 21
M  V30 21 1 17 22
M  V30 22 1 22 23
M  V30 23 1 23 24
M  V30 24 1 22 25
M  V30 25 1 25 26
M  V30 26 2 26 27
M  V30 27 1 26 15
M  V30 28 1 1 28
M  V30 29 1 1 29
M  V30 30 1 1 30
M  V30 31 1 2 31
M  V30 32 1 2 32
M  V30 33 1 3 33
M  V30 34 1 3 34
M  V30 35 1 4 35
M  V30 36 1 4 36
M  V30 37 1 5 37
M  V30 38 1 5 38
M  V30 39 1 6 39
M  V30 40 1 6 40
M  V30 41 1 7 41
M  V30 42 1 7 42
M  V30 43 1 8 43
M  V30 44 1 8 44
M  V30 45 1 9 45
M  V30 46 1 9 46
M  V30 47 1 10 47
M  V30 48 1 10 48
M  V30 49 1 11 49
M  V30 50 1 11 50
M  V30 51 1 12 51
M  V30 52 1 12 52
M  V30 53 1 13 53
M  V30 54 1 13 54
M  V30 55 1 14 55
M  V30 56 1 16 56
M  V30 57 1 16 57
M  V30 58 1 17 58 CFG=3
M  V30 59 1 20 59
M  V30 60 1 20 60
M  V30 61 1 20 61
M  V30 62 1 22 62 CFG=1
M  V30 63 1 23 63
M  V30 64 1 23 64
M  V30 65 1 24 65
M  V30 END BOND
M  V30 END CTAB
M  END
>  <Dataset>  (385) 
ChEMBL_Kinases

>  <Ligand_Instance>  (385) 
nan

>  <PDB_ID>  (385) 
nan

>  <Standardized_SMILES>  (385) 
CCCCCCCCCCCCC/C=C1/C[C@@H](OC(C)=O)[C@H](CO)OC1=O

>  <Name>  (385) 
nan

>  <Pocket>  (385) 
nan

>  <ATP_Site>  (385) 
nan

>  <Peripheral>  (385) 
nan

>  <Num_H_Atoms_ProtBoundConf>  (385) 
nan

>  <Num_Resolved_Atoms>  (385) 
nan

>  <Num_Not_Resolved_Atoms>  (385) 
nan

$$$$
CHEMBL4871816
     RDKit          3D

  0  0  0  0  0  0  0  0  0  0999 V3000
M  V30 BEGIN CTAB
M  V30 COUNTS 37 39 0 0 0
M  V30 BEGIN ATOM
M  V30 1 C -1.226158 -2.615955 2.886022 0
M  V30 2 C -0.561055 -3.412170 1.789299 0
M  V30 3 C -0.419419 -4.837383 2.272615 0
M  V30 4 N 0.740533 -2.908198 1.411756 0
M  V30 5 C 0.841863 -1.613844 0.840370 0
M  V30 6 C -0.268190 -0.840909 0.624016 0
M  V30 7 C -0.220182 0.419655 0.064247 0
M  V30 8 C -1.341634 1.194453 -0.151437 0
M  V30 9 C -1.322332 2.455680 -0.708295 0
M  V30 10 C -2.544495 3.226173 -0.910846 0
M  V30 11 O -2.530878 4.358366 -1.410333 0
M  V30 12 O -3.756516 2.678093 -0.534585 0
M  V30 13 C -0.102949 2.980605 -1.075170 0
M  V30 14 C 1.058025 2.225216 -0.872430 0
M  V30 15 C 0.988305 0.969519 -0.312382 0
M  V30 16 C 2.136309 0.239614 -0.119401 0
M  V30 17 C 3.331873 0.756163 -0.479944 0
M  V30 18 N 4.485371 0.041969 -0.294372 0
M  V30 19 C 4.437321 -1.195289 0.255278 0
M  V30 20 C 3.202722 -1.695388 0.612932 0
M  V30 21 C 2.016873 -1.012595 0.444771 0
M  V30 22 H -1.311101 -3.228597 3.833492 0
M  V30 23 H -0.640523 -1.713715 3.092449 0
M  V30 24 H -2.278350 -2.369710 2.639018 0
M  V30 25 H -1.258445 -3.464123 0.926915 0
M  V30 26 H -1.378168 -5.124980 2.775119 0
M  V30 27 H -0.249098 -5.561649 1.460595 0
M  V30 28 H 0.420879 -4.889875 2.986470 0
M  V30 29 H 1.554363 -3.523658 1.577794 0
M  V30 30 H -1.262779 -1.147782 0.864707 0
M  V30 31 H -2.303779 0.796391 0.130947 0
M  V30 32 H -4.637161 2.904721 -0.999067 0
M  V30 33 H -0.091929 3.977038 -1.514644 0
M  V30 34 H 1.932370 2.727607 -1.190911 0
M  V30 35 H 3.534760 1.686651 -0.911902 0
M  V30 36 H 5.367381 -1.754670 0.397666 0
M  V30 37 H 3.253842 -2.683850 1.042213 0
M  V30 END ATOM
M  V30 BEGIN BOND
M  V30 1 1 1 2
M  V30 2 1 2 3
M  V30 3 1 2 4
M  V30 4 1 4 5
M  V30 5 2 5 6
M  V30 6 1 6 7
M  V30 7 2 7 8
M  V30 8 1 8 9
M  V30 9 1 9 10
M  V30 10 2 10 11
M  V30 11 1 10 12
M  V30 12 2 9 13
M  V30 13 1 13 14
M  V30 14 2 14 15
M  V30 15 1 15 16
M  V30 16 2 16 17
M  V30 17 1 17 18
M  V30 18 2 18 19
M  V30 19 1 19 20
M  V30 20 2 20 21
M  V30 21 1 21 5
M  V30 22 1 15 7
M  V30 23 1 21 16
M  V30 24 1 1 22
M  V30 25 1 1 23
M  V30 26 1 1 24
M  V30 27 1 2 25
M  V30 28 1 3 26
M  V30 29 1 3 27
M  V30 30 1 3 28
M  V30 31 1 4 29
M  V30 32 1 6 30
M  V30 33 1 8 31
M  V30 34 1 12 32
M  V30 35 1 13 33
M  V30 36 1 14 34
M  V30 37 1 17 35
M  V30 38 1 19 36
M  V30 39 1 20 37
M  V30 END BOND
M  V30 END CTAB
M  END
>  <Dataset>  (386) 
ChEMBL_Kinases

>  <Ligand_Instance>  (386) 
nan

>  <PDB_ID>  (386) 
nan

>  <Standardized_SMILES>  (386) 
CC(C)Nc1cc2cc(C(=O)O)ccc2c2cnccc12

>  <Name>  (386) 
nan

>  <Pocket>  (386) 
nan

>  <ATP_Site>  (386) 
nan

>  <Peripheral>  (386) 
nan

>  <Num_H_Atoms_ProtBoundConf>  (386) 
nan

>  <Num_Resolved_Atoms>  (386) 
nan

>  <Num_Not_Resolved_Atoms>  (386) 
nan

$$$$
CHEMBL4871853
     RDKit          3D

  0  0  0  0  0  0  0  0  0  0999 V3000
M  V30 BEGIN CTAB
M  V30 COUNTS 50 53 0 0 0
M  V30 BEGIN ATOM
M  V30 1 N 3.190232 -4.896632 5.121230 0
M  V30 2 C 2.572286 -4.498463 3.882159 0
M  V30 3 O 2.385611 -5.633362 3.385683 0
M  V30 4 C 2.366227 -3.086699 3.593687 0
M  V30 5 C 2.767851 -2.136456 4.503697 0
M  V30 6 C 2.531251 -0.829036 4.146700 0
M  V30 7 C 1.931026 -0.516516 2.953343 0
M  V30 8 C 1.522050 -1.427279 2.032374 0
M  V30 9 C 0.924435 -1.047285 0.849177 0
M  V30 10 N 0.697256 0.336193 0.526866 0
M  V30 11 C 0.077150 0.447623 -0.731491 0 CFG=2
M  V30 12 C -0.190119 1.784190 -1.328003 0
M  V30 13 N 0.842907 2.657954 -1.636366 0
M  V30 14 C 1.572279 3.294694 -0.622806 0
M  V30 15 C 0.462412 4.371573 -0.601795 0
M  V30 16 C 0.360944 3.963142 -2.055776 0
M  V30 17 C -1.215062 -0.351613 -0.786588 0
M  V30 18 C -2.139271 -0.321843 0.236116 0
M  V30 19 C -3.302247 -1.090996 0.103260 0
M  V30 20 C -3.529725 -1.862755 -1.015950 0
M  V30 21 C -4.744058 -2.693481 -1.203025 0
M  V30 22 F -5.159057 -3.244353 -0.022970 0
M  V30 23 F -5.819306 -1.985247 -1.705998 0
M  V30 24 F -4.508637 -3.711674 -2.124263 0
M  V30 25 C -2.606454 -1.895113 -2.042100 0
M  V30 26 C -1.456528 -1.139424 -1.919786 0
M  V30 27 N 0.598801 -2.100497 0.082162 0
M  V30 28 C 0.810603 -3.382185 0.390446 0
M  V30 29 N 1.396880 -3.721867 1.554595 0
M  V30 30 C 1.768360 -2.727542 2.409381 0
M  V30 31 H 2.754392 -4.564534 5.996476 0
M  V30 32 H 3.998886 -5.455954 5.447729 0
M  V30 33 H 3.227538 -2.480199 5.409068 0
M  V30 34 H 2.865189 -0.097376 4.897412 0
M  V30 35 H 1.826303 0.549607 2.840710 0
M  V30 36 H 0.986297 1.010322 1.228236 0
M  V30 37 H 0.803213 -0.051922 -1.467789 0
M  V30 38 H -0.807542 1.534391 -2.271774 0
M  V30 39 H -1.027606 2.311021 -0.725199 0
M  V30 40 H 1.759663 2.860572 0.348703 0
M  V30 41 H 2.471988 3.830872 -1.059997 0
M  V30 42 H 0.852478 5.395223 -0.423520 0
M  V30 43 H -0.397894 4.085555 0.034750 0
M  V30 44 H -0.673288 3.887464 -2.444447 0
M  V30 45 H 1.063627 4.546702 -2.661174 0
M  V30 46 H -1.950978 0.289887 1.114773 0
M  V30 47 H -4.044903 -1.080765 0.900265 0
M  V30 48 H -2.703327 -2.474773 -2.961708 0
M  V30 49 H -0.717437 -1.141067 -2.700340 0
M  V30 50 H 0.506821 -4.151513 -0.306868 0
M  V30 END ATOM
M  V30 BEGIN BOND
M  V30 1 1 1 2
M  V30 2 2 2 3
M  V30 3 1 2 4
M  V30 4 2 4 5
M  V30 5 1 5 6
M  V30 6 2 6 7
M  V30 7 1 7 8
M  V30 8 2 8 9
M  V30 9 1 9 10
M  V30 10 1 10 11
M  V30 11 1 11 12
M  V30 12 1 12 13
M  V30 13 1 13 14
M  V30 14 1 14 15
M  V30 15 1 15 16
M  V30 16 1 11 17
M  V30 17 2 17 18
M  V30 18 1 18 19
M  V30 19 2 19 20
M  V30 20 1 20 21
M  V30 21 1 21 22
M  V30 22 1 21 23
M  V30 23 1 21 24
M  V30 24 1 20 25
M  V30 25 2 25 26
M  V30 26 1 9 27
M  V30 27 2 27 28
M  V30 28 1 28 29
M  V30 29 2 29 30
M  V30 30 1 30 4
M  V30 31 1 30 8
M  V30 32 1 16 13
M  V30 33 1 26 17
M  V30 34 1 1 31
M  V30 35 1 1 32
M  V30 36 1 5 33
M  V30 37 1 6 34
M  V30 38 1 7 35
M  V30 39 1 10 36
M  V30 40 1 11 37 CFG=3
M  V30 41 1 12 38
M  V30 42 1 12 39
M  V30 43 1 14 40
M  V30 44 1 14 41
M  V30 45 1 15 42
M  V30 46 1 15 43
M  V30 47 1 16 44
M  V30 48 1 16 45
M  V30 49 1 18 46
M  V30 50 1 19 47
M  V30 51 1 25 48
M  V30 52 1 26 49
M  V30 53 1 28 50
M  V30 END BOND
M  V30 END CTAB
M  END
>  <Dataset>  (387) 
ChEMBL_Kinases

>  <Ligand_Instance>  (387) 
nan

>  <PDB_ID>  (387) 
nan

>  <Standardized_SMILES>  (387) 
NC(=O)c1cccc2c(N[C@H](CN3CCC3)c3ccc(C(F)(F)F)cc3)ncnc12

>  <Name>  (387) 
nan

>  <Pocket>  (387) 
nan

>  <ATP_Site>  (387) 
nan

>  <Peripheral>  (387) 
nan

>  <Num_H_Atoms_ProtBoundConf>  (387) 
nan

>  <Num_Resolved_Atoms>  (387) 
nan

>  <Num_Not_Resolved_Atoms>  (387) 
nan

$$$$
CHEMBL4871866
     RDKit          3D

  0  0  0  0  0  0  0  0  0  0999 V3000
M  V30 BEGIN CTAB
M  V30 COUNTS 43 44 0 0 0
M  V30 BEGIN ATOM
M  V30 1 C -3.025160 -2.222067 3.641235 0
M  V30 2 N -2.301346 -2.689918 2.515097 0
M  V30 3 C -1.724390 -1.715118 1.651398 0
M  V30 4 C -0.934793 -2.360129 0.527305 0
M  V30 5 N 0.170788 -3.156549 1.054593 0
M  V30 6 C 1.413231 -2.677361 1.569460 0
M  V30 7 C 1.545618 -1.298743 1.473792 0
M  V30 8 C 2.758715 -0.757689 1.931943 0
M  V30 9 N 2.974248 0.648567 1.845335 0
M  V30 10 C 1.881317 1.426192 1.299408 0
M  V30 11 N 0.981636 2.233766 1.940399 0
M  V30 12 C 0.047494 2.808973 1.137070 0
M  V30 13 C -0.003934 2.603513 -0.226215 0
M  V30 14 C -1.024552 3.229924 -1.086847 0
M  V30 15 F -1.825829 2.352173 -1.748700 0
M  V30 16 F -1.813610 4.090668 -0.351546 0
M  V30 17 F -0.301964 4.036078 -1.979086 0
M  V30 18 C 0.935041 1.769347 -0.842971 0
M  V30 19 N 0.910227 1.525787 -2.245321 0
M  V30 20 C 1.896813 0.651951 -2.886457 0
M  V30 21 N 1.840253 1.221433 -0.016103 0
M  V30 22 C 3.709151 -1.619188 2.432991 0
M  V30 23 N 3.542410 -2.976376 2.511751 0
M  V30 24 C 2.367004 -3.516461 2.069949 0
M  V30 25 C 2.062794 -4.918827 2.089899 0
M  V30 26 N 1.819228 -6.040910 2.125859 0
M  V30 27 H -4.021903 -2.706073 3.719206 0
M  V30 28 H -3.091042 -1.128194 3.682485 0
M  V30 29 H -2.437861 -2.557155 4.554578 0
M  V30 30 H -1.937096 -3.633532 2.514690 0
M  V30 31 H -2.517079 -1.045518 1.251152 0
M  V30 32 H -1.083853 -1.068571 2.278494 0
M  V30 33 H -1.641025 -3.003342 -0.033752 0
M  V30 34 H -0.612259 -1.577068 -0.176308 0
M  V30 35 H 0.037014 -4.211375 1.057825 0
M  V30 36 H 0.824496 -0.631696 1.078399 0
M  V30 37 H 3.891962 1.025747 2.169348 0
M  V30 38 H -0.665709 3.444838 1.626327 0
M  V30 39 H 0.184779 1.972114 -2.831684 0
M  V30 40 H 2.931410 1.030652 -2.700211 0
M  V30 41 H 1.779260 -0.392553 -2.556215 0
M  V30 42 H 1.764698 0.674596 -3.977271 0
M  V30 43 H 4.668786 -1.221289 2.797491 0
M  V30 END ATOM
M  V30 BEGIN BOND
M  V30 1 1 1 2
M  V30 2 1 2 3
M  V30 3 1 3 4
M  V30 4 1 4 5
M  V30 5 1 5 6
M  V30 6 2 6 7
M  V30 7 1 7 8
M  V30 8 1 8 9
M  V30 9 1 9 10
M  V30 10 2 10 11
M  V30 11 1 11 12
M  V30 12 2 12 13
M  V30 13 1 13 14
M  V30 14 1 14 15
M  V30 15 1 14 16
M  V30 16 1 14 17
M  V30 17 1 13 18
M  V30 18 1 18 19
M  V30 19 1 19 20
M  V30 20 2 18 21
M  V30 21 2 8 22
M  V30 22 1 22 23
M  V30 23 2 23 24
M  V30 24 1 24 25
M  V30 25 3 25 26
M  V30 26 1 24 6
M  V30 27 1 21 10
M  V30 28 1 1 27
M  V30 29 1 1 28
M  V30 30 1 1 29
M  V30 31 1 2 30
M  V30 32 1 3 31
M  V30 33 1 3 32
M  V30 34 1 4 33
M  V30 35 1 4 34
M  V30 36 1 5 35
M  V30 37 1 7 36
M  V30 38 1 9 37
M  V30 39 1 12 38
M  V30 40 1 19 39
M  V30 41 1 20 40
M  V30 42 1 20 41
M  V30 43 1 20 42
M  V30 44 1 22 43
M  V30 END BOND
M  V30 END CTAB
M  END
>  <Dataset>  (388) 
ChEMBL_Kinases

>  <Ligand_Instance>  (388) 
nan

>  <PDB_ID>  (388) 
nan

>  <Standardized_SMILES>  (388) 
CNCCNc1cc(Nc2ncc(C(F)(F)F)c(NC)n2)cnc1C#N

>  <Name>  (388) 
nan

>  <Pocket>  (388) 
nan

>  <ATP_Site>  (388) 
nan

>  <Peripheral>  (388) 
nan

>  <Num_H_Atoms_ProtBoundConf>  (388) 
nan

>  <Num_Resolved_Atoms>  (388) 
nan

>  <Num_Not_Resolved_Atoms>  (388) 
nan

$$$$
CHEMBL8066
     RDKit          3D

  0  0  0  0  0  0  0  0  0  0999 V3000
M  V30 BEGIN CTAB
M  V30 COUNTS 26 28 0 0 0
M  V30 BEGIN ATOM
M  V30 1 C 0.849625 -0.265989 2.375325 0
M  V30 2 C -0.076393 -0.885121 1.375152 0
M  V30 3 C -1.370240 -1.174988 1.992449 0
M  V30 4 O -1.394085 -1.805935 3.067523 0
M  V30 5 O -2.393053 -0.643369 1.186942 0
M  V30 6 C -1.800117 -0.182539 0.000132 0
M  V30 7 O -2.335915 0.160709 -1.085085 0
M  V30 8 C -0.309632 -0.117767 0.123008 0
M  V30 9 C 0.164447 1.294638 0.115173 0
M  V30 10 C 0.387384 -0.949277 -0.919327 0
M  V30 11 C -0.421670 -2.177451 -1.311291 0
M  V30 12 C -0.499214 -2.863554 0.038254 0
M  V30 13 C 0.547705 -2.142663 0.815703 0
M  V30 14 O 1.388462 -1.573994 -0.160858 0
M  V30 15 H 0.913768 -1.002139 3.212867 0
M  V30 16 H 0.463569 0.652817 2.815636 0
M  V30 17 H 1.880055 -0.152574 2.011668 0
M  V30 18 H 0.614925 1.651460 1.042820 0
M  V30 19 H 0.883835 1.435328 -0.726117 0
M  V30 20 H -0.686746 1.966949 -0.120787 0
M  V30 21 H 0.766670 -0.380175 -1.772211 0
M  V30 22 H 0.194009 -2.742688 -2.039147 0
M  V30 23 H -1.386764 -1.882578 -1.717218 0
M  V30 24 H -0.368551 -3.953008 -0.026857 0
M  V30 25 H -1.515517 -2.676595 0.429524 0
M  V30 26 H 1.091828 -2.749114 1.542266 0
M  V30 END ATOM
M  V30 BEGIN BOND
M  V30 1 1 1 2
M  V30 2 1 2 3
M  V30 3 2 3 4
M  V30 4 1 3 5
M  V30 5 1 5 6
M  V30 6 2 6 7
M  V30 7 1 6 8
M  V30 8 1 8 9
M  V30 9 1 8 10
M  V30 10 1 10 11
M  V30 11 1 11 12
M  V30 12 1 12 13
M  V30 13 1 13 14
M  V30 14 1 8 2
M  V30 15 1 14 10
M  V30 16 1 13 2
M  V30 17 1 1 15
M  V30 18 1 1 16
M  V30 19 1 1 17
M  V30 20 1 9 18
M  V30 21 1 9 19
M  V30 22 1 9 20
M  V30 23 1 10 21
M  V30 24 1 11 22
M  V30 25 1 11 23
M  V30 26 1 12 24
M  V30 27 1 12 25
M  V30 28 1 13 26
M  V30 END BOND
M  V30 END CTAB
M  END
>  <Dataset>  (389) 
ChEMBL_Kinases

>  <Ligand_Instance>  (389) 
nan

>  <PDB_ID>  (389) 
nan

>  <Standardized_SMILES>  (389) 
CC12C(=O)OC(=O)C1(C)C1CCC2O1

>  <Name>  (389) 
nan

>  <Pocket>  (389) 
nan

>  <ATP_Site>  (389) 
nan

>  <Peripheral>  (389) 
nan

>  <Num_H_Atoms_ProtBoundConf>  (389) 
nan

>  <Num_Resolved_Atoms>  (389) 
nan

>  <Num_Not_Resolved_Atoms>  (389) 
nan

$$$$
CHEMBL4870585
     RDKit          3D

  0  0  0  0  0  0  0  0  0  0999 V3000
M  V30 BEGIN CTAB
M  V30 COUNTS 26 28 0 0 0
M  V30 BEGIN ATOM
M  V30 1 O 2.246612 -4.422480 2.644750 0
M  V30 2 C 2.073331 -3.906823 1.516053 0
M  V30 3 O 2.548814 -4.519370 0.368968 0
M  V30 4 C 1.352414 -2.622847 1.376176 0
M  V30 5 C 0.893411 -2.043038 2.543380 0
M  V30 6 C 0.232259 -0.850749 2.336664 0
M  V30 7 C 0.014854 -0.244256 1.135089 0
M  V30 8 C 0.507539 -0.894803 0.031295 0
M  V30 9 C 1.178397 -2.081882 0.120956 0
M  V30 10 C 0.366251 -0.402838 -1.266600 0
M  V30 11 C -0.299052 0.786418 -1.418916 0
M  V30 12 Br -0.534440 1.525975 -3.157966 0
M  V30 13 C -0.799298 1.451042 -0.319832 0
M  V30 14 C -1.456401 2.636963 -0.530287 0
M  V30 15 C -1.932253 3.252041 0.605607 0
M  V30 16 N -1.771318 2.734130 1.859457 0
M  V30 17 C -1.123189 1.568943 2.043078 0
M  V30 18 Cl -1.054261 1.131017 3.722073 0
M  V30 19 C -0.637950 0.932141 0.935486 0
M  V30 20 H 2.728829 -5.534427 0.352463 0
M  V30 21 H 1.068433 -2.525616 3.480663 0
M  V30 22 H -0.091131 -0.460993 3.258309 0
M  V30 23 H 1.570010 -2.602317 -0.738756 0
M  V30 24 H 0.733662 -0.878210 -2.141308 0
M  V30 25 H -1.584250 3.046137 -1.514481 0
M  V30 26 H -2.455312 4.188912 0.475822 0
M  V30 END ATOM
M  V30 BEGIN BOND
M  V30 1 2 1 2
M  V30 2 1 2 3
M  V30 3 1 2 4
M  V30 4 2 4 5
M  V30 5 1 5 6
M  V30 6 2 6 7
M  V30 7 1 7 8
M  V30 8 2 8 9
M  V30 9 1 8 10
M  V30 10 2 10 11
M  V30 11 1 11 12
M  V30 12 1 11 13
M  V30 13 2 13 14
M  V30 14 1 14 15
M  V30 15 2 15 16
M  V30 16 1 16 17
M  V30 17 1 17 18
M  V30 18 2 17 19
M  V30 19 1 9 4
M  V30 20 1 19 13
M  V30 21 1 19 7
M  V30 22 1 3 20
M  V30 23 1 5 21
M  V30 24 1 6 22
M  V30 25 1 9 23
M  V30 26 1 10 24
M  V30 27 1 14 25
M  V30 28 1 15 26
M  V30 END BOND
M  V30 END CTAB
M  END
>  <Dataset>  (390) 
ChEMBL_Kinases

>  <Ligand_Instance>  (390) 
nan

>  <PDB_ID>  (390) 
nan

>  <Standardized_SMILES>  (390) 
O=C(O)c1ccc2c(c1)cc(Br)c1ccnc(Cl)c12

>  <Name>  (390) 
nan

>  <Pocket>  (390) 
nan

>  <ATP_Site>  (390) 
nan

>  <Peripheral>  (390) 
nan

>  <Num_H_Atoms_ProtBoundConf>  (390) 
nan

>  <Num_Resolved_Atoms>  (390) 
nan

>  <Num_Not_Resolved_Atoms>  (390) 
nan

$$$$
CHEMBL4870589
     RDKit          3D

  0  0  0  0  0  0  0  0  0  0999 V3000
M  V30 BEGIN CTAB
M  V30 COUNTS 43 44 0 0 0
M  V30 BEGIN ATOM
M  V30 1 C -2.857044 -2.887774 0.903979 0
M  V30 2 O -2.267456 -2.757021 2.179934 0
M  V30 3 C -1.006295 -2.289674 2.414053 0
M  V30 4 C -0.222449 -1.907677 1.344058 0
M  V30 5 C 1.059803 -1.427627 1.517303 0
M  V30 6 N 1.859565 -1.036240 0.404001 0
M  V30 7 C 1.830106 0.313017 -0.082678 0
M  V30 8 O 0.979785 0.755120 0.768933 0
M  V30 9 C 2.714287 0.536642 -1.232833 0 CFG=1
M  V30 10 N 3.522157 -0.653377 -1.570548 0
M  V30 11 C 1.993649 0.972331 -2.451401 0
M  V30 12 C 1.224434 2.235418 -2.405266 0
M  V30 13 C 2.040347 3.462512 -2.061233 0
M  V30 14 C -0.067554 2.232301 -1.674445 0
M  V30 15 C 1.543830 -1.337699 2.795069 0
M  V30 16 C 0.740431 -1.725815 3.846519 0
M  V30 17 C -0.544386 -2.209586 3.709579 0
M  V30 18 C -1.304028 -2.590709 4.891722 0
M  V30 19 C -2.583129 -3.090590 4.998012 0
M  V30 20 N -2.915889 -3.315746 6.288935 0
M  V30 21 C -1.793890 -2.934848 6.960563 0
M  V30 22 O -0.877737 -2.519735 6.126361 0
M  V30 23 H -3.077144 -1.919220 0.442178 0
M  V30 24 H -3.681879 -3.620965 0.892132 0
M  V30 25 H -2.055673 -3.368983 0.269494 0
M  V30 26 H -0.576188 -1.966813 0.323783 0
M  V30 27 H 2.405925 -1.901144 0.081573 0
M  V30 28 H 3.485926 1.275349 -0.891330 0
M  V30 29 H 3.015953 -1.263460 -2.250032 0
M  V30 30 H 4.488920 -0.416408 -1.811277 0
M  V30 31 H 1.249041 0.161049 -2.727365 0
M  V30 32 H 2.705719 0.937273 -3.333396 0
M  V30 33 H 0.931896 2.431116 -3.504341 0
M  V30 34 H 1.283378 4.263448 -1.821000 0
M  V30 35 H 2.636123 3.332819 -1.147883 0
M  V30 36 H 2.602125 3.840483 -2.938417 0
M  V30 37 H 0.052153 2.804936 -0.723979 0
M  V30 38 H -0.863110 2.817639 -2.241999 0
M  V30 39 H -0.494885 1.245145 -1.441544 0
M  V30 40 H 2.534027 -0.969475 2.961904 0
M  V30 41 H 1.178512 -1.632316 4.842252 0
M  V30 42 H -3.266513 -3.293067 4.196875 0
M  V30 43 H -1.647877 -2.960009 8.040545 0
M  V30 END ATOM
M  V30 BEGIN BOND
M  V30 1 1 1 2
M  V30 2 1 2 3
M  V30 3 2 3 4
M  V30 4 1 4 5
M  V30 5 1 5 6
M  V30 6 1 6 7
M  V30 7 2 7 8
M  V30 8 1 7 9
M  V30 9 1 9 10
M  V30 10 1 9 11
M  V30 11 1 11 12
M  V30 12 1 12 13
M  V30 13 1 12 14
M  V30 14 2 5 15
M  V30 15 1 15 16
M  V30 16 2 16 17
M  V30 17 1 17 18
M  V30 18 2 18 19
M  V30 19 1 19 20
M  V30 20 2 20 21
M  V30 21 1 21 22
M  V30 22 1 17 3
M  V30 23 1 22 18
M  V30 24 1 1 23
M  V30 25 1 1 24
M  V30 26 1 1 25
M  V30 27 1 4 26
M  V30 28 1 6 27
M  V30 29 1 9 28 CFG=1
M  V30 30 1 10 29
M  V30 31 1 10 30
M  V30 32 1 11 31
M  V30 33 1 11 32
M  V30 34 1 12 33
M  V30 35 1 13 34
M  V30 36 1 13 35
M  V30 37 1 13 36
M  V30 38 1 14 37
M  V30 39 1 14 38
M  V30 40 1 14 39
M  V30 41 1 15 40
M  V30 42 1 16 41
M  V30 43 1 19 42
M  V30 44 1 21 43
M  V30 END BOND
M  V30 END CTAB
M  END
>  <Dataset>  (391) 
ChEMBL_Kinases

>  <Ligand_Instance>  (391) 
nan

>  <PDB_ID>  (391) 
nan

>  <Standardized_SMILES>  (391) 
COc1cc(NC(=O)[C@@H](N)CC(C)C)ccc1-c1cnco1

>  <Name>  (391) 
nan

>  <Pocket>  (391) 
nan

>  <ATP_Site>  (391) 
nan

>  <Peripheral>  (391) 
nan

>  <Num_H_Atoms_ProtBoundConf>  (391) 
nan

>  <Num_Resolved_Atoms>  (391) 
nan

>  <Num_Not_Resolved_Atoms>  (391) 
nan

$$$$
CHEMBL4870601
     RDKit          3D

  0  0  0  0  0  0  0  0  0  0999 V3000
M  V30 BEGIN CTAB
M  V30 COUNTS 53 58 0 0 0
M  V30 BEGIN ATOM
M  V30 1 C 6.432621 0.344467 2.283828 0
M  V30 2 O 5.041473 0.599194 2.363209 0
M  V30 3 C 4.226252 -0.232180 1.555466 0
M  V30 4 N 4.726858 -1.199573 0.766752 0
M  V30 5 C 3.859250 -1.927681 0.044730 0
M  V30 6 C 2.543285 -1.584176 0.207386 0
M  V30 7 C 1.967183 -0.616468 0.988403 0
M  V30 8 C 2.895342 0.102132 1.707931 0
M  V30 9 N 2.425753 1.141010 2.547908 0
M  V30 10 S 1.631914 2.659191 2.417704 0
M  V30 11 O 2.505338 3.639776 1.667614 0
M  V30 12 O 1.523488 3.229951 3.824974 0
M  V30 13 C 0.043957 2.566244 1.708385 0
M  V30 14 C -0.337756 3.683737 0.953571 0
M  V30 15 C -1.546536 3.823337 0.305273 0
M  V30 16 C -2.444898 2.782811 0.409643 0
M  V30 17 C -2.072730 1.681756 1.151416 0
M  V30 18 C -0.866992 1.542684 1.798306 0
M  V30 19 C -3.096548 0.660427 1.179846 0
M  V30 20 O -3.956370 0.464647 0.286136 0
M  V30 21 N -3.668768 -0.415517 1.896139 0
M  V30 22 C -4.768590 -1.324711 1.659833 0
M  V30 23 C -4.435651 -2.403511 0.718017 0
M  V30 24 C -5.517418 -3.360919 0.514813 0
M  V30 25 S -4.598985 -4.488421 -0.709939 0
M  V30 26 C -3.151956 -3.648482 -0.755839 0
M  V30 27 C -3.272135 -2.557188 0.083766 0
M  V30 28 C -1.904882 -3.967887 -1.552432 0
M  V30 29 N -2.046040 -4.792122 -2.601635 0
M  V30 30 C -0.974998 -5.128227 -3.373218 0
M  V30 31 N 0.240831 -4.634736 -3.089711 0
M  V30 32 C 0.372985 -3.809005 -2.035960 0
M  V30 33 C 1.593401 -3.298818 -1.740747 0
M  V30 34 C 1.644897 -2.463152 -0.657372 0
M  V30 35 S -0.154591 -2.439218 -0.069429 0
M  V30 36 C -0.709276 -3.404097 -1.169532 0
M  V30 37 H 6.859746 0.793956 1.352656 0
M  V30 38 H 6.643537 -0.750788 2.188343 0
M  V30 39 H 6.999491 0.700946 3.163251 0
M  V30 40 H 4.184315 -2.727792 -0.617080 0
M  V30 41 H 0.900478 -0.530673 0.954946 0
M  V30 42 H 2.727190 0.721634 3.478368 0
M  V30 43 H 0.339421 4.546611 0.834283 0
M  V30 44 H -1.778352 4.717414 -0.263552 0
M  V30 45 H -3.387830 2.907876 -0.104357 0
M  V30 46 H -0.699349 0.627977 2.346990 0
M  V30 47 H -2.988748 -0.309597 2.677067 0
M  V30 48 H -5.665433 -0.723169 1.326821 0
M  V30 49 H -5.063924 -1.693051 2.666779 0
M  V30 50 H -6.501010 -3.531341 0.833504 0
M  V30 51 H -2.512124 -1.826978 0.266344 0
M  V30 52 H -1.202595 -5.791715 -4.182468 0
M  V30 53 H 2.581546 -3.370569 -2.139526 0
M  V30 END ATOM
M  V30 BEGIN BOND
M  V30 1 1 1 2
M  V30 2 1 2 3
M  V30 3 2 3 4
M  V30 4 1 4 5
M  V30 5 2 5 6
M  V30 6 1 6 7
M  V30 7 2 7 8
M  V30 8 1 8 9
M  V30 9 1 9 10
M  V30 10 2 10 11
M  V30 11 2 10 12
M  V30 12 1 10 13
M  V30 13 2 13 14
M  V30 14 1 14 15
M  V30 15 2 15 16
M  V30 16 1 16 17
M  V30 17 2 17 18
M  V30 18 1 17 19
M  V30 19 2 19 20
M  V30 20 1 19 21
M  V30 21 1 21 22
M  V30 22 1 22 23
M  V30 23 2 23 24
M  V30 24 1 24 25
M  V30 25 1 25 26
M  V30 26 2 26 27
M  V30 27 1 26 28
M  V30 28 1 28 29
M  V30 29 2 29 30
M  V30 30 1 30 31
M  V30 31 2 31 32
M  V30 32 1 32 33
M  V30 33 2 33 34
M  V30 34 1 34 35
M  V30 35 1 35 36
M  V30 36 1 8 3
M  V30 37 1 18 13
M  V30 38 1 27 23
M  V30 39 2 36 28
M  V30 40 1 34 6
M  V30 41 1 36 32
M  V30 42 1 1 37
M  V30 43 1 1 38
M  V30 44 1 1 39
M  V30 45 1 5 40
M  V30 46 1 7 41
M  V30 47 1 9 42
M  V30 48 1 14 43
M  V30 49 1 15 44
M  V30 50 1 16 45
M  V30 51 1 18 46
M  V30 52 1 21 47
M  V30 53 1 22 48
M  V30 54 1 22 49
M  V30 55 1 24 50
M  V30 56 1 27 51
M  V30 57 1 30 52
M  V30 58 1 33 53
M  V30 END BOND
M  V30 END CTAB
M  END
>  <Dataset>  (392) 
ChEMBL_Kinases

>  <Ligand_Instance>  (392) 
nan

>  <PDB_ID>  (392) 
nan

>  <Standardized_SMILES>  (392) 
COc1ncc2cc1NS(=O)(=O)c1cccc(c1)C(=O)NCc1csc(c1)-c1ncnc3cc-2sc13

>  <Name>  (392) 
nan

>  <Pocket>  (392) 
nan

>  <ATP_Site>  (392) 
nan

>  <Peripheral>  (392) 
nan

>  <Num_H_Atoms_ProtBoundConf>  (392) 
nan

>  <Num_Resolved_Atoms>  (392) 
nan

>  <Num_Not_Resolved_Atoms>  (392) 
nan

$$$$
CHEMBL4870695
     RDKit          3D

  0  0  0  0  0  0  0  0  0  0999 V3000
M  V30 BEGIN CTAB
M  V30 COUNTS 215 216 0 0 0
M  V30 BEGIN ATOM
M  V30 1 C -4.025265 0.206268 -6.073954 0
M  V30 2 C -5.164731 -0.524177 -5.444164 0
M  V30 3 C -5.256785 -0.401549 -3.968292 0 CFG=2
M  V30 4 C -5.436271 1.009341 -3.504494 0
M  V30 5 C -4.171311 -1.152815 -3.194049 0 CFG=2
M  V30 6 N -2.841475 -0.717243 -3.497175 0
M  V30 7 C -2.040121 0.261178 -2.872230 0
M  V30 8 O -2.615095 0.845464 -1.894115 0
M  V30 9 C -0.691680 0.529653 -3.357772 0 CFG=2
M  V30 10 C -0.666559 1.871739 -4.098823 0
M  V30 11 C -1.085684 2.970600 -3.178977 0
M  V30 12 C -1.042530 4.329459 -3.856947 0
M  V30 13 C -1.494853 5.342735 -2.810600 0
M  V30 14 N -2.851271 4.996665 -2.367505 0
M  V30 15 N -0.179339 -0.494636 -4.266100 0
M  V30 16 C 1.244440 -0.654312 -4.210160 0
M  V30 17 O 2.042157 0.009441 -3.499975 0
M  V30 18 C 1.962718 -1.687551 -5.041120 0 CFG=2
M  V30 19 C 1.646056 -3.077330 -4.570436 0
M  V30 20 C 1.998839 -3.445881 -3.190176 0
M  V30 21 C 1.404353 -2.697843 -2.057999 0
M  V30 22 C 3.501612 -3.616278 -3.001029 0
M  V30 23 N 3.386459 -1.431824 -5.057500 0
M  V30 24 C 3.989661 -1.104364 -6.328309 0
M  V30 25 O 3.243398 -1.063443 -7.375431 0
M  V30 26 C 5.336270 -0.762552 -6.865435 0
M  V30 27 N 6.345262 -0.702778 -5.785867 0
M  V30 28 C 5.988665 0.348541 -4.863182 0
M  V30 29 O 4.920078 0.882306 -5.281839 0
M  V30 30 C 6.909342 0.555105 -3.688741 0 CFG=2
M  V30 31 C 7.400223 -0.735279 -3.128582 0
M  V30 32 C 7.200774 -0.632620 -1.642898 0
M  V30 33 C 6.690543 0.759339 -1.378186 0
M  V30 34 N 6.272899 1.315291 -2.647067 0
M  V30 35 C 5.380850 2.398399 -2.641169 0
M  V30 36 O 4.991650 2.915618 -3.744591 0
M  V30 37 C 4.685816 3.197404 -1.654417 0 CFG=2
M  V30 38 C 4.983761 4.686272 -1.877834 0
M  V30 39 C 6.422526 4.964123 -1.763411 0
M  V30 40 N 7.198358 5.759322 -0.865901 0
M  V30 41 O 7.035690 4.330796 -2.685220 0
M  V30 42 N 4.996354 2.926609 -0.285257 0
M  V30 43 C 4.187653 2.564912 0.797227 0
M  V30 44 O 2.928123 2.368870 0.858248 0
M  V30 45 C 4.273807 2.260133 2.219458 0 CFG=2
M  V30 46 C 5.182843 1.176800 2.657601 0
M  V30 47 C 6.640565 1.325426 2.395935 0
M  V30 48 C 7.393715 0.085404 2.913276 0
M  V30 49 N 7.222228 -0.134221 4.310055 0
M  V30 50 C 7.940925 -1.312475 4.719938 0
M  V30 51 N 8.677350 -2.054171 3.941263 0
M  V30 52 N 7.855911 -1.735109 6.081618 0
M  V30 53 N 2.974637 2.029698 2.858858 0
M  V30 54 C 2.266485 3.028979 3.618438 0
M  V30 55 O 2.988372 4.052466 3.526720 0
M  V30 56 C 1.036079 2.981377 4.350028 0 CFG=2
M  V30 57 C 1.278364 3.345775 5.841477 0
M  V30 58 C 1.822658 4.741314 5.914885 0
M  V30 59 C 2.050996 5.159926 7.372039 0
M  V30 60 C 3.045530 4.269996 8.046807 0
M  V30 61 N 4.340256 4.267633 7.442512 0
M  V30 62 N 0.324423 1.704635 4.305202 0
M  V30 63 C -0.961420 1.386501 4.863518 0
M  V30 64 O -1.570922 2.277987 5.488871 0
M  V30 65 C -1.640814 0.126315 4.777530 0 CFG=2
M  V30 66 C -1.466013 -0.917066 5.791483 0
M  V30 67 C -1.724988 -0.918392 7.202123 0
M  V30 68 C -1.036595 -0.209478 8.263079 0
M  V30 69 C -0.926360 1.247415 8.372420 0
M  V30 70 N -0.173484 1.507844 9.639686 0
M  V30 71 N -1.219410 -0.488003 3.459379 0
M  V30 72 C -2.287174 -1.235107 2.852005 0
M  V30 73 O -3.423809 -1.329290 3.419647 0
M  V30 74 C -2.729487 -2.068940 1.687151 0
M  V30 75 N -4.141424 -2.450224 1.861923 0
M  V30 76 C -5.237481 -1.619732 1.951765 0
M  V30 77 O -5.087705 -0.342420 1.885064 0
M  V30 78 C -6.663878 -1.628813 2.109357 0 CFG=2
M  V30 79 C -7.459373 -2.116234 0.882759 0
M  V30 80 C -7.127774 -3.518252 0.494662 0
M  V30 81 C -7.957224 -4.008383 -0.685930 0
M  V30 82 C -7.582124 -5.422557 -1.069881 0
M  V30 83 N -8.378223 -5.834710 -2.211673 0
M  V30 84 N -7.130830 -0.300169 2.470655 0
M  V30 85 C -8.365396 0.207125 2.905185 0
M  V30 86 O -9.214392 -0.771740 2.939423 0
M  V30 87 C -8.715663 1.595604 3.269411 0 CFG=1
M  V30 88 N -7.747768 2.036907 4.290359 0
M  V30 89 C -8.563004 2.475253 2.028443 0
M  V30 90 O -7.291299 2.414804 1.513928 0
M  V30 91 C -4.400961 -2.589803 -3.405680 0
M  V30 92 O -5.630465 -2.773579 -3.097057 0
M  V30 93 N -3.625421 -3.722250 -3.843448 0
M  V30 94 C -2.233836 -3.959149 -4.244406 0
M  V30 95 C -2.132824 -5.386481 -4.717465 0
M  V30 96 C -3.567883 -5.611654 -5.225983 0
M  V30 97 C -4.298746 -5.020857 -4.011775 0 CFG=1
M  V30 98 C -4.061652 -5.932450 -2.873684 0
M  V30 99 O -4.571625 -7.074831 -2.688809 0
M  V30 100 O -3.183364 -5.569022 -1.833973 0
M  V30 101 H -3.503956 0.916366 -5.438506 0
M  V30 102 H -4.335749 0.743220 -7.022888 0
M  V30 103 H -3.265434 -0.533017 -6.449379 0
M  V30 104 H -6.096318 -0.075584 -5.863867 0
M  V30 105 H -5.200485 -1.597946 -5.737597 0
M  V30 106 H -6.199439 -0.947594 -3.658061 0
M  V30 107 H -4.558442 1.656021 -3.665812 0
M  V30 108 H -5.764333 1.070579 -2.449457 0
M  V30 109 H -6.275441 1.443352 -4.093872 0
M  V30 110 H -4.452227 -0.906875 -2.123212 0
M  V30 111 H -2.478471 -1.244751 -4.309978 0
M  V30 112 H 0.036066 0.644023 -2.555840 0
M  V30 113 H 0.379916 2.068850 -4.459456 0
M  V30 114 H -1.388048 1.885696 -4.959687 0
M  V30 115 H -0.526866 3.026623 -2.229384 0
M  V30 116 H -2.176746 2.832922 -2.928041 0
M  V30 117 H -0.026825 4.604624 -4.142387 0
M  V30 118 H -1.784577 4.364854 -4.681035 0
M  V30 119 H -1.501798 6.368083 -3.238101 0
M  V30 120 H -0.838231 5.305354 -1.921653 0
M  V30 121 H -2.923396 4.766466 -1.372554 0
M  V30 122 H -3.523382 5.767641 -2.593933 0
M  V30 123 H -0.570819 -1.165389 -4.964862 0
M  V30 124 H 1.579770 -1.564348 -6.057671 0
M  V30 125 H 0.556824 -3.257173 -4.815340 0
M  V30 126 H 2.175431 -3.802411 -5.233085 0
M  V30 127 H 1.597891 -4.519337 -3.056605 0
M  V30 128 H 2.186985 -1.982994 -1.670750 0
M  V30 129 H 0.457219 -2.202583 -2.202028 0
M  V30 130 H 1.264973 -3.377137 -1.142512 0
M  V30 131 H 3.900010 -2.725331 -2.431191 0
M  V30 132 H 3.730631 -4.481987 -2.327111 0
M  V30 133 H 4.022621 -3.801349 -3.956972 0
M  V30 134 H 4.146845 -1.424817 -4.357689 0
M  V30 135 H 5.289888 0.232880 -7.351009 0
M  V30 136 H 5.663345 -1.529829 -7.602987 0
M  V30 137 H 7.195521 -1.302892 -5.669850 0
M  V30 138 H 7.754409 1.187137 -4.097360 0
M  V30 139 H 6.878066 -1.607765 -3.555317 0
M  V30 140 H 8.480714 -0.865809 -3.366283 0
M  V30 141 H 8.130965 -0.850865 -1.065158 0
M  V30 142 H 6.432065 -1.364002 -1.297199 0
M  V30 143 H 5.871191 0.733644 -0.627796 0
M  V30 144 H 7.522904 1.345296 -0.945473 0
M  V30 145 H 3.558120 3.148688 -1.766004 0
M  V30 146 H 4.395819 5.254769 -1.094573 0
M  V30 147 H 4.578168 4.988097 -2.840996 0
M  V30 148 H 7.326792 6.801384 -0.739439 0
M  V30 149 H 7.659464 5.015489 -0.290886 0
M  V30 150 H 5.951426 3.012817 0.058776 0
M  V30 151 H 4.718333 3.223831 2.666891 0
M  V30 152 H 4.822510 0.148607 2.319906 0
M  V30 153 H 5.085110 1.080320 3.785714 0
M  V30 154 H 7.050903 2.190275 2.982292 0
M  V30 155 H 6.963073 1.427811 1.368516 0
M  V30 156 H 6.944252 -0.766210 2.330204 0
M  V30 157 H 8.467297 0.226911 2.641130 0
M  V30 158 H 6.719412 0.332195 5.087561 0
M  V30 159 H 9.160479 -2.882967 4.308423 0
M  V30 160 H 8.599068 -2.285612 6.569431 0
M  V30 161 H 7.527018 -1.899923 7.052739 0
M  V30 162 H 2.487370 1.104473 2.798949 0
M  V30 163 H 0.282267 3.760624 4.067757 0
M  V30 164 H 1.885196 2.586687 6.320411 0
M  V30 165 H 0.231025 3.437917 6.275113 0
M  V30 166 H 1.097152 5.441558 5.451006 0
M  V30 167 H 2.785228 4.911069 5.433553 0
M  V30 168 H 2.436258 6.188346 7.414475 0
M  V30 169 H 1.096470 5.087859 7.903550 0
M  V30 170 H 3.134072 4.632145 9.113295 0
M  V30 171 H 2.632388 3.240851 8.113015 0
M  V30 172 H 4.592265 5.171402 6.985880 0
M  V30 173 H 4.530281 3.451632 6.806909 0
M  V30 174 H 0.756554 0.868092 3.811617 0
M  V30 175 H -2.768222 0.269469 4.690913 0
M  V30 176 H -1.881177 -1.911931 5.309274 0
M  V30 177 H -0.326355 -1.236635 5.700814 0
M  V30 178 H -2.866773 -0.655473 7.352017 0
M  V30 179 H -1.733166 -2.036256 7.571530 0
M  V30 180 H -1.491564 -0.570686 9.262632 0
M  V30 181 H 0.037688 -0.613841 8.378534 0
M  V30 182 H -1.820936 1.844383 8.435270 0
M  V30 183 H -0.175305 1.644020 7.613350 0
M  V30 184 H 0.757683 1.038118 9.545942 0
M  V30 185 H -0.094260 2.520178 9.767091 0
M  V30 186 H -0.498367 -0.657170 2.724667 0
M  V30 187 H -2.101413 -2.930341 1.519466 0
M  V30 188 H -2.651797 -1.403670 0.792002 0
M  V30 189 H -4.526921 -3.432495 1.972355 0
M  V30 190 H -7.010348 -2.331469 2.893340 0
M  V30 191 H -8.524945 -2.100349 1.182271 0
M  V30 192 H -7.342276 -1.464136 0.014833 0
M  V30 193 H -6.040200 -3.566701 0.219219 0
M  V30 194 H -7.283604 -4.204905 1.331737 0
M  V30 195 H -7.714528 -3.374168 -1.538719 0
M  V30 196 H -9.038293 -4.024659 -0.438739 0
M  V30 197 H -7.828029 -6.083411 -0.213872 0
M  V30 198 H -6.529415 -5.462750 -1.348035 0
M  V30 199 H -8.728886 -4.963062 -2.668131 0
M  V30 200 H -7.754121 -6.370306 -2.868115 0
M  V30 201 H -6.483741 0.563138 2.453726 0
M  V30 202 H -9.736600 1.657616 3.621691 0
M  V30 203 H -8.028276 2.955213 4.714574 0
M  V30 204 H -7.790159 1.268261 5.042750 0
M  V30 205 H -9.268469 2.086312 1.258336 0
M  V30 206 H -8.811287 3.538696 2.297395 0
M  V30 207 H -6.644619 3.049559 1.895295 0
M  V30 208 H -1.508276 -3.700951 -3.463845 0
M  V30 209 H -2.100586 -3.349654 -5.194136 0
M  V30 210 H -1.397756 -5.457043 -5.531635 0
M  V30 211 H -1.918123 -6.053595 -3.875778 0
M  V30 212 H -3.769153 -6.672723 -5.350336 0
M  V30 213 H -3.690741 -4.976634 -6.111643 0
M  V30 214 H -5.363831 -4.939406 -4.241341 0
M  V30 215 H -2.591181 -6.253632 -1.410768 0
M  V30 END ATOM
M  V30 BEGIN BOND
M  V30 1 1 1 2
M  V30 2 1 2 3
M  V30 3 1 3 4
M  V30 4 1 3 5
M  V30 5 1 5 6
M  V30 6 1 6 7
M  V30 7 2 7 8
M  V30 8 1 7 9
M  V30 9 1 9 10
M  V30 10 1 10 11
M  V30 11 1 11 12
M  V30 12 1 12 13
M  V30 13 1 13 14
M  V30 14 1 9 15
M  V30 15 1 15 16
M  V30 16 2 16 17
M  V30 17 1 16 18
M  V30 18 1 18 19
M  V30 19 1 19 20
M  V30 20 1 20 21
M  V30 21 1 20 22
M  V30 22 1 18 23
M  V30 23 1 23 24
M  V30 24 2 24 25
M  V30 25 1 24 26
M  V30 26 1 26 27
M  V30 27 1 27 28
M  V30 28 2 28 29
M  V30 29 1 28 30
M  V30 30 1 30 31
M  V30 31 1 31 32
M  V30 32 1 32 33
M  V30 33 1 33 34
M  V30 34 1 34 35
M  V30 35 2 35 36
M  V30 36 1 35 37
M  V30 37 1 37 38
M  V30 38 1 38 39
M  V30 39 1 39 40
M  V30 40 2 39 41
M  V30 41 1 37 42
M  V30 42 1 42 43
M  V30 43 2 43 44
M  V30 44 1 43 45
M  V30 45 1 45 46
M  V30 46 1 46 47
M  V30 47 1 47 48
M  V30 48 1 48 49
M  V30 49 1 49 50
M  V30 50 2 50 51 CFG=2
M  V30 51 1 50 52
M  V30 52 1 45 53
M  V30 53 1 53 54
M  V30 54 2 54 55
M  V30 55 1 54 56
M  V30 56 1 56 57
M  V30 57 1 57 58
M  V30 58 1 58 59
M  V30 59 1 59 60
M  V30 60 1 60 61
M  V30 61 1 56 62
M  V30 62 1 62 63
M  V30 63 2 63 64
M  V30 64 1 63 65
M  V30 65 1 65 66
M  V30 66 1 66 67
M  V30 67 1 67 68
M  V30 68 1 68 69
M  V30 69 1 69 70
M  V30 70 1 65 71
M  V30 71 1 71 72
M  V30 72 2 72 73
M  V30 73 1 72 74
M  V30 74 1 74 75
M  V30 75 1 75 76
M  V30 76 2 76 77
M  V30 77 1 76 78
M  V30 78 1 78 79
M  V30 79 1 79 80
M  V30 80 1 80 81
M  V30 81 1 81 82
M  V30 82 1 82 83
M  V30 83 1 78 84
M  V30 84 1 84 85
M  V30 85 2 85 86
M  V30 86 1 85 87
M  V30 87 1 87 88
M  V30 88 1 87 89
M  V30 89 1 89 90
M  V30 90 1 5 91
M  V30 91 2 91 92
M  V30 92 1 91 93
M  V30 93 1 93 94
M  V30 94 1 94 95
M  V30 95 1 95 96
M  V30 96 1 96 97
M  V30 97 1 97 98
M  V30 98 2 98 99
M  V30 99 1 98 100
M  V30 100 1 34 30
M  V30 101 1 97 93
M  V30 102 1 1 101
M  V30 103 1 1 102
M  V30 104 1 1 103
M  V30 105 1 2 104
M  V30 106 1 2 105
M  V30 107 1 3 106 CFG=1
M  V30 108 1 4 107
M  V30 109 1 4 108
M  V30 110 1 4 109
M  V30 111 1 5 110 CFG=1
M  V30 112 1 6 111
M  V30 113 1 9 112 CFG=1
M  V30 114 1 10 113
M  V30 115 1 10 114
M  V30 116 1 11 115
M  V30 117 1 11 116
M  V30 118 1 12 117
M  V30 119 1 12 118
M  V30 120 1 13 119
M  V30 121 1 13 120
M  V30 122 1 14 121
M  V30 123 1 14 122
M  V30 124 1 15 123
M  V30 125 1 18 124 CFG=3
M  V30 126 1 19 125
M  V30 127 1 19 126
M  V30 128 1 20 127
M  V30 129 1 21 128
M  V30 130 1 21 129
M  V30 131 1 21 130
M  V30 132 1 22 131
M  V30 133 1 22 132
M  V30 134 1 22 133
M  V30 135 1 23 134
M  V30 136 1 26 135
M  V30 137 1 26 136
M  V30 138 1 27 137
M  V30 139 1 30 138 CFG=3
M  V30 140 1 31 139
M  V30 141 1 31 140
M  V30 142 1 32 141
M  V30 143 1 32 142
M  V30 144 1 33 143
M  V30 145 1 33 144
M  V30 146 1 37 145 CFG=1
M  V30 147 1 38 146
M  V30 148 1 38 147
M  V30 149 1 40 148
M  V30 150 1 40 149
M  V30 151 1 42 150
M  V30 152 1 45 151 CFG=1
M  V30 153 1 46 152
M  V30 154 1 46 153
M  V30 155 1 47 154
M  V30 156 1 47 155
M  V30 157 1 48 156
M  V30 158 1 48 157
M  V30 159 1 49 158
M  V30 160 1 51 159
M  V30 161 1 52 160
M  V30 162 1 52 161
M  V30 163 1 53 162
M  V30 164 1 56 163 CFG=3
M  V30 165 1 57 164
M  V30 166 1 57 165
M  V30 167 1 58 166
M  V30 168 1 58 167
M  V30 169 1 59 168
M  V30 170 1 59 169
M  V30 171 1 60 170
M  V30 172 1 60 171
M  V30 173 1 61 172
M  V30 174 1 61 173
M  V30 175 1 62 174
M  V30 176 1 65 175 CFG=3
M  V30 177 1 66 176
M  V30 178 1 66 177
M  V30 179 1 67 178
M  V30 180 1 67 179
M  V30 181 1 68 180
M  V30 182 1 68 181
M  V30 183 1 69 182
M  V30 184 1 69 183
M  V30 185 1 70 184
M  V30 186 1 70 185
M  V30 187 1 71 186
M  V30 188 1 74 187
M  V30 189 1 74 188
M  V30 190 1 75 189
M  V30 191 1 78 190 CFG=1
M  V30 192 1 79 191
M  V30 193 1 79 192
M  V30 194 1 80 193
M  V30 195 1 80 194
M  V30 196 1 81 195
M  V30 197 1 81 196
M  V30 198 1 82 197
M  V30 199 1 82 198
M  V30 200 1 83 199
M  V30 201 1 83 200
M  V30 202 1 84 201
M  V30 203 1 87 202 CFG=1
M  V30 204 1 88 203
M  V30 205 1 88 204
M  V30 206 1 89 205
M  V30 207 1 89 206
M  V30 208 1 90 207
M  V30 209 1 94 208
M  V30 210 1 94 209
M  V30 211 1 95 210
M  V30 212 1 95 211
M  V30 213 1 96 212
M  V30 214 1 96 213
M  V30 215 1 97 214 CFG=3
M  V30 216 1 100 215
M  V30 END BOND
M  V30 END CTAB
M  END
>  <Dataset>  (393) 
ChEMBL_Kinases

>  <Ligand_Instance>  (393) 
nan

>  <PDB_ID>  (393) 
nan

>  <Standardized_SMILES>  (393) 
CC[C@H](C)[C@H](NC(=O)[C@H](CCCCN)NC(=O)[C@H](CC(C)C)NC(=O)CNC(=O)[C@@H]1CCCN1C(=O)[C@H](CC(N)=O)NC(=O)[C@H](CCCNC(=N)N)NC(=O)[C@H](CCCCN)NC(=O)[C@H](CCCCN)NC(=O)CNC(=O)[C@H](CCCCN)NC(=O)[C@@H](N)CO)C(=O)N1CCC[C@H]1C(=O)O

>  <Name>  (393) 
nan

>  <Pocket>  (393) 
nan

>  <ATP_Site>  (393) 
nan

>  <Peripheral>  (393) 
nan

>  <Num_H_Atoms_ProtBoundConf>  (393) 
nan

>  <Num_Resolved_Atoms>  (393) 
nan

>  <Num_Not_Resolved_Atoms>  (393) 
nan

$$$$
CHEMBL4870731
     RDKit          3D

  0  0  0  0  0  0  0  0  0  0999 V3000
M  V30 BEGIN CTAB
M  V30 COUNTS 80 85 0 0 0
M  V30 BEGIN ATOM
M  V30 1 C -1.431004 2.594883 5.330448 0
M  V30 2 O -1.139775 1.355323 4.719083 0
M  V30 3 C -1.006085 1.303382 3.342683 0
M  V30 4 C -1.144795 2.408228 2.542951 0
M  V30 5 C -1.011361 2.355383 1.175120 0
M  V30 6 N -1.166992 3.505748 0.355470 0
M  V30 7 C -0.858923 3.605987 -1.048789 0
M  V30 8 C -1.771133 4.569076 -1.781926 0
M  V30 9 N -3.084362 4.471161 -1.174944 0
M  V30 10 C -4.119479 5.005138 -2.000291 0
M  V30 11 C -2.993915 5.128941 0.102325 0
M  V30 12 C -1.673808 4.801677 0.766104 0
M  V30 13 C -0.727531 1.159376 0.559185 0
M  V30 14 C -0.599204 0.079623 1.411332 0
M  V30 15 C -0.717253 0.041771 2.799599 0
M  V30 16 N -0.562587 -1.162260 3.526675 0
M  V30 17 C -0.268957 -2.503434 3.207346 0
M  V30 18 N -0.302022 -3.318383 4.303916 0
M  V30 19 C -0.059951 -4.629785 4.277104 0
M  V30 20 C 0.233983 -5.123771 3.042720 0
M  V30 21 C 0.480828 -6.481784 3.035546 0
M  V30 22 C 0.426318 -7.320597 4.279044 0
M  V30 23 C 0.793275 -7.129362 1.855402 0
M  V30 24 C 0.829593 -6.314737 0.744163 0
M  V30 25 O 1.118364 -6.937206 -0.322050 0
M  V30 26 N 0.581818 -4.982099 0.783687 0
M  V30 27 C 0.684991 -4.376123 -0.483265 0 CFG=1
M  V30 28 C 0.309901 -2.966282 -0.668902 0
M  V30 29 C 0.284774 -2.718406 -2.194601 0
M  V30 30 C 1.674506 -2.847860 -2.759168 0 CFG=1
M  V30 31 N 2.171789 -1.599121 -3.224392 0
M  V30 32 C 1.422352 -1.062923 -4.308777 0
M  V30 33 C 1.943013 0.276038 -4.785241 0
M  V30 34 C 1.975721 1.421260 -3.829633 0
M  V30 35 C 3.264599 0.767890 -4.372284 0
M  V30 36 C 2.641227 -3.440103 -1.755866 0
M  V30 37 C 2.068853 -4.673410 -1.088842 0
M  V30 38 C 0.286256 -4.373626 1.905332 0
M  V30 39 N 0.031517 -3.052650 1.992543 0
M  V30 40 H -2.434837 2.990303 5.058102 0
M  V30 41 H -1.300915 2.542520 6.444435 0
M  V30 42 H -0.697910 3.389347 5.012605 0
M  V30 43 H -1.363789 3.305645 3.088027 0
M  V30 44 H -0.981208 2.635723 -1.527936 0
M  V30 45 H 0.200800 3.993580 -1.094327 0
M  V30 46 H -1.410327 5.608966 -1.557790 0
M  V30 47 H -1.769946 4.398385 -2.863818 0
M  V30 48 H -4.701577 5.819920 -1.570053 0
M  V30 49 H -4.828846 4.226670 -2.350300 0
M  V30 50 H -3.635408 5.427477 -2.928721 0
M  V30 51 H -3.079619 6.222894 -0.073857 0
M  V30 52 H -3.865372 4.849340 0.745093 0
M  V30 53 H -0.931584 5.571789 0.525776 0
M  V30 54 H -1.903786 4.788433 1.866088 0
M  V30 55 H -0.595299 0.968411 -0.491364 0
M  V30 56 H -0.383148 -0.884496 0.994571 0
M  V30 57 H -0.712348 -0.912817 4.506562 0
M  V30 58 H -0.107489 -5.217271 5.203545 0
M  V30 59 H 1.267751 -7.087282 4.966893 0
M  V30 60 H 0.487464 -8.397107 4.022615 0
M  V30 61 H -0.515952 -7.182970 4.837945 0
M  V30 62 H 0.989637 -8.194740 1.833128 0
M  V30 63 H -0.025490 -4.960353 -1.160084 0
M  V30 64 H 1.055338 -2.229933 -0.308366 0
M  V30 65 H -0.722004 -2.801074 -0.368580 0
M  V30 66 H -0.103694 -1.694172 -2.294166 0
M  V30 67 H -0.445679 -3.419090 -2.641746 0
M  V30 68 H 1.605618 -3.531374 -3.642173 0
M  V30 69 H 3.199336 -1.566710 -3.360233 0
M  V30 70 H 0.354115 -0.913520 -4.074776 0
M  V30 71 H 1.443870 -1.818411 -5.129004 0
M  V30 72 H 1.611058 0.546684 -5.805528 0
M  V30 73 H 1.737076 1.301560 -2.764392 0
M  V30 74 H 1.775876 2.469331 -4.172828 0
M  V30 75 H 3.846170 1.422270 -5.063482 0
M  V30 76 H 3.889992 0.330108 -3.592320 0
M  V30 77 H 2.911305 -2.668661 -1.029269 0
M  V30 78 H 3.540502 -3.753815 -2.322707 0
M  V30 79 H 2.011711 -5.445103 -1.878239 0
M  V30 80 H 2.775483 -4.995970 -0.334322 0
M  V30 END ATOM
M  V30 BEGIN BOND
M  V30 1 1 1 2
M  V30 2 1 2 3
M  V30 3 2 3 4
M  V30 4 1 4 5
M  V30 5 1 5 6
M  V30 6 1 6 7
M  V30 7 1 7 8
M  V30 8 1 8 9
M  V30 9 1 9 10
M  V30 10 1 9 11
M  V30 11 1 11 12
M  V30 12 2 5 13
M  V30 13 1 13 14
M  V30 14 2 14 15
M  V30 15 1 15 16
M  V30 16 1 16 17
M  V30 17 2 17 18
M  V30 18 1 18 19
M  V30 19 2 19 20
M  V30 20 1 20 21
M  V30 21 1 21 22
M  V30 22 2 21 23
M  V30 23 1 23 24
M  V30 24 2 24 25
M  V30 25 1 24 26
M  V30 26 1 26 27
M  V30 27 1 27 28
M  V30 28 1 28 29
M  V30 29 1 29 30
M  V30 30 1 30 31
M  V30 31 1 31 32
M  V30 32 1 32 33
M  V30 33 1 33 34
M  V30 34 1 34 35
M  V30 35 1 30 36
M  V30 36 1 36 37
M  V30 37 1 26 38
M  V30 38 2 38 39
M  V30 39 1 15 3
M  V30 40 1 39 17
M  V30 41 1 12 6
M  V30 42 1 38 20
M  V30 43 1 37 27
M  V30 44 1 35 33
M  V30 45 1 1 40
M  V30 46 1 1 41
M  V30 47 1 1 42
M  V30 48 1 4 43
M  V30 49 1 7 44
M  V30 50 1 7 45
M  V30 51 1 8 46
M  V30 52 1 8 47
M  V30 53 1 10 48
M  V30 54 1 10 49
M  V30 55 1 10 50
M  V30 56 1 11 51
M  V30 57 1 11 52
M  V30 58 1 12 53
M  V30 59 1 12 54
M  V30 60 1 13 55
M  V30 61 1 14 56
M  V30 62 1 16 57
M  V30 63 1 19 58
M  V30 64 1 22 59
M  V30 65 1 22 60
M  V30 66 1 22 61
M  V30 67 1 23 62
M  V30 68 1 27 63 CFG=3
M  V30 69 1 28 64
M  V30 70 1 28 65
M  V30 71 1 29 66
M  V30 72 1 29 67
M  V30 73 1 30 68 CFG=3
M  V30 74 1 31 69
M  V30 75 1 32 70
M  V30 76 1 32 71
M  V30 77 1 33 72
M  V30 78 1 34 73
M  V30 79 1 34 74
M  V30 80 1 35 75
M  V30 81 1 35 76
M  V30 82 1 36 77
M  V30 83 1 36 78
M  V30 84 1 37 79
M  V30 85 1 37 80
M  V30 END BOND
M  V30 END CTAB
M  END
>  <Dataset>  (394) 
ChEMBL_Kinases

>  <Ligand_Instance>  (394) 
nan

>  <PDB_ID>  (394) 
nan

>  <Standardized_SMILES>  (394) 
COc1cc(N2CCN(C)CC2)ccc1Nc1ncc2c(C)cc(=O)n([C@H]3CC[C@@H](NCC4CC4)CC3)c2n1

>  <Name>  (394) 
nan

>  <Pocket>  (394) 
nan

>  <ATP_Site>  (394) 
nan

>  <Peripheral>  (394) 
nan

>  <Num_H_Atoms_ProtBoundConf>  (394) 
nan

>  <Num_Resolved_Atoms>  (394) 
nan

>  <Num_Not_Resolved_Atoms>  (394) 
nan

$$$$
CHEMBL4870746
     RDKit          3D

  0  0  0  0  0  0  0  0  0  0999 V3000
M  V30 BEGIN CTAB
M  V30 COUNTS 70 74 0 0 0
M  V30 BEGIN ATOM
M  V30 1 O 0.191208 -2.106112 0.118301 0
M  V30 2 C 0.078374 -3.083586 0.902120 0
M  V30 3 N 0.723887 -4.244308 0.449859 0
M  V30 4 C 1.496707 -4.810683 -0.600815 0
M  V30 5 C 0.781707 -4.870719 -1.920416 0
M  V30 6 C 0.355809 -3.582348 -2.497390 0
M  V30 7 C 0.055801 -3.684555 -3.983470 0
M  V30 8 N 1.130989 -4.322325 -4.671333 0
M  V30 9 C 1.059446 -4.260924 -6.093064 0
M  V30 10 C 1.130533 -2.851758 -6.598985 0
M  V30 11 C 0.130583 -2.038415 -7.084554 0
M  V30 12 C 0.497326 -0.776232 -7.480686 0
M  V30 13 C 1.759857 -0.269920 -7.432607 0
M  V30 14 C 2.746839 -1.101532 -6.942284 0
M  V30 15 C 2.439347 -2.385205 -6.527304 0
M  V30 16 F 3.521580 -3.070551 -6.075890 0
M  V30 17 C 1.161555 -5.697550 -4.236186 0
M  V30 18 C 1.658838 -5.725581 -2.824771 0
M  V30 19 C -0.669083 -2.931677 2.139777 0
M  V30 20 C -0.857319 -3.877678 3.120275 0
M  V30 21 N -1.559062 -3.675085 4.246853 0
M  V30 22 C -2.154999 -2.494269 4.521134 0
M  V30 23 C -1.974363 -1.533670 3.546094 0
M  V30 24 N -2.562199 -0.246780 3.741017 0
M  V30 25 C -1.891720 0.843801 4.353024 0
M  V30 26 O -0.708096 0.526567 4.701489 0
M  V30 27 C -2.484306 2.162212 4.556395 0
M  V30 28 C -3.788135 2.525198 4.249166 0
M  V30 29 C -4.198659 3.826296 4.499513 0
M  V30 30 N -3.357601 4.730192 5.029905 0
M  V30 31 C -2.070407 4.405241 5.342589 0
M  V30 32 N -1.187546 5.364919 5.899217 0
M  V30 33 C -0.796396 5.807274 7.190151 0
M  V30 34 O -1.254882 5.327112 8.255060 0
M  V30 35 C 0.220602 6.906980 7.136182 0
M  V30 36 C -0.105047 8.037806 6.123506 0
M  V30 37 C 1.085747 7.100262 5.972912 0
M  V30 38 C -1.629293 3.114624 5.104750 0
M  V30 39 C -1.260851 -1.713179 2.381655 0
M  V30 40 H 0.547319 -4.976795 1.220077 0
M  V30 41 H 2.427258 -4.168930 -0.683989 0
M  V30 42 H 1.793925 -5.846843 -0.335557 0
M  V30 43 H -0.167145 -5.465151 -1.700677 0
M  V30 44 H 1.026436 -2.737166 -2.340760 0
M  V30 45 H -0.646928 -3.300051 -2.054007 0
M  V30 46 H -0.140102 -2.672008 -4.347136 0
M  V30 47 H -0.868431 -4.294441 -4.121767 0
M  V30 48 H 1.855420 -4.869280 -6.540744 0
M  V30 49 H 0.049281 -4.652516 -6.418571 0
M  V30 50 H -0.834553 -2.522363 -7.085580 0
M  V30 51 H -0.335679 -0.172305 -7.858368 0
M  V30 52 H 1.938254 0.747862 -7.773286 0
M  V30 53 H 3.752379 -0.679126 -6.909760 0
M  V30 54 H 0.127707 -6.137139 -4.204068 0
M  V30 55 H 1.743177 -6.362972 -4.884049 0
M  V30 56 H 1.617158 -6.770002 -2.457474 0
M  V30 57 H 2.710762 -5.377810 -2.744487 0
M  V30 58 H -0.411147 -4.849682 2.974760 0
M  V30 59 H -2.716501 -2.343013 5.431037 0
M  V30 60 H -3.560145 -0.102920 3.406563 0
M  V30 61 H -4.364539 1.732358 3.836118 0
M  V30 62 H -5.229275 4.010969 4.228545 0
M  V30 63 H -0.840948 5.722455 4.982670 0
M  V30 64 H 0.582719 7.296608 8.119028 0
M  V30 65 H -0.975484 7.841715 5.486636 0
M  V30 66 H 0.094750 9.087459 6.472626 0
M  V30 67 H 2.098529 7.555276 6.136223 0
M  V30 68 H 1.078365 6.373140 5.148457 0
M  V30 69 H -0.618472 2.880660 5.356497 0
M  V30 70 H -1.169085 -0.906156 1.668354 0
M  V30 END ATOM
M  V30 BEGIN BOND
M  V30 1 2 1 2
M  V30 2 1 2 3
M  V30 3 1 3 4
M  V30 4 1 4 5
M  V30 5 1 5 6
M  V30 6 1 6 7
M  V30 7 1 7 8
M  V30 8 1 8 9
M  V30 9 1 9 10
M  V30 10 2 10 11
M  V30 11 1 11 12
M  V30 12 2 12 13
M  V30 13 1 13 14
M  V30 14 2 14 15
M  V30 15 1 15 16
M  V30 16 1 8 17
M  V30 17 1 17 18
M  V30 18 1 2 19
M  V30 19 2 19 20
M  V30 20 1 20 21
M  V30 21 2 21 22
M  V30 22 1 22 23
M  V30 23 1 23 24
M  V30 24 1 24 25
M  V30 25 2 25 26
M  V30 26 1 25 27
M  V30 27 2 27 28
M  V30 28 1 28 29
M  V30 29 2 29 30
M  V30 30 1 30 31
M  V30 31 1 31 32
M  V30 32 1 32 33
M  V30 33 2 33 34
M  V30 34 1 33 35
M  V30 35 1 35 36
M  V30 36 1 36 37
M  V30 37 2 31 38
M  V30 38 2 23 39
M  V30 39 1 18 5
M  V30 40 1 39 19
M  V30 41 1 15 10
M  V30 42 1 38 27
M  V30 43 1 37 35
M  V30 44 1 3 40
M  V30 45 1 4 41
M  V30 46 1 4 42
M  V30 47 1 5 43
M  V30 48 1 6 44
M  V30 49 1 6 45
M  V30 50 1 7 46
M  V30 51 1 7 47
M  V30 52 1 9 48
M  V30 53 1 9 49
M  V30 54 1 11 50
M  V30 55 1 12 51
M  V30 56 1 13 52
M  V30 57 1 14 53
M  V30 58 1 17 54
M  V30 59 1 17 55
M  V30 60 1 18 56
M  V30 61 1 18 57
M  V30 62 1 20 58
M  V30 63 1 22 59
M  V30 64 1 24 60
M  V30 65 1 28 61
M  V30 66 1 29 62
M  V30 67 1 32 63
M  V30 68 1 35 64
M  V30 69 1 36 65
M  V30 70 1 36 66
M  V30 71 1 37 67
M  V30 72 1 37 68
M  V30 73 1 38 69
M  V30 74 1 39 70
M  V30 END BOND
M  V30 END CTAB
M  END
>  <Dataset>  (395) 
ChEMBL_Kinases

>  <Ligand_Instance>  (395) 
nan

>  <PDB_ID>  (395) 
nan

>  <Standardized_SMILES>  (395) 
O=C(NCC1CCN(Cc2ccccc2F)CC1)c1cncc(NC(=O)c2ccnc(NC(=O)C3CC3)c2)c1

>  <Name>  (395) 
nan

>  <Pocket>  (395) 
nan

>  <ATP_Site>  (395) 
nan

>  <Peripheral>  (395) 
nan

>  <Num_H_Atoms_ProtBoundConf>  (395) 
nan

>  <Num_Resolved_Atoms>  (395) 
nan

>  <Num_Not_Resolved_Atoms>  (395) 
nan

$$$$
CHEMBL4870755
     RDKit          3D

  0  0  0  0  0  0  0  0  0  0999 V3000
M  V30 BEGIN CTAB
M  V30 COUNTS 45 46 0 0 0
M  V30 BEGIN ATOM
M  V30 1 N 3.657439 -5.603892 2.939768 0
M  V30 2 C 3.566546 -4.469537 2.750829 0
M  V30 3 C 3.437289 -3.060620 2.534332 0
M  V30 4 C 4.559004 -2.267570 2.621489 0
M  V30 5 C 4.550339 -0.910151 2.432028 0
M  V30 6 C 3.370375 -0.239339 2.131863 0
M  V30 7 N 3.301455 1.157401 1.928937 0
M  V30 8 C 2.205813 1.984386 1.569979 0
M  V30 9 N 2.435278 3.295309 1.463817 0
M  V30 10 C 1.495807 4.187216 1.130990 0
M  V30 11 C 0.227265 3.716136 0.887421 0
M  V30 12 C -0.857292 4.651728 0.510850 0
M  V30 13 F -1.400233 4.371793 -0.733817 0
M  V30 14 F -0.334365 5.930399 0.472682 0
M  V30 15 F -1.875472 4.658061 1.444324 0
M  V30 16 C -0.066192 2.353774 0.985150 0
M  V30 17 N -1.370562 1.866441 0.744408 0
M  V30 18 C -1.816948 0.508344 0.802146 0
M  V30 19 C -1.165997 -0.417635 -0.183029 0
M  V30 20 C -1.704241 -1.839819 -0.047597 0
M  V30 21 N -1.083217 -2.719693 -0.985400 0
M  V30 22 C -1.578077 -4.049865 -0.849401 0
M  V30 23 C -3.006628 -4.149449 -1.276818 0
M  V30 24 O -3.478161 -5.476873 -1.137756 0
M  V30 25 N 0.967066 1.567126 1.326980 0
M  V30 26 C 2.276275 -1.067035 2.054780 0
M  V30 27 N 2.300477 -2.410086 2.244923 0
M  V30 28 H 5.526537 -2.705299 2.852033 0
M  V30 29 H 5.475043 -0.330459 2.513174 0
M  V30 30 H 4.245658 1.620904 2.080613 0
M  V30 31 H 1.760341 5.232006 1.064305 0
M  V30 32 H -2.108954 2.583138 0.492901 0
M  V30 33 H -2.904032 0.422943 0.707582 0
M  V30 34 H -1.577374 0.092278 1.816534 0
M  V30 35 H -0.068670 -0.480057 -0.109386 0
M  V30 36 H -1.387207 -0.081217 -1.233946 0
M  V30 37 H -1.569933 -2.156596 1.006036 0
M  V30 38 H -2.777209 -1.773659 -0.249153 0
M  V30 39 H -0.039103 -2.703308 -0.937387 0
M  V30 40 H -0.987635 -4.750864 -1.481657 0
M  V30 41 H -1.479133 -4.396153 0.216081 0
M  V30 42 H -3.116138 -3.827694 -2.327380 0
M  V30 43 H -3.695537 -3.519400 -0.676429 0
M  V30 44 H -4.371200 -5.467157 -1.610427 0
M  V30 45 H 1.290335 -0.698958 1.832773 0
M  V30 END ATOM
M  V30 BEGIN BOND
M  V30 1 3 1 2
M  V30 2 1 2 3
M  V30 3 2 3 4
M  V30 4 1 4 5
M  V30 5 2 5 6
M  V30 6 1 6 7
M  V30 7 1 7 8
M  V30 8 2 8 9
M  V30 9 1 9 10
M  V30 10 2 10 11
M  V30 11 1 11 12
M  V30 12 1 12 13
M  V30 13 1 12 14
M  V30 14 1 12 15
M  V30 15 1 11 16
M  V30 16 1 16 17
M  V30 17 1 17 18
M  V30 18 1 18 19
M  V30 19 1 19 20
M  V30 20 1 20 21
M  V30 21 1 21 22
M  V30 22 1 22 23
M  V30 23 1 23 24
M  V30 24 2 16 25
M  V30 25 1 6 26
M  V30 26 2 26 27
M  V30 27 1 27 3
M  V30 28 1 25 8
M  V30 29 1 4 28
M  V30 30 1 5 29
M  V30 31 1 7 30
M  V30 32 1 10 31
M  V30 33 1 17 32
M  V30 34 1 18 33
M  V30 35 1 18 34
M  V30 36 1 19 35
M  V30 37 1 19 36
M  V30 38 1 20 37
M  V30 39 1 20 38
M  V30 40 1 21 39
M  V30 41 1 22 40
M  V30 42 1 22 41
M  V30 43 1 23 42
M  V30 44 1 23 43
M  V30 45 1 24 44
M  V30 46 1 26 45
M  V30 END BOND
M  V30 END CTAB
M  END
>  <Dataset>  (396) 
ChEMBL_Kinases

>  <Ligand_Instance>  (396) 
nan

>  <PDB_ID>  (396) 
nan

>  <Standardized_SMILES>  (396) 
N#Cc1ccc(Nc2ncc(C(F)(F)F)c(NCCCNCCO)n2)cn1

>  <Name>  (396) 
nan

>  <Pocket>  (396) 
nan

>  <ATP_Site>  (396) 
nan

>  <Peripheral>  (396) 
nan

>  <Num_H_Atoms_ProtBoundConf>  (396) 
nan

>  <Num_Resolved_Atoms>  (396) 
nan

>  <Num_Not_Resolved_Atoms>  (396) 
nan

$$$$
CHEMBL4870763
     RDKit          3D

  0  0  0  0  0  0  0  0  0  0999 V3000
M  V30 BEGIN CTAB
M  V30 COUNTS 52 55 0 0 0
M  V30 BEGIN ATOM
M  V30 1 C 6.210418 -1.876042 6.003480 0
M  V30 2 N 6.196275 -2.117871 4.558393 0
M  V30 3 C 5.522923 -1.060920 3.860118 0
M  V30 4 O 5.080914 -0.146786 4.595975 0
M  V30 5 C 5.375373 -1.068511 2.410260 0
M  V30 6 C 4.711228 -0.003865 1.840579 0
M  V30 7 C 4.539313 0.045655 0.467114 0
M  V30 8 O 3.872993 1.114354 -0.101774 0
M  V30 9 C 2.515390 1.170782 -0.324257 0
M  V30 10 C 1.641984 1.676032 0.634674 0
M  V30 11 C 0.277552 1.742609 0.434281 0
M  V30 12 C -0.253576 1.289057 -0.770577 0
M  V30 13 N -1.668102 1.324200 -1.058239 0
M  V30 14 C -2.490965 0.179095 -0.703744 0
M  V30 15 O -1.401545 -0.273538 -0.291661 0
M  V30 16 C -3.918055 0.208899 -0.991414 0
M  V30 17 N -4.470591 1.241380 -1.566292 0
M  V30 18 C -5.600299 1.406954 -1.861418 0
M  V30 19 C -6.381522 2.496066 -2.511163 0
M  V30 20 F -7.237246 1.903965 -3.446167 0
M  V30 21 F -5.445263 3.229308 -3.204024 0
M  V30 22 F -7.112150 3.228796 -1.608273 0
M  V30 23 S -6.242353 -0.217841 -1.251106 0
M  V30 24 C -4.696192 -0.810763 -0.681414 0
M  V30 25 C -4.621609 -2.141823 -0.064806 0
M  V30 26 C -5.824434 -2.858142 0.016637 0
M  V30 27 C -5.856860 -4.127330 0.584703 0
M  V30 28 C -4.728370 -4.728187 1.084607 0
M  V30 29 F -4.797066 -5.962183 1.629418 0
M  V30 30 C -3.531983 -4.051603 1.019879 0
M  V30 31 C -3.557198 -2.804509 0.450186 0
M  V30 32 C 0.575488 0.776739 -1.757721 0
M  V30 33 C 1.932245 0.736445 -1.497525 0
M  V30 34 C 5.030251 -0.963010 -0.313539 0
M  V30 35 C 5.697026 -2.025516 0.292988 0
M  V30 36 N 5.847028 -2.046358 1.612347 0
M  V30 37 H 5.172048 -1.663552 6.318537 0
M  V30 38 H 6.550320 -2.761035 6.577702 0
M  V30 39 H 6.900563 -1.050433 6.263249 0
M  V30 40 H 6.600675 -2.927798 4.028984 0
M  V30 41 H 4.321433 0.794959 2.450368 0
M  V30 42 H 2.009602 2.043099 1.593354 0
M  V30 43 H -0.412605 2.129218 1.162368 0
M  V30 44 H -2.055605 2.226956 -1.536914 0
M  V30 45 H -6.802491 -2.546271 -0.322056 0
M  V30 46 H -6.772280 -4.690660 0.654878 0
M  V30 47 H -2.622858 -4.490546 1.402239 0
M  V30 48 H -2.624211 -2.324755 0.422203 0
M  V30 49 H 0.192282 0.414835 -2.708395 0
M  V30 50 H 2.645823 0.345303 -2.230009 0
M  V30 51 H 4.938544 -0.997677 -1.377240 0
M  V30 52 H 6.132080 -2.883726 -0.206105 0
M  V30 END ATOM
M  V30 BEGIN BOND
M  V30 1 1 1 2
M  V30 2 1 2 3
M  V30 3 2 3 4
M  V30 4 1 3 5
M  V30 5 2 5 6
M  V30 6 1 6 7
M  V30 7 1 7 8
M  V30 8 1 8 9
M  V30 9 2 9 10
M  V30 10 1 10 11
M  V30 11 2 11 12
M  V30 12 1 12 13
M  V30 13 1 13 14
M  V30 14 2 14 15
M  V30 15 1 14 16
M  V30 16 1 16 17
M  V30 17 2 17 18
M  V30 18 1 18 19
M  V30 19 1 19 20
M  V30 20 1 19 21
M  V30 21 1 19 22
M  V30 22 1 18 23
M  V30 23 1 23 24
M  V30 24 1 24 25
M  V30 25 2 25 26
M  V30 26 1 26 27
M  V30 27 2 27 28
M  V30 28 1 28 29
M  V30 29 1 28 30
M  V30 30 2 30 31
M  V30 31 1 12 32
M  V30 32 2 32 33
M  V30 33 2 7 34
M  V30 34 1 34 35
M  V30 35 2 35 36
M  V30 36 1 36 5
M  V30 37 1 33 9
M  V30 38 2 24 16
M  V30 39 1 31 25
M  V30 40 1 1 37
M  V30 41 1 1 38
M  V30 42 1 1 39
M  V30 43 1 2 40
M  V30 44 1 6 41
M  V30 45 1 10 42
M  V30 46 1 11 43
M  V30 47 1 13 44
M  V30 48 1 26 45
M  V30 49 1 27 46
M  V30 50 1 30 47
M  V30 51 1 31 48
M  V30 52 1 32 49
M  V30 53 1 33 50
M  V30 54 1 34 51
M  V30 55 1 35 52
M  V30 END BOND
M  V30 END CTAB
M  END
>  <Dataset>  (397) 
ChEMBL_Kinases

>  <Ligand_Instance>  (397) 
nan

>  <PDB_ID>  (397) 
nan

>  <Standardized_SMILES>  (397) 
CNC(=O)c1cc(Oc2ccc(NC(=O)c3nc(C(F)(F)F)sc3-c3ccc(F)cc3)cc2)ccn1

>  <Name>  (397) 
nan

>  <Pocket>  (397) 
nan

>  <ATP_Site>  (397) 
nan

>  <Peripheral>  (397) 
nan

>  <Num_H_Atoms_ProtBoundConf>  (397) 
nan

>  <Num_Resolved_Atoms>  (397) 
nan

>  <Num_Not_Resolved_Atoms>  (397) 
nan

$$$$
CHEMBL3702061
     RDKit          3D

  0  0  0  0  0  0  0  0  0  0999 V3000
M  V30 BEGIN CTAB
M  V30 COUNTS 65 70 0 0 0
M  V30 BEGIN ATOM
M  V30 1 C 3.093832 6.078302 5.113823 0
M  V30 2 N 3.177035 4.796374 4.485556 0
M  V30 3 C 3.416688 3.726485 5.415327 0
M  V30 4 C 2.110521 4.514884 3.563879 0
M  V30 5 C 0.753669 4.550677 4.236552 0
M  V30 6 C -0.311875 4.294766 3.194864 0
M  V30 7 N 0.221387 3.899621 1.932101 0
M  V30 8 C -0.003324 2.688077 1.230118 0
M  V30 9 C -0.809274 1.673087 1.695436 0
M  V30 10 C -0.938498 0.548303 0.908616 0
M  V30 11 C -0.326636 0.352730 -0.309698 0
M  V30 12 N -0.436977 -0.786837 -1.142086 0
M  V30 13 C -1.195449 -1.958402 -0.898301 0
M  V30 14 N -1.957263 -2.211604 0.173462 0
M  V30 15 C -2.670903 -3.322946 0.394407 0
M  V30 16 C -2.618963 -4.301788 -0.570985 0
M  V30 17 C -3.178260 -5.549697 -0.740285 0
M  V30 18 C -4.029133 -6.195272 0.126220 0
M  V30 19 C -4.492077 -7.448460 -0.216735 0
M  V30 20 N -4.070609 -7.962242 -1.398747 0
M  V30 21 C -3.248252 -7.306142 -2.207244 0
M  V30 22 Cl -2.805595 -8.107888 -3.699573 0
M  V30 23 C -2.734085 -6.051704 -1.949943 0
M  V30 24 N -1.924491 -5.171373 -2.537678 0
M  V30 25 C -1.293752 -5.401613 -3.819905 0
M  V30 26 C -0.721926 -4.184099 -4.459537 0
M  V30 27 C 0.685481 -4.089720 -3.992687 0
M  V30 28 C 0.919874 -5.262504 -3.059338 0
M  V30 29 C -0.084017 -6.268591 -3.583729 0
M  V30 30 C -1.851400 -4.097212 -1.695947 0
M  V30 31 N -1.179709 -2.945724 -1.809490 0
M  V30 32 N 0.437761 1.397091 -0.677854 0
M  V30 33 N 0.590494 2.491985 0.042149 0
M  V30 34 C 1.085334 4.919208 1.373592 0
M  V30 35 C 2.073563 5.435533 2.391038 0
M  V30 36 H 4.101658 6.410688 5.459562 0
M  V30 37 H 2.497874 5.928848 6.061709 0
M  V30 38 H 2.560211 6.835633 4.542913 0
M  V30 39 H 2.719836 3.826800 6.292351 0
M  V30 40 H 3.207074 2.742924 4.930754 0
M  V30 41 H 4.449834 3.685282 5.795968 0
M  V30 42 H 2.252760 3.480537 3.194197 0
M  V30 43 H 0.619005 5.568539 4.634975 0
M  V30 44 H 0.704574 3.833117 5.079951 0
M  V30 45 H -0.899005 5.238804 3.001536 0
M  V30 46 H -0.999653 3.539283 3.579210 0
M  V30 47 H -1.312395 1.767471 2.637787 0
M  V30 48 H -1.574718 -0.221456 1.303938 0
M  V30 49 H 0.107400 -0.747306 -2.034710 0
M  V30 50 H -3.266912 -3.463116 1.284820 0
M  V30 51 H -4.349818 -5.764580 1.061266 0
M  V30 52 H -5.159242 -8.040782 0.384928 0
M  V30 53 H -2.002812 -5.868773 -4.545197 0
M  V30 54 H -0.687818 -4.369913 -5.572426 0
M  V30 55 H -1.317716 -3.265225 -4.285828 0
M  V30 56 H 1.425318 -4.250691 -4.835332 0
M  V30 57 H 0.964420 -3.116495 -3.571117 0
M  V30 58 H 0.646819 -5.045192 -2.008307 0
M  V30 59 H 1.959104 -5.644256 -3.118450 0
M  V30 60 H 0.304463 -6.722280 -4.516917 0
M  V30 61 H -0.204057 -7.009646 -2.768875 0
M  V30 62 H 0.385521 5.725455 1.008540 0
M  V30 63 H 1.651321 4.572462 0.496497 0
M  V30 64 H 3.099178 5.555360 1.945017 0
M  V30 65 H 1.753543 6.467399 2.658651 0
M  V30 END ATOM
M  V30 BEGIN BOND
M  V30 1 1 1 2
M  V30 2 1 2 3
M  V30 3 1 2 4
M  V30 4 1 4 5
M  V30 5 1 5 6
M  V30 6 1 6 7
M  V30 7 1 7 8
M  V30 8 2 8 9
M  V30 9 1 9 10
M  V30 10 2 10 11
M  V30 11 1 11 12
M  V30 12 1 12 13
M  V30 13 2 13 14
M  V30 14 1 14 15
M  V30 15 2 15 16
M  V30 16 1 16 17
M  V30 17 2 17 18
M  V30 18 1 18 19
M  V30 19 2 19 20
M  V30 20 1 20 21
M  V30 21 1 21 22
M  V30 22 2 21 23
M  V30 23 1 23 24
M  V30 24 1 24 25
M  V30 25 1 25 26
M  V30 26 1 26 27
M  V30 27 1 27 28
M  V30 28 1 28 29
M  V30 29 1 24 30
M  V30 30 2 30 31
M  V30 31 1 11 32
M  V30 32 2 32 33
M  V30 33 1 7 34
M  V30 34 1 34 35
M  V30 35 1 35 4
M  V30 36 1 33 8
M  V30 37 1 31 13
M  V30 38 1 30 16
M  V30 39 1 23 17
M  V30 40 1 29 25
M  V30 41 1 1 36
M  V30 42 1 1 37
M  V30 43 1 1 38
M  V30 44 1 3 39
M  V30 45 1 3 40
M  V30 46 1 3 41
M  V30 47 1 4 42
M  V30 48 1 5 43
M  V30 49 1 5 44
M  V30 50 1 6 45
M  V30 51 1 6 46
M  V30 52 1 9 47
M  V30 53 1 10 48
M  V30 54 1 12 49
M  V30 55 1 15 50
M  V30 56 1 18 51
M  V30 57 1 19 52
M  V30 58 1 25 53
M  V30 59 1 26 54
M  V30 60 1 26 55
M  V30 61 1 27 56
M  V30 62 1 27 57
M  V30 63 1 28 58
M  V30 64 1 28 59
M  V30 65 1 29 60
M  V30 66 1 29 61
M  V30 67 1 34 62
M  V30 68 1 34 63
M  V30 69 1 35 64
M  V30 70 1 35 65
M  V30 END BOND
M  V30 END CTAB
M  END
>  <Dataset>  (398) 
ChEMBL_Kinases

>  <Ligand_Instance>  (398) 
nan

>  <PDB_ID>  (398) 
nan

>  <Standardized_SMILES>  (398) 
CN(C)C1CCN(c2ccc(Nc3ncc4c5ccnc(Cl)c5n(C5CCCC5)c4n3)nn2)CC1

>  <Name>  (398) 
nan

>  <Pocket>  (398) 
nan

>  <ATP_Site>  (398) 
nan

>  <Peripheral>  (398) 
nan

>  <Num_H_Atoms_ProtBoundConf>  (398) 
nan

>  <Num_Resolved_Atoms>  (398) 
nan

>  <Num_Not_Resolved_Atoms>  (398) 
nan

$$$$
CHEMBL4870768
     RDKit          3D

  0  0  0  0  0  0  0  0  0  0999 V3000
M  V30 BEGIN CTAB
M  V30 COUNTS 51 54 0 0 0
M  V30 BEGIN ATOM
M  V30 1 C 7.005233 -2.702940 3.744869 0
M  V30 2 N 5.954331 -1.961292 4.431049 0
M  V30 3 C 4.750648 -1.861822 3.694716 0
M  V30 4 C 4.435304 -0.852098 2.803138 0
M  V30 5 C 3.225843 -0.804368 2.100961 0
M  V30 6 O 3.210145 0.319780 1.293567 0
M  V30 7 C 2.173707 0.675195 0.446897 0
M  V30 8 C 1.603561 1.882297 0.785983 0
M  V30 9 C 0.545131 2.328459 -0.009990 0
M  V30 10 C 0.198101 1.495263 -1.049670 0
M  V30 11 N -0.874572 1.935720 -1.919405 0
M  V30 12 C -1.926766 1.292828 -1.094554 0
M  V30 13 O -1.589646 0.649050 -0.028849 0
M  V30 14 N -3.363034 1.142748 -1.108346 0
M  V30 15 C -4.303325 0.499644 -0.255775 0
M  V30 16 C -4.779658 1.327344 0.730565 0
M  V30 17 C -5.695535 0.829451 1.634897 0
M  V30 18 C -6.075470 -0.485691 1.483741 0
M  V30 19 C -5.578117 -1.290410 0.481989 0
M  V30 20 C -6.008119 -2.703702 0.350300 0
M  V30 21 F -7.327477 -2.863552 0.719285 0
M  V30 22 F -5.237089 -3.546092 1.128374 0
M  V30 23 F -5.920475 -3.162188 -0.957779 0
M  V30 24 C -4.662753 -0.819149 -0.434717 0
M  V30 25 C 0.772020 0.285762 -1.386610 0
M  V30 26 C 0.327688 -0.447290 -2.462301 0
M  V30 27 C 0.925960 -1.639226 -2.771510 0
M  V30 28 C 1.981736 -2.060653 -1.960577 0
M  V30 29 C 2.442789 -1.335970 -0.872991 0
M  V30 30 C 1.815643 -0.145221 -0.595319 0
M  V30 31 N 2.356912 -1.805733 2.331917 0
M  V30 32 C 2.658219 -2.787743 3.196194 0
M  V30 33 N 3.829966 -2.850750 3.888661 0
M  V30 34 H 7.155385 -2.229355 2.741666 0
M  V30 35 H 7.974604 -2.644844 4.288201 0
M  V30 36 H 6.651200 -3.761805 3.642865 0
M  V30 37 H 5.708680 -1.435836 5.306852 0
M  V30 38 H 5.263568 -0.132911 2.750303 0
M  V30 39 H 1.905260 2.503814 1.607864 0
M  V30 40 H 0.014723 3.253955 0.149125 0
M  V30 41 H -1.652422 2.242811 -2.531052 0
M  V30 42 H -3.766877 1.639632 -1.964820 0
M  V30 43 H -4.493263 2.357555 0.864084 0
M  V30 44 H -6.110775 1.424295 2.434313 0
M  V30 45 H -6.793356 -0.904036 2.180462 0
M  V30 46 H -4.238197 -1.400011 -1.239872 0
M  V30 47 H -0.490145 -0.111290 -3.084320 0
M  V30 48 H 0.655850 -2.296796 -3.596260 0
M  V30 49 H 2.479348 -2.992991 -2.172137 0
M  V30 50 H 3.261612 -1.661590 -0.257674 0
M  V30 51 H 1.851604 -3.514955 3.266346 0
M  V30 END ATOM
M  V30 BEGIN BOND
M  V30 1 1 1 2
M  V30 2 1 2 3
M  V30 3 2 3 4
M  V30 4 1 4 5
M  V30 5 1 5 6
M  V30 6 1 6 7
M  V30 7 2 7 8
M  V30 8 1 8 9
M  V30 9 2 9 10
M  V30 10 1 10 11
M  V30 11 1 11 12
M  V30 12 2 12 13
M  V30 13 1 12 14
M  V30 14 1 14 15
M  V30 15 2 15 16
M  V30 16 1 16 17
M  V30 17 2 17 18
M  V30 18 1 18 19
M  V30 19 1 19 20
M  V30 20 1 20 21
M  V30 21 1 20 22
M  V30 22 1 20 23
M  V30 23 2 19 24
M  V30 24 1 10 25
M  V30 25 2 25 26
M  V30 26 1 26 27
M  V30 27 2 27 28
M  V30 28 1 28 29
M  V30 29 2 29 30
M  V30 30 2 5 31
M  V30 31 1 31 32
M  V30 32 2 32 33
M  V30 33 1 33 3
M  V30 34 1 30 7
M  V30 35 1 24 15
M  V30 36 1 30 25
M  V30 37 1 1 34
M  V30 38 1 1 35
M  V30 39 1 1 36
M  V30 40 1 2 37
M  V30 41 1 4 38
M  V30 42 1 8 39
M  V30 43 1 9 40
M  V30 44 1 11 41
M  V30 45 1 14 42
M  V30 46 1 16 43
M  V30 47 1 17 44
M  V30 48 1 18 45
M  V30 49 1 24 46
M  V30 50 1 26 47
M  V30 51 1 27 48
M  V30 52 1 28 49
M  V30 53 1 29 50
M  V30 54 1 32 51
M  V30 END BOND
M  V30 END CTAB
M  END
>  <Dataset>  (399) 
ChEMBL_Kinases

>  <Ligand_Instance>  (399) 
nan

>  <PDB_ID>  (399) 
nan

>  <Standardized_SMILES>  (399) 
CNc1cc(Oc2ccc(NC(=O)Nc3cccc(C(F)(F)F)c3)c3ccccc23)ncn1

>  <Name>  (399) 
nan

>  <Pocket>  (399) 
nan

>  <ATP_Site>  (399) 
nan

>  <Peripheral>  (399) 
nan

>  <Num_H_Atoms_ProtBoundConf>  (399) 
nan

>  <Num_Resolved_Atoms>  (399) 
nan

>  <Num_Not_Resolved_Atoms>  (399) 
nan

$$$$
CHEMBL3702062
     RDKit          3D

  0  0  0  0  0  0  0  0  0  0999 V3000
M  V30 BEGIN CTAB
M  V30 COUNTS 60 65 0 0 0
M  V30 BEGIN ATOM
M  V30 1 C 0.696958 -1.833698 -1.761363 0
M  V30 2 C 0.763905 -2.754910 -0.613102 0
M  V30 3 N 1.193016 -2.225454 0.566622 0
M  V30 4 C 1.305855 -2.959201 1.688411 0
M  V30 5 N 1.750419 -2.362553 2.925677 0
M  V30 6 C 2.050864 -0.980280 2.791467 0
M  V30 7 N 3.215951 -0.336505 2.775137 0
M  V30 8 C 3.287617 0.998796 2.614655 0
M  V30 9 C 2.126572 1.724903 2.462310 0
M  V30 10 C 1.830191 3.057791 2.278139 0
M  V30 11 C 2.659774 4.152783 2.187586 0
M  V30 12 C 2.133217 5.422120 1.998721 0
M  V30 13 N 0.779963 5.505030 1.911614 0
M  V30 14 C -0.000975 4.414874 2.004508 0
M  V30 15 Cl -1.711694 4.735676 1.864063 0
M  V30 16 C 0.456248 3.129466 2.192066 0
M  V30 17 N -0.159646 1.932369 2.307962 0
M  V30 18 C -1.543702 1.617645 2.262045 0
M  V30 19 C -2.264736 1.657649 0.958657 0
M  V30 20 C -3.720700 1.731606 1.333610 0
M  V30 21 C -3.794127 2.140909 2.787215 0
M  V30 22 C -2.422842 2.005614 3.388585 0
M  V30 23 C 0.928362 1.100773 2.473923 0
M  V30 24 N 0.951803 -0.243922 2.641239 0
M  V30 25 C 0.966014 -4.314534 1.619198 0
M  V30 26 C 0.531917 -4.845343 0.419913 0
M  V30 27 C 0.415536 -4.091253 -0.729843 0
M  V30 28 N -0.047378 -4.637297 -1.965960 0
M  V30 29 C -1.290767 -4.145425 -2.523024 0
M  V30 30 C -1.252172 -4.007909 -4.008180 0
M  V30 31 N -0.546915 -5.125620 -4.574528 0
M  V30 32 C 0.812113 -5.227522 -4.086780 0
M  V30 33 C 0.732739 -5.655748 -2.627607 0
M  V30 34 H -0.206177 -1.199086 -1.738552 0
M  V30 35 H 1.574785 -1.124271 -1.669868 0
M  V30 36 H 0.849211 -2.321362 -2.732604 0
M  V30 37 H 1.800762 -2.985798 3.753459 0
M  V30 38 H 4.246306 1.492348 2.603306 0
M  V30 39 H 3.727451 4.032971 2.262822 0
M  V30 40 H 2.787825 6.254841 1.931443 0
M  V30 41 H -1.518207 0.478632 2.413989 0
M  V30 42 H -2.211312 0.685430 0.364618 0
M  V30 43 H -1.920778 2.355747 0.201028 0
M  V30 44 H -4.288789 2.462493 0.707340 0
M  V30 45 H -4.267396 0.766040 1.247158 0
M  V30 46 H -4.586351 1.553735 3.328341 0
M  V30 47 H -4.109241 3.204914 2.868650 0
M  V30 48 H -2.564682 1.191346 4.178544 0
M  V30 49 H -2.098853 2.831078 4.035663 0
M  V30 50 H 1.041303 -4.939397 2.492667 0
M  V30 51 H 0.274481 -5.901941 0.392238 0
M  V30 52 H -2.093814 -4.853174 -2.177486 0
M  V30 53 H -1.548006 -3.171408 -2.048956 0
M  V30 54 H -0.829165 -3.038367 -4.276114 0
M  V30 55 H -2.302673 -4.092821 -4.370484 0
M  V30 56 H -1.084252 -5.997312 -4.347261 0
M  V30 57 H 1.340772 -5.925882 -4.731786 0
M  V30 58 H 1.277620 -4.226740 -4.210982 0
M  V30 59 H 0.142089 -6.602108 -2.614774 0
M  V30 60 H 1.690388 -5.855702 -2.160467 0
M  V30 END ATOM
M  V30 BEGIN BOND
M  V30 1 1 1 2
M  V30 2 2 2 3
M  V30 3 1 3 4
M  V30 4 1 4 5
M  V30 5 1 5 6
M  V30 6 2 6 7
M  V30 7 1 7 8
M  V30 8 2 8 9
M  V30 9 1 9 10
M  V30 10 2 10 11
M  V30 11 1 11 12
M  V30 12 2 12 13
M  V30 13 1 13 14
M  V30 14 1 14 15
M  V30 15 2 14 16
M  V30 16 1 16 17
M  V30 17 1 17 18
M  V30 18 1 18 19
M  V30 19 1 19 20
M  V30 20 1 20 21
M  V30 21 1 21 22
M  V30 22 1 17 23
M  V30 23 2 23 24
M  V30 24 2 4 25
M  V30 25 1 25 26
M  V30 26 2 26 27
M  V30 27 1 27 28
M  V30 28 1 28 29
M  V30 29 1 29 30
M  V30 30 1 30 31
M  V30 31 1 31 32
M  V30 32 1 32 33
M  V30 33 1 27 2
M  V30 34 1 33 28
M  V30 35 1 24 6
M  V30 36 1 23 9
M  V30 37 1 16 10
M  V30 38 1 22 18
M  V30 39 1 1 34
M  V30 40 1 1 35
M  V30 41 1 1 36
M  V30 42 1 5 37
M  V30 43 1 8 38
M  V30 44 1 11 39
M  V30 45 1 12 40
M  V30 46 1 18 41
M  V30 47 1 19 42
M  V30 48 1 19 43
M  V30 49 1 20 44
M  V30 50 1 20 45
M  V30 51 1 21 46
M  V30 52 1 21 47
M  V30 53 1 22 48
M  V30 54 1 22 49
M  V30 55 1 25 50
M  V30 56 1 26 51
M  V30 57 1 29 52
M  V30 58 1 29 53
M  V30 59 1 30 54
M  V30 60 1 30 55
M  V30 61 1 31 56
M  V30 62 1 32 57
M  V30 63 1 32 58
M  V30 64 1 33 59
M  V30 65 1 33 60
M  V30 END BOND
M  V30 END CTAB
M  END
>  <Dataset>  (400) 
ChEMBL_Kinases

>  <Ligand_Instance>  (400) 
nan

>  <PDB_ID>  (400) 
nan

>  <Standardized_SMILES>  (400) 
Cc1nc(Nc2ncc3c4ccnc(Cl)c4n(C4CCCC4)c3n2)ccc1N1CCNCC1

>  <Name>  (400) 
nan

>  <Pocket>  (400) 
nan

>  <ATP_Site>  (400) 
nan

>  <Peripheral>  (400) 
nan

>  <Num_H_Atoms_ProtBoundConf>  (400) 
nan

>  <Num_Resolved_Atoms>  (400) 
nan

>  <Num_Not_Resolved_Atoms>  (400) 
nan

$$$$
CHEMBL3702066
     RDKit          3D

  0  0  0  0  0  0  0  0  0  0999 V3000
M  V30 BEGIN CTAB
M  V30 COUNTS 53 57 0 0 0
M  V30 BEGIN ATOM
M  V30 1 C 2.451944 -1.602020 0.000494 0
M  V30 2 C 3.359540 -1.620285 1.215264 0
M  V30 3 C 2.816184 -2.584790 2.175015 0
M  V30 4 N 3.519061 -0.267000 1.642323 0
M  V30 5 C 4.713638 0.241802 2.040272 0
M  V30 6 C 5.976635 -0.325350 2.140324 0
M  V30 7 N 6.980056 0.461660 2.579561 0
M  V30 8 C 6.842908 1.744125 2.923469 0
M  V30 9 C 5.591202 2.364635 2.841320 0
M  V30 10 C 4.562853 1.562786 2.392580 0
M  V30 11 C 3.213053 1.824677 2.186116 0
M  V30 12 C 2.436811 2.950515 2.350697 0
M  V30 13 N 1.130321 2.912788 2.066332 0
M  V30 14 C 0.490612 1.822187 1.615648 0
M  V30 15 N -0.897721 1.895539 1.344953 0
M  V30 16 C -1.744835 0.866503 0.875659 0
M  V30 17 C -1.373547 -0.413355 0.594266 0
M  V30 18 C -2.199617 -1.406161 0.138597 0
M  V30 19 C -3.532637 -1.125397 -0.066458 0
M  V30 20 N -4.518707 -2.043629 -0.536029 0
M  V30 21 C -5.932460 -1.779458 -0.762889 0
M  V30 22 C -6.144806 -1.815826 -2.263390 0
M  V30 23 N -5.149269 -2.516812 -2.965537 0
M  V30 24 C -4.535845 -3.613835 -2.338483 0
M  V30 25 C -4.230022 -3.425780 -0.867502 0
M  V30 26 C -3.907258 0.167981 0.217869 0
M  V30 27 N -3.045507 1.095464 0.662813 0
M  V30 28 N 1.277219 0.764881 1.473013 0
M  V30 29 C 2.589936 0.702487 1.729537 0
M  V30 30 H 1.510219 -2.142975 0.217398 0
M  V30 31 H 2.142217 -0.576548 -0.286837 0
M  V30 32 H 2.902354 -2.137545 -0.879430 0
M  V30 33 H 4.335348 -2.061021 0.845299 0
M  V30 34 H 1.907125 -2.299005 2.714510 0
M  V30 35 H 3.594070 -3.064175 2.840763 0
M  V30 36 H 2.479790 -3.478639 1.577672 0
M  V30 37 H 6.115868 -1.361539 1.868563 0
M  V30 38 H 7.672869 2.343263 3.271719 0
M  V30 39 H 5.452642 3.389847 3.110215 0
M  V30 40 H 2.863102 3.871560 2.707242 0
M  V30 41 H -1.366134 2.834646 1.512758 0
M  V30 42 H -0.347915 -0.718445 0.727137 0
M  V30 43 H -1.855382 -2.398993 -0.068398 0
M  V30 44 H -6.549866 -2.613726 -0.316232 0
M  V30 45 H -6.273654 -0.833776 -0.319091 0
M  V30 46 H -7.163988 -2.180332 -2.496803 0
M  V30 47 H -6.124258 -0.742172 -2.597259 0
M  V30 48 H -4.661235 -2.052009 -3.728292 0
M  V30 49 H -3.560319 -3.828925 -2.820611 0
M  V30 50 H -5.135832 -4.553984 -2.467421 0
M  V30 51 H -3.230851 -3.755820 -0.592604 0
M  V30 52 H -4.950984 -4.062090 -0.275255 0
M  V30 53 H -4.908860 0.570090 0.116723 0
M  V30 END ATOM
M  V30 BEGIN BOND
M  V30 1 1 1 2
M  V30 2 1 2 3
M  V30 3 1 2 4
M  V30 4 1 4 5
M  V30 5 2 5 6
M  V30 6 1 6 7
M  V30 7 2 7 8
M  V30 8 1 8 9
M  V30 9 2 9 10
M  V30 10 1 10 11
M  V30 11 2 11 12
M  V30 12 1 12 13
M  V30 13 2 13 14
M  V30 14 1 14 15
M  V30 15 1 15 16
M  V30 16 2 16 17
M  V30 17 1 17 18
M  V30 18 2 18 19
M  V30 19 1 19 20
M  V30 20 1 20 21
M  V30 21 1 21 22
M  V30 22 1 22 23
M  V30 23 1 23 24
M  V30 24 1 24 25
M  V30 25 1 19 26
M  V30 26 2 26 27
M  V30 27 1 14 28
M  V30 28 2 28 29
M  V30 29 1 29 4
M  V30 30 1 10 5
M  V30 31 1 29 11
M  V30 32 1 27 16
M  V30 33 1 25 20
M  V30 34 1 1 30
M  V30 35 1 1 31
M  V30 36 1 1 32
M  V30 37 1 2 33
M  V30 38 1 3 34
M  V30 39 1 3 35
M  V30 40 1 3 36
M  V30 41 1 6 37
M  V30 42 1 8 38
M  V30 43 1 9 39
M  V30 44 1 12 40
M  V30 45 1 15 41
M  V30 46 1 17 42
M  V30 47 1 18 43
M  V30 48 1 21 44
M  V30 49 1 21 45
M  V30 50 1 22 46
M  V30 51 1 22 47
M  V30 52 1 23 48
M  V30 53 1 24 49
M  V30 54 1 24 50
M  V30 55 1 25 51
M  V30 56 1 25 52
M  V30 57 1 26 53
M  V30 END BOND
M  V30 END CTAB
M  END
>  <Dataset>  (401) 
ChEMBL_Kinases

>  <Ligand_Instance>  (401) 
nan

>  <PDB_ID>  (401) 
nan

>  <Standardized_SMILES>  (401) 
CC(C)n1c2cnccc2c2cnc(Nc3ccc(N4CCNCC4)cn3)nc21

>  <Name>  (401) 
nan

>  <Pocket>  (401) 
nan

>  <ATP_Site>  (401) 
nan

>  <Peripheral>  (401) 
nan

>  <Num_H_Atoms_ProtBoundConf>  (401) 
nan

>  <Num_Resolved_Atoms>  (401) 
nan

>  <Num_Not_Resolved_Atoms>  (401) 
nan

$$$$
CHEMBL4870807
     RDKit          3D

  0  0  0  0  0  0  0  0  0  0999 V3000
M  V30 BEGIN CTAB
M  V30 COUNTS 53 55 0 0 0
M  V30 BEGIN ATOM
M  V30 1 C 0.420663 -3.073835 3.505246 0
M  V30 2 C 1.642163 -3.349401 2.685584 0
M  V30 3 C 1.688460 -4.827578 2.407041 0
M  V30 4 C 1.649595 -2.563458 1.414700 0
M  V30 5 C 1.618157 -1.070912 1.692392 0
M  V30 6 N 1.639260 -0.383681 0.442684 0
M  V30 7 C 2.897923 -0.048170 -0.110841 0
M  V30 8 O 3.971070 -0.356820 0.513072 0
M  V30 9 O 3.159874 0.596174 -1.284762 0
M  V30 10 C 2.109407 1.145805 -2.054517 0
M  V30 11 C 2.293383 2.631229 -2.212628 0
M  V30 12 C 2.298185 3.422608 -0.956006 0
M  V30 13 C 1.514666 3.157651 -3.348480 0
M  V30 14 C 0.832900 0.685666 -1.537071 0
M  V30 15 C -0.306400 0.960782 -2.263861 0
M  V30 16 N -1.517464 0.605495 -1.821867 0
M  V30 17 C -1.775980 -0.032761 -0.673022 0
M  V30 18 N -3.086280 -0.368420 -0.292276 0
M  V30 19 C -3.545389 -0.981440 0.890931 0
M  V30 20 C -2.794698 -1.298056 1.994743 0
M  V30 21 C -3.282306 -1.899605 3.130892 0
M  V30 22 F -2.556044 -2.212650 4.225492 0
M  V30 23 C -4.617417 -2.213238 3.179592 0
M  V30 24 O -5.232344 -2.823119 4.270693 0
M  V30 25 C -5.416197 -1.918384 2.100845 0
M  V30 26 F -6.747376 -2.224220 2.133509 0
M  V30 27 C -4.865966 -1.318443 1.000451 0
M  V30 28 N -0.680606 -0.316588 0.058032 0
M  V30 29 C 0.547157 0.027042 -0.361624 0
M  V30 30 H 0.393328 -2.043342 3.913853 0
M  V30 31 H -0.483747 -3.288714 2.882143 0
M  V30 32 H 0.406212 -3.796921 4.343066 0
M  V30 33 H 2.525405 -3.043691 3.313892 0
M  V30 34 H 2.395913 -5.027130 1.582084 0
M  V30 35 H 0.667483 -5.210455 2.202034 0
M  V30 36 H 2.057195 -5.400974 3.287677 0
M  V30 37 H 2.580964 -2.805560 0.842991 0
M  V30 38 H 0.782523 -2.817726 0.786438 0
M  V30 39 H 0.693579 -0.818236 2.236253 0
M  V30 40 H 2.497362 -0.799655 2.301160 0
M  V30 41 H 2.222051 0.713815 -3.072454 0
M  V30 42 H 3.382670 2.690072 -2.575867 0
M  V30 43 H 1.384584 4.085121 -0.949281 0
M  V30 44 H 2.361494 2.797358 -0.034275 0
M  V30 45 H 3.140204 4.142309 -0.848345 0
M  V30 46 H 0.531093 3.588306 -3.001641 0
M  V30 47 H 2.056175 4.092838 -3.709519 0
M  V30 48 H 1.420514 2.514722 -4.213646 0
M  V30 49 H -0.401641 1.443741 -3.208065 0
M  V30 50 H -3.819113 -0.116716 -1.009763 0
M  V30 51 H -1.740587 -1.066426 1.995737 0
M  V30 52 H -5.764989 -3.683942 4.091096 0
M  V30 53 H -5.561002 -1.114453 0.183088 0
M  V30 END ATOM
M  V30 BEGIN BOND
M  V30 1 1 1 2
M  V30 2 1 2 3
M  V30 3 1 2 4
M  V30 4 1 4 5
M  V30 5 1 5 6
M  V30 6 1 6 7
M  V30 7 2 7 8
M  V30 8 1 7 9
M  V30 9 1 9 10
M  V30 10 1 10 11
M  V30 11 1 11 12
M  V30 12 1 11 13
M  V30 13 1 10 14
M  V30 14 2 14 15
M  V30 15 1 15 16
M  V30 16 2 16 17
M  V30 17 1 17 18
M  V30 18 1 18 19
M  V30 19 2 19 20
M  V30 20 1 20 21
M  V30 21 1 21 22
M  V30 22 2 21 23
M  V30 23 1 23 24
M  V30 24 1 23 25
M  V30 25 1 25 26
M  V30 26 2 25 27
M  V30 27 1 17 28
M  V30 28 2 28 29
M  V30 29 1 29 6
M  V30 30 1 29 14
M  V30 31 1 27 19
M  V30 32 1 1 30
M  V30 33 1 1 31
M  V30 34 1 1 32
M  V30 35 1 2 33
M  V30 36 1 3 34
M  V30 37 1 3 35
M  V30 38 1 3 36
M  V30 39 1 4 37
M  V30 40 1 4 38
M  V30 41 1 5 39
M  V30 42 1 5 40
M  V30 43 1 10 41
M  V30 44 1 11 42
M  V30 45 1 12 43
M  V30 46 1 12 44
M  V30 47 1 12 45
M  V30 48 1 13 46
M  V30 49 1 13 47
M  V30 50 1 13 48
M  V30 51 1 15 49
M  V30 52 1 18 50
M  V30 53 1 20 51
M  V30 54 1 24 52
M  V30 55 1 27 53
M  V30 END BOND
M  V30 END CTAB
M  END
>  <Dataset>  (402) 
ChEMBL_Kinases

>  <Ligand_Instance>  (402) 
nan

>  <PDB_ID>  (402) 
nan

>  <Standardized_SMILES>  (402) 
CC(C)CCN1C(=O)OC(C(C)C)c2cnc(Nc3cc(F)c(O)c(F)c3)nc21

>  <Name>  (402) 
nan

>  <Pocket>  (402) 
nan

>  <ATP_Site>  (402) 
nan

>  <Peripheral>  (402) 
nan

>  <Num_H_Atoms_ProtBoundConf>  (402) 
nan

>  <Num_Resolved_Atoms>  (402) 
nan

>  <Num_Not_Resolved_Atoms>  (402) 
nan

$$$$
CHEMBL4870914
     RDKit          3D

  0  0  0  0  0  0  0  0  0  0999 V3000
M  V30 BEGIN CTAB
M  V30 COUNTS 50 51 0 0 0
M  V30 BEGIN ATOM
M  V30 1 C 2.166686 -2.864213 7.085952 0
M  V30 2 S 3.021355 -2.946657 5.519725 0
M  V30 3 O 2.495390 -4.144055 4.759859 0
M  V30 4 O 4.482377 -3.173751 5.750171 0
M  V30 5 C 2.718328 -1.452193 4.569852 0
M  V30 6 C 3.442542 -1.528472 3.249357 0
M  V30 7 N 3.244258 -0.355059 2.423075 0
M  V30 8 C 1.877480 -0.296624 1.979801 0
M  V30 9 C 1.594211 0.899348 1.110874 0
M  V30 10 C 2.402670 0.971339 -0.140275 0
M  V30 11 N 2.247441 -0.134337 -1.039732 0
M  V30 12 C 0.965506 -0.430740 -1.576133 0
M  V30 13 N -0.102938 0.309986 -1.252718 0
M  V30 14 C -1.328466 0.095794 -1.711090 0
M  V30 15 N -2.380449 0.941417 -1.303762 0
M  V30 16 C -3.758796 0.923868 -1.639284 0
M  V30 17 C -4.671911 1.852852 -1.155140 0
M  V30 18 C -5.997403 1.782112 -1.516458 0
M  V30 19 C -6.509120 0.818353 -2.358017 0
M  V30 20 C -7.893712 0.756550 -2.725736 0
M  V30 21 N -9.013705 0.712962 -3.013302 0
M  V30 22 N -5.612991 -0.091476 -2.831690 0
M  V30 23 C -4.318482 -0.016585 -2.474341 0
M  V30 24 N -1.467395 -0.938604 -2.550667 0
M  V30 25 C -0.480979 -1.742370 -2.942978 0
M  V30 26 C 0.775327 -1.483546 -2.442486 0
M  V30 27 C 1.952341 -2.294441 -2.795699 0
M  V30 28 F 1.522233 -3.296310 -3.678304 0
M  V30 29 F 2.434865 -3.009166 -1.693459 0
M  V30 30 F 2.923248 -1.597854 -3.448694 0
M  V30 31 H 2.908662 -2.942421 7.926507 0
M  V30 32 H 1.394215 -3.650941 7.151724 0
M  V30 33 H 1.683436 -1.878327 7.148359 0
M  V30 34 H 1.640063 -1.386231 4.425143 0
M  V30 35 H 3.161049 -0.619866 5.156331 0
M  V30 36 H 2.979649 -2.391111 2.694169 0
M  V30 37 H 4.516810 -1.725552 3.367560 0
M  V30 38 H 3.580489 0.514491 2.877828 0
M  V30 39 H 1.695439 -1.268386 1.448805 0
M  V30 40 H 1.132539 -0.256510 2.804586 0
M  V30 41 H 1.917308 1.789038 1.726904 0
M  V30 42 H 0.508438 1.064749 0.961856 0
M  V30 43 H 3.431769 1.199957 0.129137 0
M  V30 44 H 2.035921 1.880280 -0.690053 0
M  V30 45 H 3.059407 -0.744879 -1.322597 0
M  V30 46 H -2.143304 1.727101 -0.640940 0
M  V30 47 H -4.321311 2.629871 -0.491335 0
M  V30 48 H -6.652335 2.533735 -1.105445 0
M  V30 49 H -3.753266 -0.801391 -2.930702 0
M  V30 50 H -0.603366 -2.583172 -3.627273 0
M  V30 END ATOM
M  V30 BEGIN BOND
M  V30 1 1 1 2
M  V30 2 2 2 3
M  V30 3 2 2 4
M  V30 4 1 2 5
M  V30 5 1 5 6
M  V30 6 1 6 7
M  V30 7 1 7 8
M  V30 8 1 8 9
M  V30 9 1 9 10
M  V30 10 1 10 11
M  V30 11 1 11 12
M  V30 12 2 12 13
M  V30 13 1 13 14
M  V30 14 1 14 15
M  V30 15 1 15 16
M  V30 16 2 16 17
M  V30 17 1 17 18
M  V30 18 2 18 19
M  V30 19 1 19 20
M  V30 20 3 20 21
M  V30 21 1 19 22
M  V30 22 2 22 23
M  V30 23 2 14 24
M  V30 24 1 24 25
M  V30 25 2 25 26
M  V30 26 1 26 27
M  V30 27 1 27 28
M  V30 28 1 27 29
M  V30 29 1 27 30
M  V30 30 1 26 12
M  V30 31 1 23 16
M  V30 32 1 1 31
M  V30 33 1 1 32
M  V30 34 1 1 33
M  V30 35 1 5 34
M  V30 36 1 5 35
M  V30 37 1 6 36
M  V30 38 1 6 37
M  V30 39 1 7 38
M  V30 40 1 8 39
M  V30 41 1 8 40
M  V30 42 1 9 41
M  V30 43 1 9 42
M  V30 44 1 10 43
M  V30 45 1 10 44
M  V30 46 1 11 45
M  V30 47 1 15 46
M  V30 48 1 17 47
M  V30 49 1 18 48
M  V30 50 1 23 49
M  V30 51 1 25 50
M  V30 END BOND
M  V30 END CTAB
M  END
>  <Dataset>  (403) 
ChEMBL_Kinases

>  <Ligand_Instance>  (403) 
nan

>  <PDB_ID>  (403) 
nan

>  <Standardized_SMILES>  (403) 
CS(=O)(=O)CCNCCCNc1nc(Nc2ccc(C#N)nc2)ncc1C(F)(F)F

>  <Name>  (403) 
nan

>  <Pocket>  (403) 
nan

>  <ATP_Site>  (403) 
nan

>  <Peripheral>  (403) 
nan

>  <Num_H_Atoms_ProtBoundConf>  (403) 
nan

>  <Num_Resolved_Atoms>  (403) 
nan

>  <Num_Not_Resolved_Atoms>  (403) 
nan

$$$$
CHEMBL4871106
     RDKit          3D

  0  0  0  0  0  0  0  0  0  0999 V3000
M  V30 BEGIN CTAB
M  V30 COUNTS 50 53 0 0 0
M  V30 BEGIN ATOM
M  V30 1 N 5.416617 -3.461731 2.774959 0
M  V30 2 C 5.498470 -2.026424 2.896092 0
M  V30 3 O 6.603088 -1.710366 3.399428 0
M  V30 4 C 4.483777 -1.025801 2.513133 0
M  V30 5 C 4.868222 0.254942 2.852524 0
M  V30 6 C 3.943041 1.256669 2.523937 0
M  V30 7 C 2.758404 0.905801 1.907170 0
M  V30 8 C 2.403163 -0.384550 1.580291 0
M  V30 9 C 1.198218 -0.639271 0.958663 0
M  V30 10 N 0.263298 0.371223 0.637130 0
M  V30 11 C -0.939291 -0.000599 -0.010757 0 CFG=2
M  V30 12 C -1.801836 1.241697 -0.168378 0
M  V30 13 N -1.130786 2.256804 -0.952607 0
M  V30 14 C -1.981770 3.429852 -1.053462 0
M  V30 15 C -2.125092 3.301098 -2.537035 0
M  V30 16 C -1.195166 2.124714 -2.381198 0
M  V30 17 C -1.740350 -1.081090 0.457667 0
M  V30 18 C -2.080085 -1.219859 1.790432 0
M  V30 19 C -2.852586 -2.248082 2.290054 0
M  V30 20 C -3.326850 -3.219152 1.396535 0
M  V30 21 Cl -4.293150 -4.457635 2.177761 0
M  V30 22 C -3.010920 -3.123613 0.040694 0
M  V30 23 C -3.573769 -4.213514 -0.764712 0
M  V30 24 F -3.281966 -4.157215 -2.092266 0
M  V30 25 F -3.186130 -5.463117 -0.285296 0
M  V30 26 F -4.963594 -4.177815 -0.663522 0
M  V30 27 C -2.236285 -2.059070 -0.344010 0
M  V30 28 N 0.941129 -1.931253 0.672144 0
M  V30 29 C 1.841902 -2.874429 0.996071 0
M  V30 30 N 3.048340 -2.675698 1.611762 0
M  V30 31 C 3.310822 -1.389205 1.900113 0
M  V30 32 H 5.058696 -4.409302 2.910489 0
M  V30 33 H 6.162361 -3.932490 2.184117 0
M  V30 34 H 5.784963 0.497618 3.327938 0
M  V30 35 H 4.203293 2.288321 2.771415 0
M  V30 36 H 2.128688 1.743095 1.703148 0
M  V30 37 H 0.413898 1.381499 0.854728 0
M  V30 38 H -0.621452 -0.242173 -1.073717 0
M  V30 39 H -2.050469 1.677589 0.821925 0
M  V30 40 H -2.759066 1.040051 -0.691563 0
M  V30 41 H -2.947944 3.350306 -0.483911 0
M  V30 42 H -1.406558 4.335594 -0.756339 0
M  V30 43 H -3.120799 2.925868 -2.882130 0
M  V30 44 H -1.754123 4.139615 -3.131154 0
M  V30 45 H -0.207526 2.399441 -2.845098 0
M  V30 46 H -1.579254 1.161172 -2.768531 0
M  V30 47 H -1.696024 -0.444206 2.474303 0
M  V30 48 H -3.038950 -2.231993 3.338153 0
M  V30 49 H -2.031835 -2.050804 -1.414185 0
M  V30 50 H 1.504758 -3.873948 0.706357 0
M  V30 END ATOM
M  V30 BEGIN BOND
M  V30 1 1 1 2
M  V30 2 2 2 3
M  V30 3 1 2 4
M  V30 4 2 4 5
M  V30 5 1 5 6
M  V30 6 2 6 7
M  V30 7 1 7 8
M  V30 8 2 8 9
M  V30 9 1 9 10
M  V30 10 1 10 11
M  V30 11 1 11 12
M  V30 12 1 12 13
M  V30 13 1 13 14
M  V30 14 1 14 15
M  V30 15 1 15 16
M  V30 16 1 11 17
M  V30 17 2 17 18
M  V30 18 1 18 19
M  V30 19 2 19 20
M  V30 20 1 20 21
M  V30 21 1 20 22
M  V30 22 1 22 23
M  V30 23 1 23 24
M  V30 24 1 23 25
M  V30 25 1 23 26
M  V30 26 2 22 27
M  V30 27 1 9 28
M  V30 28 2 28 29
M  V30 29 1 29 30
M  V30 30 2 30 31
M  V30 31 1 31 4
M  V30 32 1 31 8
M  V30 33 1 16 13
M  V30 34 1 27 17
M  V30 35 1 1 32
M  V30 36 1 1 33
M  V30 37 1 5 34
M  V30 38 1 6 35
M  V30 39 1 7 36
M  V30 40 1 10 37
M  V30 41 1 11 38 CFG=3
M  V30 42 1 12 39
M  V30 43 1 12 40
M  V30 44 1 14 41
M  V30 45 1 14 42
M  V30 46 1 15 43
M  V30 47 1 15 44
M  V30 48 1 16 45
M  V30 49 1 16 46
M  V30 50 1 18 47
M  V30 51 1 19 48
M  V30 52 1 27 49
M  V30 53 1 29 50
M  V30 END BOND
M  V30 END CTAB
M  END
>  <Dataset>  (404) 
ChEMBL_Kinases

>  <Ligand_Instance>  (404) 
nan

>  <PDB_ID>  (404) 
nan

>  <Standardized_SMILES>  (404) 
NC(=O)c1cccc2c(N[C@H](CN3CCC3)c3ccc(Cl)c(C(F)(F)F)c3)ncnc12

>  <Name>  (404) 
MSC-2363318A

>  <Pocket>  (404) 
nan

>  <ATP_Site>  (404) 
nan

>  <Peripheral>  (404) 
nan

>  <Num_H_Atoms_ProtBoundConf>  (404) 
nan

>  <Num_Resolved_Atoms>  (404) 
nan

>  <Num_Not_Resolved_Atoms>  (404) 
nan

$$$$
CHEMBL4871177
     RDKit          3D

  0  0  0  0  0  0  0  0  0  0999 V3000
M  V30 BEGIN CTAB
M  V30 COUNTS 50 52 0 0 0
M  V30 BEGIN ATOM
M  V30 1 C 1.531210 -4.513225 1.477213 0
M  V30 2 O 0.471438 -4.812168 0.593386 0
M  V30 3 C -0.469064 -3.847995 0.284793 0
M  V30 4 C -0.456612 -2.561126 0.791793 0
M  V30 5 C -1.406893 -1.609731 0.471170 0
M  V30 6 N -1.329143 -0.282924 1.040844 0
M  V30 7 C -0.551884 0.550650 0.188459 0
M  V30 8 O -0.061229 0.061131 -0.884635 0
M  V30 9 C -0.248973 1.970162 0.432866 0 CFG=2
M  V30 10 N 0.562131 2.453168 -0.660169 0
M  V30 11 C 0.429749 3.909646 -0.663984 0
M  V30 12 C 1.187792 4.377018 0.574855 0
M  V30 13 C 0.524404 3.799846 1.803023 0
M  V30 14 C 0.406277 2.277665 1.730956 0 CFG=2
M  V30 15 C 1.803559 1.751868 1.883368 0
M  V30 16 C 1.943487 0.268932 1.777569 0
M  V30 17 C 2.262721 2.156751 3.279761 0
M  V30 18 C -2.433214 -1.930969 -0.397037 0
M  V30 19 C -2.471712 -3.221549 -0.924351 0
M  V30 20 C -1.503965 -4.147074 -0.581056 0
M  V30 21 C -1.568810 -5.495615 -1.149991 0
M  V30 22 C -2.500138 -6.003254 -2.021514 0
M  V30 23 N -2.167935 -7.287708 -2.277862 0
M  V30 24 C -1.039463 -7.545588 -1.559730 0
M  V30 25 O -0.709789 -6.459611 -0.900459 0
M  V30 26 H 1.212708 -4.417067 2.539030 0
M  V30 27 H 2.312897 -5.310320 1.405613 0
M  V30 28 H 1.955241 -3.537198 1.178858 0
M  V30 29 H 0.346325 -2.316915 1.468292 0
M  V30 30 H -1.715119 0.163606 1.917376 0
M  V30 31 H -1.180404 2.597884 0.394600 0
M  V30 32 H 0.242025 2.045901 -1.586327 0
M  V30 33 H 0.806842 4.364349 -1.577732 0
M  V30 34 H -0.636939 4.129871 -0.468846 0
M  V30 35 H 1.165055 5.468284 0.701654 0
M  V30 36 H 2.254896 4.100705 0.473331 0
M  V30 37 H -0.452853 4.284002 1.920283 0
M  V30 38 H 1.181132 4.059848 2.672500 0
M  V30 39 H -0.222589 1.950840 2.562338 0
M  V30 40 H 2.521922 2.202531 1.193357 0
M  V30 41 H 2.125207 -0.126607 0.772397 0
M  V30 42 H 1.144275 -0.233064 2.353111 0
M  V30 43 H 2.882219 0.009572 2.351740 0
M  V30 44 H 2.871675 1.346300 3.735177 0
M  V30 45 H 1.404967 2.348160 3.933777 0
M  V30 46 H 2.878142 3.082611 3.244033 0
M  V30 47 H -3.180707 -1.204842 -0.657841 0
M  V30 48 H -3.254483 -3.527283 -1.610026 0
M  V30 49 H -3.338730 -5.437119 -2.410228 0
M  V30 50 H -0.626125 -8.543782 -1.646470 0
M  V30 END ATOM
M  V30 BEGIN BOND
M  V30 1 1 1 2
M  V30 2 1 2 3
M  V30 3 2 3 4
M  V30 4 1 4 5
M  V30 5 1 5 6
M  V30 6 1 6 7
M  V30 7 2 7 8
M  V30 8 1 7 9
M  V30 9 1 9 10
M  V30 10 1 10 11
M  V30 11 1 11 12
M  V30 12 1 12 13
M  V30 13 1 13 14
M  V30 14 1 14 15
M  V30 15 1 15 16
M  V30 16 1 15 17
M  V30 17 2 5 18
M  V30 18 1 18 19
M  V30 19 2 19 20
M  V30 20 1 20 21
M  V30 21 2 21 22
M  V30 22 1 22 23
M  V30 23 2 23 24
M  V30 24 1 24 25
M  V30 25 1 20 3
M  V30 26 1 25 21
M  V30 27 1 14 9
M  V30 28 1 1 26
M  V30 29 1 1 27
M  V30 30 1 1 28
M  V30 31 1 4 29
M  V30 32 1 6 30
M  V30 33 1 9 31 CFG=1
M  V30 34 1 10 32
M  V30 35 1 11 33
M  V30 36 1 11 34
M  V30 37 1 12 35
M  V30 38 1 12 36
M  V30 39 1 13 37
M  V30 40 1 13 38
M  V30 41 1 14 39 CFG=1
M  V30 42 1 15 40
M  V30 43 1 16 41
M  V30 44 1 16 42
M  V30 45 1 16 43
M  V30 46 1 17 44
M  V30 47 1 17 45
M  V30 48 1 17 46
M  V30 49 1 18 47
M  V30 50 1 19 48
M  V30 51 1 22 49
M  V30 52 1 24 50
M  V30 END BOND
M  V30 END CTAB
M  END
>  <Dataset>  (405) 
ChEMBL_Kinases

>  <Ligand_Instance>  (405) 
nan

>  <PDB_ID>  (405) 
nan

>  <Standardized_SMILES>  (405) 
COc1cc(NC(=O)[C@@H]2NCCC[C@@H]2C(C)C)ccc1-c1cnco1

>  <Name>  (405) 
nan

>  <Pocket>  (405) 
nan

>  <ATP_Site>  (405) 
nan

>  <Peripheral>  (405) 
nan

>  <Num_H_Atoms_ProtBoundConf>  (405) 
nan

>  <Num_Resolved_Atoms>  (405) 
nan

>  <Num_Not_Resolved_Atoms>  (405) 
nan

$$$$
CHEMBL84436
     RDKit          3D

  0  0  0  0  0  0  0  0  0  0999 V3000
M  V30 BEGIN CTAB
M  V30 COUNTS 49 51 0 0 0
M  V30 BEGIN ATOM
M  V30 1 C 0.220497 -5.181249 1.654982 0
M  V30 2 C -0.327368 -3.907601 2.250098 0
M  V30 3 C -1.764538 -3.760475 1.784926 0
M  V30 4 N 0.459251 -2.761601 1.826090 0
M  V30 5 C 1.541727 -2.217079 2.379022 0
M  V30 6 N 1.981422 -1.162957 1.682266 0
M  V30 7 C 1.180083 -0.958382 0.599048 0
M  V30 8 C 1.010515 -0.110984 -0.525908 0
M  V30 9 N 2.053358 0.816846 -0.416571 0
M  V30 10 C 3.099609 1.748456 -0.307729 0
M  V30 11 C 3.112515 2.416595 1.054186 0
M  V30 12 C 2.354761 3.602696 1.104454 0
M  V30 13 C 2.207945 4.386629 2.224476 0
M  V30 14 C 2.889457 3.904355 3.345453 0
M  V30 15 C 3.636758 2.764243 3.353901 0
M  V30 16 C 3.755848 2.003853 2.196970 0
M  V30 17 N -0.002748 -0.336990 -1.361560 0
M  V30 18 C -0.897635 -1.311908 -1.236200 0
M  V30 19 N -1.877659 -1.336904 -2.260804 0
M  V30 20 C -2.952886 -0.425724 -2.031230 0
M  V30 21 C -3.722051 -0.620285 -0.764912 0 CFG=1
M  V30 22 C -4.397577 -1.959266 -0.750920 0
M  V30 23 O -2.971267 -0.506032 0.372109 0
M  V30 24 N -0.724513 -2.099276 -0.174582 0
M  V30 25 C 0.239395 -1.995236 0.741814 0
M  V30 26 H -0.265648 -5.380531 0.680475 0
M  V30 27 H 1.311367 -5.114315 1.481144 0
M  V30 28 H 0.016840 -6.047160 2.319151 0
M  V30 29 H -0.372767 -3.993074 3.346644 0
M  V30 30 H -2.067556 -2.711624 1.974371 0
M  V30 31 H -1.860203 -3.974788 0.690156 0
M  V30 32 H -2.400623 -4.430874 2.396653 0
M  V30 33 H 2.052538 -2.537372 3.288220 0
M  V30 34 H 1.730526 1.302266 -1.304999 0
M  V30 35 H 4.116061 1.252553 -0.343798 0
M  V30 36 H 3.166698 2.568460 -1.018311 0
M  V30 37 H 1.828445 3.965044 0.228718 0
M  V30 38 H 1.618902 5.281534 2.217942 0
M  V30 39 H 2.834213 4.447551 4.270953 0
M  V30 40 H 4.154805 2.397766 4.216893 0
M  V30 41 H 4.304432 1.099653 2.069529 0
M  V30 42 H -1.782121 -1.983291 -3.101191 0
M  V30 43 H -2.554967 0.610088 -2.130005 0
M  V30 44 H -3.696383 -0.542864 -2.878384 0
M  V30 45 H -4.533179 0.170262 -0.784747 0
M  V30 46 H -3.656696 -2.756511 -0.546187 0
M  V30 47 H -5.198337 -1.935091 0.023703 0
M  V30 48 H -4.828449 -2.085412 -1.790303 0
M  V30 49 H -3.429898 -0.701448 1.199590 0
M  V30 END ATOM
M  V30 BEGIN BOND
M  V30 1 1 1 2
M  V30 2 1 2 3
M  V30 3 1 2 4
M  V30 4 1 4 5
M  V30 5 2 5 6
M  V30 6 1 6 7
M  V30 7 2 7 8
M  V30 8 1 8 9
M  V30 9 1 9 10
M  V30 10 1 10 11
M  V30 11 2 11 12
M  V30 12 1 12 13
M  V30 13 2 13 14
M  V30 14 1 14 15
M  V30 15 2 15 16
M  V30 16 1 8 17
M  V30 17 2 17 18
M  V30 18 1 18 19
M  V30 19 1 19 20
M  V30 20 1 20 21
M  V30 21 1 21 22
M  V30 22 1 21 23
M  V30 23 1 18 24
M  V30 24 2 24 25
M  V30 25 1 25 4
M  V30 26 1 25 7
M  V30 27 1 16 11
M  V30 28 1 1 26
M  V30 29 1 1 27
M  V30 30 1 1 28
M  V30 31 1 2 29
M  V30 32 1 3 30
M  V30 33 1 3 31
M  V30 34 1 3 32
M  V30 35 1 5 33
M  V30 36 1 9 34
M  V30 37 1 10 35
M  V30 38 1 10 36
M  V30 39 1 12 37
M  V30 40 1 13 38
M  V30 41 1 14 39
M  V30 42 1 15 40
M  V30 43 1 16 41
M  V30 44 1 19 42
M  V30 45 1 20 43
M  V30 46 1 20 44
M  V30 47 1 21 45 CFG=1
M  V30 48 1 22 46
M  V30 49 1 22 47
M  V30 50 1 22 48
M  V30 51 1 23 49
M  V30 END BOND
M  V30 END CTAB
M  END
>  <Dataset>  (406) 
ChEMBL_Kinases

>  <Ligand_Instance>  (406) 
nan

>  <PDB_ID>  (406) 
nan

>  <Standardized_SMILES>  (406) 
CC(C)n1cnc2c(NCc3ccccc3)nc(NC[C@@H](C)O)nc21

>  <Name>  (406) 
nan

>  <Pocket>  (406) 
nan

>  <ATP_Site>  (406) 
nan

>  <Peripheral>  (406) 
nan

>  <Num_H_Atoms_ProtBoundConf>  (406) 
nan

>  <Num_Resolved_Atoms>  (406) 
nan

>  <Num_Not_Resolved_Atoms>  (406) 
nan

$$$$
CHEMBL4871187
     RDKit          3D

  0  0  0  0  0  0  0  0  0  0999 V3000
M  V30 BEGIN CTAB
M  V30 COUNTS 50 53 0 0 0
M  V30 BEGIN ATOM
M  V30 1 C 1.733191 -4.164386 2.229581 0
M  V30 2 C 2.587203 -2.952569 2.158083 0
M  V30 3 C 2.227937 -2.063030 3.325082 0
M  V30 4 C 2.532560 -2.195249 0.842871 0
M  V30 5 O 3.422594 -1.106222 1.030199 0
M  V30 6 C 2.995616 0.182409 1.018053 0
M  V30 7 O 3.913864 0.988431 1.286100 0
M  V30 8 N 1.696178 0.616781 0.745094 0
M  V30 9 C 1.300502 1.986222 0.744682 0
M  V30 10 C 1.572979 2.847751 1.880614 0
M  V30 11 C 2.721003 3.749638 1.604021 0
M  V30 12 C 2.943201 3.651600 0.135822 0
M  V30 13 C 1.977557 2.665070 -0.423594 0
M  V30 14 C 0.753857 -0.439824 0.456747 0
M  V30 15 N -0.491950 -0.093127 0.142843 0
M  V30 16 C -1.431205 -0.997947 -0.183126 0
M  V30 17 N -2.748924 -0.589116 -0.511652 0
M  V30 18 C -3.866513 -1.379155 -0.877622 0
M  V30 19 C -5.074660 -0.782385 -1.161491 0
M  V30 20 C -6.193811 -1.494989 -1.521948 0
M  V30 21 F -7.346737 -0.836830 -1.786004 0
M  V30 22 C -6.138233 -2.865788 -1.612394 0
M  V30 23 C -4.956380 -3.521876 -1.340274 0
M  V30 24 F -4.894592 -4.868321 -1.427150 0
M  V30 25 C -3.871356 -2.750455 -0.984603 0
M  V30 26 N -1.007046 -2.269077 -0.164788 0
M  V30 27 C 0.229560 -2.679426 0.142273 0
M  V30 28 C 1.178921 -1.748075 0.474322 0
M  V30 29 H 2.071787 -4.713775 3.165120 0
M  V30 30 H 1.919247 -4.919431 1.428296 0
M  V30 31 H 0.655051 -3.982083 2.429905 0
M  V30 32 H 3.638945 -3.277457 2.280022 0
M  V30 33 H 3.058291 -1.414427 3.641870 0
M  V30 34 H 1.336432 -1.483360 2.994625 0
M  V30 35 H 1.892967 -2.653640 4.191522 0
M  V30 36 H 2.993181 -2.849272 0.069324 0
M  V30 37 H 0.201591 2.009405 0.487858 0
M  V30 38 H 0.675662 3.531871 2.018330 0
M  V30 39 H 1.618812 2.356299 2.878489 0
M  V30 40 H 3.623208 3.544048 2.210142 0
M  V30 41 H 2.472956 4.823487 1.847358 0
M  V30 42 H 2.843176 4.657829 -0.367885 0
M  V30 43 H 4.021821 3.392641 -0.039491 0
M  V30 44 H 2.587105 1.941009 -1.032287 0
M  V30 45 H 1.262647 3.214808 -1.080688 0
M  V30 46 H -2.919708 0.460309 -0.477671 0
M  V30 47 H -5.174627 0.306383 -1.104892 0
M  V30 48 H -7.015202 -3.431091 -1.895372 0
M  V30 49 H -2.986263 -3.305973 -0.785763 0
M  V30 50 H 0.359125 -3.739071 0.088711 0
M  V30 END ATOM
M  V30 BEGIN BOND
M  V30 1 1 1 2
M  V30 2 1 2 3
M  V30 3 1 2 4
M  V30 4 1 4 5
M  V30 5 1 5 6
M  V30 6 2 6 7
M  V30 7 1 6 8
M  V30 8 1 8 9
M  V30 9 1 9 10
M  V30 10 1 10 11
M  V30 11 1 11 12
M  V30 12 1 12 13
M  V30 13 1 8 14
M  V30 14 2 14 15
M  V30 15 1 15 16
M  V30 16 1 16 17
M  V30 17 1 17 18
M  V30 18 2 18 19
M  V30 19 1 19 20
M  V30 20 1 20 21
M  V30 21 2 20 22
M  V30 22 1 22 23
M  V30 23 1 23 24
M  V30 24 2 23 25
M  V30 25 2 16 26
M  V30 26 1 26 27
M  V30 27 2 27 28
M  V30 28 1 28 4
M  V30 29 1 13 9
M  V30 30 1 28 14
M  V30 31 1 25 18
M  V30 32 1 1 29
M  V30 33 1 1 30
M  V30 34 1 1 31
M  V30 35 1 2 32
M  V30 36 1 3 33
M  V30 37 1 3 34
M  V30 38 1 3 35
M  V30 39 1 4 36
M  V30 40 1 9 37
M  V30 41 1 10 38
M  V30 42 1 10 39
M  V30 43 1 11 40
M  V30 44 1 11 41
M  V30 45 1 12 42
M  V30 46 1 12 43
M  V30 47 1 13 44
M  V30 48 1 13 45
M  V30 49 1 17 46
M  V30 50 1 19 47
M  V30 51 1 22 48
M  V30 52 1 25 49
M  V30 53 1 27 50
M  V30 END BOND
M  V30 END CTAB
M  END
>  <Dataset>  (407) 
ChEMBL_Kinases

>  <Ligand_Instance>  (407) 
nan

>  <PDB_ID>  (407) 
nan

>  <Standardized_SMILES>  (407) 
CC(C)C1OC(=O)N(C2CCCC2)c2nc(Nc3cc(F)cc(F)c3)ncc21

>  <Name>  (407) 
nan

>  <Pocket>  (407) 
nan

>  <ATP_Site>  (407) 
nan

>  <Peripheral>  (407) 
nan

>  <Num_H_Atoms_ProtBoundConf>  (407) 
nan

>  <Num_Resolved_Atoms>  (407) 
nan

>  <Num_Not_Resolved_Atoms>  (407) 
nan

$$$$
CHEMBL84140
     RDKit          3D

  0  0  0  0  0  0  0  0  0  0999 V3000
M  V30 BEGIN CTAB
M  V30 COUNTS 36 37 0 0 0
M  V30 BEGIN ATOM
M  V30 1 C -2.189776 -1.819772 2.098489 0
M  V30 2 C -1.346474 -3.061118 2.238340 0
M  V30 3 C -2.141822 -4.190135 1.598704 0
M  V30 4 N -0.043176 -2.915142 1.656347 0
M  V30 5 C 1.014287 -3.728388 1.744324 0
M  V30 6 N 2.065062 -3.228216 1.047467 0
M  V30 7 C 1.672184 -2.063866 0.499240 0
M  V30 8 C 2.260060 -1.112549 -0.292616 0
M  V30 9 N 3.613756 -1.290249 -0.694604 0
M  V30 10 N 1.516278 -0.061734 -0.641545 0
M  V30 11 C 0.244179 0.167803 -0.298768 0
M  V30 12 N -0.544529 1.283582 -0.672226 0
M  V30 13 C -0.294795 2.487990 -1.368561 0
M  V30 14 C 0.273479 3.538682 -0.469940 0
M  V30 15 C 1.580078 3.100622 0.118778 0
M  V30 16 O 2.501980 2.845413 -0.914132 0
M  V30 17 N -0.264551 -0.803496 0.474403 0
M  V30 18 C 0.369327 -1.893719 0.888681 0
M  V30 19 H -2.505288 -1.617748 1.048442 0
M  V30 20 H -3.131861 -2.014874 2.666941 0
M  V30 21 H -1.705608 -0.932423 2.576030 0
M  V30 22 H -1.274092 -3.292244 3.310834 0
M  V30 23 H -2.373536 -3.985208 0.539394 0
M  V30 24 H -1.580586 -5.130418 1.763737 0
M  V30 25 H -3.108942 -4.239422 2.143626 0
M  V30 26 H 1.018811 -4.654043 2.295823 0
M  V30 27 H 4.075143 -1.886074 -1.445607 0
M  V30 28 H 4.264333 -0.707431 -0.119931 0
M  V30 29 H -1.561035 1.206041 -0.355072 0
M  V30 30 H 0.359188 2.331049 -2.277309 0
M  V30 31 H -1.277063 2.902824 -1.749872 0
M  V30 32 H 0.402444 4.519788 -0.988795 0
M  V30 33 H -0.445009 3.646534 0.378543 0
M  V30 34 H 1.533705 2.237268 0.770221 0
M  V30 35 H 1.978167 3.933770 0.771734 0
M  V30 36 H 3.259348 2.300032 -0.546139 0
M  V30 END ATOM
M  V30 BEGIN BOND
M  V30 1 1 1 2
M  V30 2 1 2 3
M  V30 3 1 2 4
M  V30 4 1 4 5
M  V30 5 2 5 6
M  V30 6 1 6 7
M  V30 7 2 7 8
M  V30 8 1 8 9
M  V30 9 1 8 10
M  V30 10 2 10 11
M  V30 11 1 11 12
M  V30 12 1 12 13
M  V30 13 1 13 14
M  V30 14 1 14 15
M  V30 15 1 15 16
M  V30 16 1 11 17
M  V30 17 2 17 18
M  V30 18 1 18 4
M  V30 19 1 18 7
M  V30 20 1 1 19
M  V30 21 1 1 20
M  V30 22 1 1 21
M  V30 23 1 2 22
M  V30 24 1 3 23
M  V30 25 1 3 24
M  V30 26 1 3 25
M  V30 27 1 5 26
M  V30 28 1 9 27
M  V30 29 1 9 28
M  V30 30 1 12 29
M  V30 31 1 13 30
M  V30 32 1 13 31
M  V30 33 1 14 32
M  V30 34 1 14 33
M  V30 35 1 15 34
M  V30 36 1 15 35
M  V30 37 1 16 36
M  V30 END BOND
M  V30 END CTAB
M  END
>  <Dataset>  (408) 
ChEMBL_Kinases

>  <Ligand_Instance>  (408) 
nan

>  <PDB_ID>  (408) 
nan

>  <Standardized_SMILES>  (408) 
CC(C)n1cnc2c(N)nc(NCCCO)nc21

>  <Name>  (408) 
nan

>  <Pocket>  (408) 
nan

>  <ATP_Site>  (408) 
nan

>  <Peripheral>  (408) 
nan

>  <Num_H_Atoms_ProtBoundConf>  (408) 
nan

>  <Num_Resolved_Atoms>  (408) 
nan

>  <Num_Not_Resolved_Atoms>  (408) 
nan

$$$$
CHEMBL83980
     RDKit          3D

  0  0  0  0  0  0  0  0  0  0999 V3000
M  V30 BEGIN CTAB
M  V30 COUNTS 49 51 0 0 0
M  V30 BEGIN ATOM
M  V30 1 C 0.169130 -4.968411 1.150935 0
M  V30 2 C 0.140616 -3.884137 2.185255 0
M  V30 3 C -1.259181 -3.548446 2.578444 0
M  V30 4 N 0.857361 -2.730591 1.664686 0
M  V30 5 C 2.016791 -2.194438 2.057455 0
M  V30 6 N 2.202985 -1.160977 1.231836 0
M  V30 7 C 1.115672 -1.128574 0.361081 0
M  V30 8 C 1.529947 -0.053098 -0.335289 0
M  V30 9 N 1.952423 1.044372 -1.046178 0
M  V30 10 C 3.127047 1.682763 -0.441155 0
M  V30 11 C 2.827648 2.293085 0.868442 0
M  V30 12 C 2.237691 3.545242 0.687467 0
M  V30 13 C 1.852209 4.368499 1.731034 0
M  V30 14 C 2.057154 3.940314 3.045857 0
M  V30 15 C 2.646940 2.691881 3.259907 0
M  V30 16 C 2.998707 1.939880 2.182598 0
M  V30 17 N 0.401954 -0.077678 -1.201934 0
M  V30 18 C -0.627514 -0.966723 -1.166430 0
M  V30 19 N -1.841680 -1.095522 -1.998214 0
M  V30 20 C -2.919216 -0.341734 -1.449443 0
M  V30 21 C -3.438413 -0.771485 -0.129644 0
M  V30 22 C -4.009736 -2.135661 -0.055358 0
M  V30 23 O -5.092307 -2.349495 -0.898338 0
M  V30 24 N -0.696185 -1.981806 -0.253401 0
M  V30 25 C 0.274159 -2.114768 0.637182 0
M  V30 26 H -0.742132 -4.950441 0.511396 0
M  V30 27 H 1.049612 -4.789765 0.472036 0
M  V30 28 H 0.292639 -5.983310 1.616544 0
M  V30 29 H 0.680793 -4.238432 3.080474 0
M  V30 30 H -1.686821 -4.370176 3.159190 0
M  V30 31 H -1.917864 -3.379507 1.692114 0
M  V30 32 H -1.313150 -2.628994 3.192072 0
M  V30 33 H 2.641327 -2.565027 2.888606 0
M  V30 34 H 1.802118 1.637798 -1.853542 0
M  V30 35 H 3.605030 2.392497 -1.111596 0
M  V30 36 H 3.865393 0.843056 -0.287776 0
M  V30 37 H 2.000011 4.044076 -0.259437 0
M  V30 38 H 1.397377 5.329305 1.670419 0
M  V30 39 H 1.811226 4.465664 3.965770 0
M  V30 40 H 2.865418 2.237827 4.225527 0
M  V30 41 H 3.464095 0.989734 2.271447 0
M  V30 42 H -1.872741 -1.683416 -2.882850 0
M  V30 43 H -2.620736 0.742786 -1.353499 0
M  V30 44 H -3.789625 -0.292328 -2.164749 0
M  V30 45 H -4.166785 -0.006167 0.219726 0
M  V30 46 H -2.590226 -0.741710 0.613295 0
M  V30 47 H -3.280806 -2.920654 -0.278679 0
M  V30 48 H -4.413830 -2.263429 0.988031 0
M  V30 49 H -5.011625 -1.979329 -1.795716 0
M  V30 END ATOM
M  V30 BEGIN BOND
M  V30 1 1 1 2
M  V30 2 1 2 3
M  V30 3 1 2 4
M  V30 4 1 4 5
M  V30 5 2 5 6
M  V30 6 1 6 7
M  V30 7 2 7 8
M  V30 8 1 8 9
M  V30 9 1 9 10
M  V30 10 1 10 11
M  V30 11 2 11 12
M  V30 12 1 12 13
M  V30 13 2 13 14
M  V30 14 1 14 15
M  V30 15 2 15 16
M  V30 16 1 8 17
M  V30 17 2 17 18
M  V30 18 1 18 19
M  V30 19 1 19 20
M  V30 20 1 20 21
M  V30 21 1 21 22
M  V30 22 1 22 23
M  V30 23 1 18 24
M  V30 24 2 24 25
M  V30 25 1 25 4
M  V30 26 1 25 7
M  V30 27 1 16 11
M  V30 28 1 1 26
M  V30 29 1 1 27
M  V30 30 1 1 28
M  V30 31 1 2 29
M  V30 32 1 3 30
M  V30 33 1 3 31
M  V30 34 1 3 32
M  V30 35 1 5 33
M  V30 36 1 9 34
M  V30 37 1 10 35
M  V30 38 1 10 36
M  V30 39 1 12 37
M  V30 40 1 13 38
M  V30 41 1 14 39
M  V30 42 1 15 40
M  V30 43 1 16 41
M  V30 44 1 19 42
M  V30 45 1 20 43
M  V30 46 1 20 44
M  V30 47 1 21 45
M  V30 48 1 21 46
M  V30 49 1 22 47
M  V30 50 1 22 48
M  V30 51 1 23 49
M  V30 END BOND
M  V30 END CTAB
M  END
>  <Dataset>  (409) 
ChEMBL_Kinases

>  <Ligand_Instance>  (409) 
nan

>  <PDB_ID>  (409) 
nan

>  <Standardized_SMILES>  (409) 
CC(C)n1cnc2c(NCc3ccccc3)nc(NCCCO)nc21

>  <Name>  (409) 
BOHEMINE

>  <Pocket>  (409) 
nan

>  <ATP_Site>  (409) 
nan

>  <Peripheral>  (409) 
nan

>  <Num_H_Atoms_ProtBoundConf>  (409) 
nan

>  <Num_Resolved_Atoms>  (409) 
nan

>  <Num_Not_Resolved_Atoms>  (409) 
nan

$$$$
CHEMBL4871231
     RDKit          3D

  0  0  0  0  0  0  0  0  0  0999 V3000
M  V30 BEGIN CTAB
M  V30 COUNTS 65 70 0 0 0
M  V30 BEGIN ATOM
M  V30 1 C 3.323748 -0.325220 4.872026 0
M  V30 2 C 3.561076 -0.056498 3.610955 0
M  V30 3 C 3.559862 -0.298443 2.156863 0
M  V30 4 N 2.832351 0.686534 1.414167 0
M  V30 5 C 3.345963 1.803592 0.884788 0
M  V30 6 O 4.533093 2.215077 0.919295 0
M  V30 7 C 2.340272 2.473762 0.263901 0
M  V30 8 C 2.217229 3.627849 -0.441383 0
M  V30 9 N 1.037980 4.039825 -0.958075 0
M  V30 10 C -0.069312 3.294269 -0.779028 0
M  V30 11 N -1.423212 3.435336 -1.194974 0
M  V30 12 C -2.044849 2.678937 -2.226708 0
M  V30 13 C -3.363552 2.928611 -2.529108 0
M  V30 14 C -3.920389 2.143464 -3.527145 0
M  V30 15 C -3.166968 1.192410 -4.145220 0
M  V30 16 C -1.845296 0.954152 -3.831496 0
M  V30 17 C -1.248287 1.726875 -2.828261 0
M  V30 18 C -1.012532 -0.079981 -4.499757 0
M  V30 19 N -1.337369 -0.318192 -5.868166 0
M  V30 20 C -2.566137 0.323952 -6.288590 0
M  V30 21 C -3.620122 0.258898 -5.233339 0
M  V30 22 C -4.121010 -1.089381 -4.868875 0
M  V30 23 C -5.026347 -0.032212 -5.472362 0
M  V30 24 N 0.034805 2.149660 -0.083316 0
M  V30 25 C 1.193111 1.700999 0.448934 0
M  V30 26 N 1.537124 0.593050 1.170502 0
M  V30 27 C 0.536153 -0.365875 1.489895 0
M  V30 28 C -0.758675 0.019282 1.769375 0
M  V30 29 C -1.689312 -0.953420 2.062226 0
M  V30 30 C -1.412095 -2.280993 2.095182 0
M  V30 31 C -0.093043 -2.642644 1.808513 0
M  V30 32 C 0.390210 -4.055393 1.797990 0
M  V30 33 C 1.862219 -4.118733 1.482014 0
M  V30 34 C -0.378288 -4.880776 0.787921 0
M  V30 35 O 0.217571 -4.632807 3.058903 0
M  V30 36 N 0.805574 -1.682262 1.523655 0
M  V30 37 H 2.824323 -1.305657 5.021621 0
M  V30 38 H 3.551234 0.272717 5.733485 0
M  V30 39 H 4.054892 0.936789 3.575722 0
M  V30 40 H 4.591761 -0.454123 1.756561 0
M  V30 41 H 3.083256 -1.314504 2.021790 0
M  V30 42 H 3.055509 4.277761 -0.626736 0
M  V30 43 H -1.934629 4.177502 -0.650710 0
M  V30 44 H -3.964321 3.682049 -2.040132 0
M  V30 45 H -4.945695 2.236398 -3.859606 0
M  V30 46 H -0.216207 1.587318 -2.536883 0
M  V30 47 H 0.068220 0.089115 -4.324863 0
M  V30 48 H -1.233048 -1.032553 -3.937684 0
M  V30 49 H -1.363059 -1.336091 -6.084196 0
M  V30 50 H -2.298709 1.405442 -6.403337 0
M  V30 51 H -2.885640 -0.052167 -7.267866 0
M  V30 52 H -4.221072 -1.345226 -3.792411 0
M  V30 53 H -3.804774 -1.945185 -5.507519 0
M  V30 54 H -5.361661 -0.224125 -6.504759 0
M  V30 55 H -5.802446 0.432416 -4.802267 0
M  V30 56 H -1.037354 1.063366 1.757616 0
M  V30 57 H -2.722106 -0.653329 2.284055 0
M  V30 58 H -2.102575 -3.087714 2.317265 0
M  V30 59 H 2.134166 -3.275145 0.802277 0
M  V30 60 H 2.200155 -5.042804 1.015797 0
M  V30 61 H 2.484510 -3.969467 2.409320 0
M  V30 62 H -0.407572 -4.356426 -0.189520 0
M  V30 63 H -1.388723 -5.078444 1.152632 0
M  V30 64 H 0.159537 -5.838009 0.682999 0
M  V30 65 H 0.838806 -4.176742 3.710484 0
M  V30 END ATOM
M  V30 BEGIN BOND
M  V30 1 2 1 2
M  V30 2 1 2 3
M  V30 3 1 3 4
M  V30 4 1 4 5
M  V30 5 2 5 6
M  V30 6 1 5 7
M  V30 7 2 7 8
M  V30 8 1 8 9
M  V30 9 2 9 10
M  V30 10 1 10 11
M  V30 11 1 11 12
M  V30 12 2 12 13
M  V30 13 1 13 14
M  V30 14 2 14 15
M  V30 15 1 15 16
M  V30 16 2 16 17
M  V30 17 1 16 18
M  V30 18 1 18 19
M  V30 19 1 19 20
M  V30 20 1 20 21
M  V30 21 1 21 22
M  V30 22 1 22 23
M  V30 23 1 10 24
M  V30 24 2 24 25
M  V30 25 1 25 26
M  V30 26 1 26 27
M  V30 27 2 27 28
M  V30 28 1 28 29
M  V30 29 2 29 30
M  V30 30 1 30 31
M  V30 31 1 31 32
M  V30 32 1 32 33
M  V30 33 1 32 34
M  V30 34 1 32 35
M  V30 35 2 31 36
M  V30 36 1 26 4
M  V30 37 1 36 27
M  V30 38 1 25 7
M  V30 39 1 17 12
M  V30 40 1 23 21
M  V30 41 1 21 15
M  V30 42 1 1 37
M  V30 43 1 1 38
M  V30 44 1 2 39
M  V30 45 1 3 40
M  V30 46 1 3 41
M  V30 47 1 8 42
M  V30 48 1 11 43
M  V30 49 1 13 44
M  V30 50 1 14 45
M  V30 51 1 17 46
M  V30 52 1 18 47
M  V30 53 1 18 48
M  V30 54 1 19 49
M  V30 55 1 20 50
M  V30 56 1 20 51
M  V30 57 1 22 52
M  V30 58 1 22 53
M  V30 59 1 23 54
M  V30 60 1 23 55
M  V30 61 1 28 56
M  V30 62 1 29 57
M  V30 63 1 30 58
M  V30 64 1 33 59
M  V30 65 1 33 60
M  V30 66 1 33 61
M  V30 67 1 34 62
M  V30 68 1 34 63
M  V30 69 1 34 64
M  V30 70 1 35 65
M  V30 END BOND
M  V30 END CTAB
M  END
>  <Dataset>  (410) 
ChEMBL_Kinases

>  <Ligand_Instance>  (410) 
nan

>  <PDB_ID>  (410) 
nan

>  <Standardized_SMILES>  (410) 
C=CCn1c(=O)c2cnc(Nc3ccc4c(c3)CNCC43CC3)nc2n1-c1cccc(C(C)(C)O)n1

>  <Name>  (410) 
nan

>  <Pocket>  (410) 
nan

>  <ATP_Site>  (410) 
nan

>  <Peripheral>  (410) 
nan

>  <Num_H_Atoms_ProtBoundConf>  (410) 
nan

>  <Num_Resolved_Atoms>  (410) 
nan

>  <Num_Not_Resolved_Atoms>  (410) 
nan

$$$$
CHEMBL4871299
     RDKit          3D

  0  0  0  0  0  0  0  0  0  0999 V3000
M  V30 BEGIN CTAB
M  V30 COUNTS 43 44 0 0 0
M  V30 BEGIN ATOM
M  V30 1 C -2.789704 -2.989549 2.946368 0
M  V30 2 O -1.471864 -2.656599 3.469609 0
M  V30 3 C -0.558198 -2.231245 2.564779 0
M  V30 4 C 0.350452 -1.808695 1.667968 0
M  V30 5 C 1.602103 -1.375992 1.399440 0
M  V30 6 N 1.777294 -1.099742 0.018083 0
M  V30 7 C 1.539370 0.252416 -0.491518 0
M  V30 8 O 1.234185 0.700375 0.665210 0
M  V30 9 C 1.794618 0.219150 -1.941013 0
M  V30 10 C 1.652732 1.463570 -2.708934 0 CFG=1
M  V30 11 N 1.974998 1.127543 -4.106185 0
M  V30 12 C 0.413404 2.241949 -2.679186 0
M  V30 13 C 0.074856 2.731199 -1.287549 0
M  V30 14 C -0.777250 1.593377 -3.335063 0
M  V30 15 C 2.305662 -1.336381 2.566452 0
M  V30 16 C 1.714568 -1.705189 3.757478 0
M  V30 17 C 0.325654 -2.142321 3.773662 0
M  V30 18 C 0.293986 -2.427436 5.264447 0
M  V30 19 C -0.830349 -3.051213 5.761312 0
M  V30 20 N -0.773790 -3.267027 7.085114 0
M  V30 21 C 0.437402 -2.754670 7.420683 0
M  V30 22 O 1.024917 -2.284778 6.373455 0
M  V30 23 H -2.710546 -3.270032 1.886426 0
M  V30 24 H -3.207498 -3.829068 3.533052 0
M  V30 25 H -3.427780 -2.096872 3.024904 0
M  V30 26 H -0.468397 -1.942517 0.886590 0
M  V30 27 H 2.076660 -2.055709 -0.375256 0
M  V30 28 H 2.882947 -0.081323 -2.059436 0
M  V30 29 H 1.248678 -0.657243 -2.420149 0
M  V30 30 H 2.514706 2.132348 -2.408032 0
M  V30 31 H 1.322867 0.465940 -4.535316 0
M  V30 32 H 2.106088 1.956474 -4.696399 0
M  V30 33 H 0.598857 3.169526 -3.300619 0
M  V30 34 H -0.515714 3.701770 -1.344335 0
M  V30 35 H -0.622246 2.059742 -0.740698 0
M  V30 36 H 0.976475 3.016991 -0.723088 0
M  V30 37 H -1.507667 1.358235 -2.503258 0
M  V30 38 H -1.345086 2.287743 -4.010060 0
M  V30 39 H -0.579460 0.701927 -3.918945 0
M  V30 40 H 3.289659 -0.991220 2.326392 0
M  V30 41 H 2.541611 -1.559620 4.493870 0
M  V30 42 H -1.782253 -3.460430 5.489701 0
M  V30 43 H 1.268019 -2.484788 8.098835 0
M  V30 END ATOM
M  V30 BEGIN BOND
M  V30 1 1 1 2
M  V30 2 1 2 3
M  V30 3 2 3 4
M  V30 4 1 4 5
M  V30 5 1 5 6
M  V30 6 1 6 7
M  V30 7 2 7 8
M  V30 8 1 7 9
M  V30 9 1 9 10
M  V30 10 1 10 11
M  V30 11 1 10 12
M  V30 12 1 12 13
M  V30 13 1 12 14
M  V30 14 2 5 15
M  V30 15 1 15 16
M  V30 16 2 16 17
M  V30 17 1 17 18
M  V30 18 2 18 19
M  V30 19 1 19 20
M  V30 20 2 20 21
M  V30 21 1 21 22
M  V30 22 1 17 3
M  V30 23 1 22 18
M  V30 24 1 1 23
M  V30 25 1 1 24
M  V30 26 1 1 25
M  V30 27 1 4 26
M  V30 28 1 6 27
M  V30 29 1 9 28
M  V30 30 1 9 29
M  V30 31 1 10 30 CFG=1
M  V30 32 1 11 31
M  V30 33 1 11 32
M  V30 34 1 12 33
M  V30 35 1 13 34
M  V30 36 1 13 35
M  V30 37 1 13 36
M  V30 38 1 14 37
M  V30 39 1 14 38
M  V30 40 1 14 39
M  V30 41 1 15 40
M  V30 42 1 16 41
M  V30 43 1 19 42
M  V30 44 1 21 43
M  V30 END BOND
M  V30 END CTAB
M  END
>  <Dataset>  (411) 
ChEMBL_Kinases

>  <Ligand_Instance>  (411) 
nan

>  <PDB_ID>  (411) 
nan

>  <Standardized_SMILES>  (411) 
COc1cc(NC(=O)C[C@@H](N)C(C)C)ccc1-c1cnco1

>  <Name>  (411) 
nan

>  <Pocket>  (411) 
nan

>  <ATP_Site>  (411) 
nan

>  <Peripheral>  (411) 
nan

>  <Num_H_Atoms_ProtBoundConf>  (411) 
nan

>  <Num_Resolved_Atoms>  (411) 
nan

>  <Num_Not_Resolved_Atoms>  (411) 
nan

$$$$
CHEMBL4871302
     RDKit          3D

  0  0  0  0  0  0  0  0  0  0999 V3000
M  V30 BEGIN CTAB
M  V30 COUNTS 72 76 0 0 0
M  V30 BEGIN ATOM
M  V30 1 C 1.231201 -4.251125 2.910077 0
M  V30 2 O 1.390257 -2.919710 2.450035 0
M  V30 3 C 1.675754 -1.875128 3.325062 0
M  V30 4 C 1.802369 -2.153592 4.651606 0
M  V30 5 C 2.082681 -1.190592 5.588501 0
M  V30 6 F 2.216195 -1.426642 6.914314 0
M  V30 7 C 2.227146 0.083888 5.085618 0
M  V30 8 C 2.106357 0.418864 3.732189 0
M  V30 9 C 2.282887 1.828474 3.296977 0 CFG=1
M  V30 10 C 3.668737 2.043921 2.729286 0
M  V30 11 O 4.557700 1.677427 3.753991 0
M  V30 12 N 1.234808 2.153861 2.381785 0
M  V30 13 C 0.320316 3.191926 2.691909 0
M  V30 14 O 0.415068 3.836743 3.766430 0
M  V30 15 C -0.822182 3.667057 1.870118 0
M  V30 16 N -0.881973 2.900741 0.667637 0
M  V30 17 C -1.617277 1.686281 0.490615 0
M  V30 18 O -2.308659 1.121661 1.369063 0
M  V30 19 C -1.442601 1.198418 -0.872545 0
M  V30 20 C -1.881640 0.125353 -1.620384 0
M  V30 21 C -1.539220 -0.081165 -2.946519 0
M  V30 22 C -2.054308 -1.246320 -3.655583 0
M  V30 23 N -2.074354 -2.490469 -3.161278 0
M  V30 24 C -2.553823 -3.559201 -3.822056 0
M  V30 25 N -2.567383 -4.853637 -3.287152 0
M  V30 26 C -2.069317 -5.169091 -1.983329 0
M  V30 27 C -0.617779 -4.841720 -1.887683 0
M  V30 28 C -0.128629 -4.721264 -0.463788 0
M  V30 29 O -1.111922 -5.127568 0.459252 0
M  V30 30 C -2.141559 -4.190472 0.341457 0
M  V30 31 C -2.900769 -4.488254 -0.917313 0
M  V30 32 N -3.028596 -3.293842 -5.052463 0
M  V30 33 C -3.043526 -2.089661 -5.611455 0
M  V30 34 C -2.552025 -1.018236 -4.923287 0
M  V30 35 Cl -2.619390 0.527876 -5.746692 0
M  V30 36 C -0.709135 0.878832 -3.487449 0
M  V30 37 C -0.250548 1.964536 -2.770372 0
M  V30 38 C -0.612714 2.134095 -1.457800 0
M  V30 39 C -0.200716 3.242483 -0.566556 0 CFG=1
M  V30 40 C -0.768370 4.571887 -1.058910 0
M  V30 41 C 1.821656 -0.599281 2.831414 0
M  V30 42 H 1.253657 -4.949787 2.072737 0
M  V30 43 H 2.118199 -4.494880 3.538711 0
M  V30 44 H 0.336224 -4.313774 3.562995 0
M  V30 45 H 1.682428 -3.176355 5.028160 0
M  V30 46 H 2.448698 0.903836 5.752308 0
M  V30 47 H 2.239851 2.474671 4.209834 0
M  V30 48 H 3.789684 3.123860 2.597725 0
M  V30 49 H 3.855914 1.539496 1.780689 0
M  V30 50 H 5.240641 2.365584 3.932721 0
M  V30 51 H 1.081734 1.674783 1.473647 0
M  V30 52 H -1.718970 3.562479 2.514077 0
M  V30 53 H -0.689544 4.753651 1.710162 0
M  V30 54 H -2.522486 -0.563173 -1.105425 0
M  V30 55 H -2.964237 -5.631346 -3.875884 0
M  V30 56 H -2.163230 -6.261240 -1.771327 0
M  V30 57 H -0.045837 -5.719680 -2.311611 0
M  V30 58 H -0.357965 -4.003808 -2.536952 0
M  V30 59 H 0.070251 -3.648148 -0.270330 0
M  V30 60 H 0.814045 -5.281855 -0.271935 0
M  V30 61 H -1.681336 -3.187429 0.227753 0
M  V30 62 H -2.833601 -4.225744 1.207218 0
M  V30 63 H -3.346209 -3.532347 -1.319948 0
M  V30 64 H -3.780685 -5.109913 -0.647256 0
M  V30 65 H -3.472416 -2.079710 -6.623104 0
M  V30 66 H -0.411423 0.765585 -4.513597 0
M  V30 67 H 0.406567 2.668636 -3.300493 0
M  V30 68 H 0.893383 3.325503 -0.433249 0
M  V30 69 H -1.456718 5.015064 -0.338497 0
M  V30 70 H 0.070592 5.306495 -1.181558 0
M  V30 71 H -1.239154 4.452711 -2.046864 0
M  V30 72 H 1.729497 -0.338649 1.795203 0
M  V30 END ATOM
M  V30 BEGIN BOND
M  V30 1 1 1 2
M  V30 2 1 2 3
M  V30 3 2 3 4
M  V30 4 1 4 5
M  V30 5 1 5 6
M  V30 6 2 5 7
M  V30 7 1 7 8
M  V30 8 1 8 9
M  V30 9 1 9 10
M  V30 10 1 10 11
M  V30 11 1 9 12
M  V30 12 1 12 13
M  V30 13 2 13 14
M  V30 14 1 13 15
M  V30 15 1 15 16
M  V30 16 1 16 17
M  V30 17 2 17 18
M  V30 18 1 17 19
M  V30 19 2 19 20
M  V30 20 1 20 21
M  V30 21 1 21 22
M  V30 22 2 22 23
M  V30 23 1 23 24
M  V30 24 1 24 25
M  V30 25 1 25 26
M  V30 26 1 26 27
M  V30 27 1 27 28
M  V30 28 1 28 29
M  V30 29 1 29 30
M  V30 30 1 30 31
M  V30 31 2 24 32
M  V30 32 1 32 33
M  V30 33 2 33 34
M  V30 34 1 34 35
M  V30 35 2 21 36
M  V30 36 1 36 37
M  V30 37 2 37 38
M  V30 38 1 38 39
M  V30 39 1 39 40
M  V30 40 2 8 41
M  V30 41 1 41 3
M  V30 42 1 39 16
M  V30 43 1 38 19
M  V30 44 1 34 22
M  V30 45 1 31 26
M  V30 46 1 1 42
M  V30 47 1 1 43
M  V30 48 1 1 44
M  V30 49 1 4 45
M  V30 50 1 7 46
M  V30 51 1 9 47 CFG=1
M  V30 52 1 10 48
M  V30 53 1 10 49
M  V30 54 1 11 50
M  V30 55 1 12 51
M  V30 56 1 15 52
M  V30 57 1 15 53
M  V30 58 1 20 54
M  V30 59 1 25 55
M  V30 60 1 26 56
M  V30 61 1 27 57
M  V30 62 1 27 58
M  V30 63 1 28 59
M  V30 64 1 28 60
M  V30 65 1 30 61
M  V30 66 1 30 62
M  V30 67 1 31 63
M  V30 68 1 31 64
M  V30 69 1 33 65
M  V30 70 1 36 66
M  V30 71 1 37 67
M  V30 72 1 39 68 CFG=1
M  V30 73 1 40 69
M  V30 74 1 40 70
M  V30 75 1 40 71
M  V30 76 1 41 72
M  V30 END BOND
M  V30 END CTAB
M  END
>  <Dataset>  (412) 
ChEMBL_Kinases

>  <Ligand_Instance>  (412) 
nan

>  <PDB_ID>  (412) 
nan

>  <Standardized_SMILES>  (412) 
COc1cc(F)cc([C@@H](CO)NC(=O)CN2C(=O)c3cc(-c4nc(NC5CCOCC5)ncc4Cl)ccc3[C@H]2C)c1

>  <Name>  (412) 
nan

>  <Pocket>  (412) 
nan

>  <ATP_Site>  (412) 
nan

>  <Peripheral>  (412) 
nan

>  <Num_H_Atoms_ProtBoundConf>  (412) 
nan

>  <Num_Resolved_Atoms>  (412) 
nan

>  <Num_Not_Resolved_Atoms>  (412) 
nan

$$$$
CHEMBL4870780
     RDKit          3D

  0  0  0  0  0  0  0  0  0  0999 V3000
M  V30 BEGIN CTAB
M  V30 COUNTS 60 62 0 0 0
M  V30 BEGIN ATOM
M  V30 1 C 4.449770 -4.507381 3.959954 0
M  V30 2 C 4.921428 -3.082757 3.928550 0
M  V30 3 C 5.133511 -2.382115 5.097422 0
M  V30 4 C 5.569058 -1.066672 5.075508 0
M  V30 5 C 5.799451 -0.431616 3.873072 0
M  V30 6 C 5.591299 -1.120713 2.698067 0
M  V30 7 C 5.780593 -0.620485 1.296395 0 CFG=1
M  V30 8 O 6.463287 -1.602976 0.541147 0
M  V30 9 C 4.431130 -0.502573 0.686972 0
M  V30 10 O 4.199529 -1.248348 -0.295852 0
M  V30 11 N 3.418995 0.371203 1.130164 0
M  V30 12 C 2.113688 0.575294 0.644080 0
M  V30 13 C 1.309541 1.504496 1.260892 0
M  V30 14 C 0.022533 1.752768 0.836073 0
M  V30 15 C -0.531178 1.081391 -0.233587 0
M  V30 16 C -1.901525 1.401476 -0.616269 0
M  V30 17 C -2.209125 2.743513 -0.699894 0
M  V30 18 N -3.440318 3.196629 -1.040651 0
M  V30 19 C -4.449980 2.322991 -1.321621 0
M  V30 20 N -5.720010 2.863205 -1.673067 0
M  V30 21 C -4.173963 0.970983 -1.246711 0
M  V30 22 C -5.243276 0.032905 -1.543720 0
M  V30 23 O -6.360440 0.504003 -1.852272 0
M  V30 24 N -5.113288 -1.361630 -1.509471 0
M  V30 25 C -6.145182 -2.339396 -1.796050 0
M  V30 26 C -6.330333 -3.199813 -0.539347 0
M  V30 27 C -5.655700 -3.279642 -2.886118 0
M  V30 28 C -2.921380 0.517436 -0.900001 0
M  V30 29 C 0.244757 0.141337 -0.878463 0
M  V30 30 C -0.309712 -0.604559 -2.038634 0
M  V30 31 C 1.525163 -0.070814 -0.416043 0
M  V30 32 C 5.153137 -2.443711 2.726083 0
M  V30 33 H 4.409330 -4.826386 5.021006 0
M  V30 34 H 3.419821 -4.589926 3.550058 0
M  V30 35 H 5.184831 -5.090226 3.380405 0
M  V30 36 H 4.961026 -2.855037 6.059811 0
M  V30 37 H 5.745548 -0.488403 5.953744 0
M  V30 38 H 6.138031 0.585201 3.737352 0
M  V30 39 H 6.355035 0.303663 1.248328 0
M  V30 40 H 6.771716 -2.324935 1.158044 0
M  V30 41 H 3.747944 0.928674 1.950551 0
M  V30 42 H 1.699776 2.057245 2.105364 0
M  V30 43 H -0.539535 2.496985 1.374943 0
M  V30 44 H -1.513286 3.562863 -0.506039 0
M  V30 45 H -5.808418 3.072206 -2.675643 0
M  V30 46 H -6.456158 3.013778 -0.950457 0
M  V30 47 H -4.198991 -1.791933 -1.257063 0
M  V30 48 H -7.095211 -1.843015 -2.054765 0
M  V30 49 H -7.323830 -3.681783 -0.534422 0
M  V30 50 H -5.575632 -4.011291 -0.484603 0
M  V30 51 H -6.165077 -2.564676 0.365290 0
M  V30 52 H -6.028231 -4.302682 -2.738455 0
M  V30 53 H -4.545394 -3.314829 -2.911702 0
M  V30 54 H -5.975660 -2.934786 -3.890587 0
M  V30 55 H -2.664985 -0.527539 -0.828184 0
M  V30 56 H 0.507059 -0.894203 -2.757544 0
M  V30 57 H -0.677417 -1.576398 -1.650366 0
M  V30 58 H -1.078892 0.012458 -2.536866 0
M  V30 59 H 2.076812 -0.816315 -0.962286 0
M  V30 60 H 4.965004 -3.058101 1.832348 0
M  V30 END ATOM
M  V30 BEGIN BOND
M  V30 1 1 1 2
M  V30 2 2 2 3
M  V30 3 1 3 4
M  V30 4 2 4 5
M  V30 5 1 5 6
M  V30 6 1 6 7
M  V30 7 1 7 8
M  V30 8 1 7 9
M  V30 9 2 9 10
M  V30 10 1 9 11
M  V30 11 1 11 12
M  V30 12 2 12 13
M  V30 13 1 13 14
M  V30 14 2 14 15
M  V30 15 1 15 16
M  V30 16 2 16 17
M  V30 17 1 17 18
M  V30 18 2 18 19
M  V30 19 1 19 20
M  V30 20 1 19 21
M  V30 21 1 21 22
M  V30 22 2 22 23
M  V30 23 1 22 24
M  V30 24 1 24 25
M  V30 25 1 25 26
M  V30 26 1 25 27
M  V30 27 2 21 28
M  V30 28 1 15 29
M  V30 29 1 29 30
M  V30 30 2 29 31
M  V30 31 2 6 32
M  V30 32 1 32 2
M  V30 33 1 31 12
M  V30 34 1 28 16
M  V30 35 1 1 33
M  V30 36 1 1 34
M  V30 37 1 1 35
M  V30 38 1 3 36
M  V30 39 1 4 37
M  V30 40 1 5 38
M  V30 41 1 7 39 CFG=1
M  V30 42 1 8 40
M  V30 43 1 11 41
M  V30 44 1 13 42
M  V30 45 1 14 43
M  V30 46 1 17 44
M  V30 47 1 20 45
M  V30 48 1 20 46
M  V30 49 1 24 47
M  V30 50 1 25 48
M  V30 51 1 26 49
M  V30 52 1 26 50
M  V30 53 1 26 51
M  V30 54 1 27 52
M  V30 55 1 27 53
M  V30 56 1 27 54
M  V30 57 1 28 55
M  V30 58 1 30 56
M  V30 59 1 30 57
M  V30 60 1 30 58
M  V30 61 1 31 59
M  V30 62 1 32 60
M  V30 END BOND
M  V30 END CTAB
M  END
>  <Dataset>  (413) 
ChEMBL_Kinases

>  <Ligand_Instance>  (413) 
nan

>  <PDB_ID>  (413) 
nan

>  <Standardized_SMILES>  (413) 
Cc1cccc([C@@H](O)C(=O)Nc2ccc(-c3cnc(N)c(C(=O)NC(C)C)c3)c(C)c2)c1

>  <Name>  (413) 
nan

>  <Pocket>  (413) 
nan

>  <ATP_Site>  (413) 
nan

>  <Peripheral>  (413) 
nan

>  <Num_H_Atoms_ProtBoundConf>  (413) 
nan

>  <Num_Resolved_Atoms>  (413) 
nan

>  <Num_Not_Resolved_Atoms>  (413) 
nan

$$$$
CHEMBL3950903
     RDKit          3D

  0  0  0  0  0  0  0  0  0  0999 V3000
M  V30 BEGIN CTAB
M  V30 COUNTS 80 84 0 0 0
M  V30 BEGIN ATOM
M  V30 1 C 3.719530 -3.389461 3.057588 0
M  V30 2 C 5.050585 -3.064201 2.370962 0
M  V30 3 S 5.094434 -1.308785 2.129342 0
M  V30 4 O 6.442725 -0.819728 1.665900 0
M  V30 5 O 4.921550 -0.686438 3.511436 0
M  V30 6 C 3.787546 -0.734225 1.131427 0
M  V30 7 C 2.861654 0.163157 1.615772 0
M  V30 8 C 1.856813 0.568317 0.773207 0
M  V30 9 N 0.920538 1.496459 1.295108 0
M  V30 10 C -0.250055 2.093981 0.757179 0
M  V30 11 N -0.323291 3.218859 0.020680 0
M  V30 12 C -1.529427 3.635176 -0.399356 0
M  V30 13 C -2.665281 2.921620 -0.079711 0
M  V30 14 F -3.860510 3.356801 -0.504808 0
M  V30 15 C -2.610452 1.767129 0.673632 0
M  V30 16 N -3.744371 0.968507 1.044972 0
M  V30 17 C -3.572847 -0.195841 1.907942 0
M  V30 18 C -2.627387 -1.192835 1.336216 0
M  V30 19 C -1.344160 -1.447023 1.743103 0
M  V30 20 C -0.581779 -2.411339 1.119037 0
M  V30 21 C -1.072348 -3.156583 0.067088 0
M  V30 22 C -2.355846 -2.932280 -0.371311 0
M  V30 23 C -3.097401 -1.951490 0.281172 0
M  V30 24 F -4.364588 -1.792098 -0.216657 0
M  V30 25 C -5.054332 1.291147 0.594088 0
M  V30 26 C -5.418195 1.180997 -0.751987 0
M  V30 27 C -6.716377 1.489157 -1.154175 0
M  V30 28 C -7.124224 1.368267 -2.598503 0
M  V30 29 O -7.620633 0.081385 -2.848084 0
M  V30 30 C -7.680974 1.906928 -0.270844 0
M  V30 31 C -7.256787 1.993738 1.035701 0
M  V30 32 C -5.994069 1.712072 1.541509 0
M  V30 33 C -5.678138 1.857374 2.984853 0
M  V30 34 N -1.371994 1.417779 1.054231 0
M  V30 35 C 1.740348 0.119951 -0.515774 0
M  V30 36 C 2.701384 -0.787235 -0.960938 0
M  V30 37 C 3.752891 -1.239715 -0.148570 0
M  V30 38 N 4.615094 -2.152407 -0.786449 0
M  V30 39 C 6.049471 -2.119646 -1.047189 0
M  V30 40 C 6.349605 -2.830239 -2.350787 0
M  V30 41 N 5.265348 -2.747506 -3.305162 0
M  V30 42 C 5.127677 -1.407457 -3.783893 0
M  V30 43 C 4.063518 -3.362156 -2.825356 0
M  V30 44 C 3.991711 -3.379235 -1.310204 0
M  V30 45 H 3.362486 -4.404256 2.803205 0
M  V30 46 H 2.991236 -2.583051 2.850675 0
M  V30 47 H 3.913976 -3.310786 4.166637 0
M  V30 48 H 5.898820 -3.409069 2.994099 0
M  V30 49 H 5.022071 -3.546610 1.378045 0
M  V30 50 H 2.989182 0.498892 2.652927 0
M  V30 51 H 0.977379 1.906965 2.251149 0
M  V30 52 H -1.643941 4.522044 -0.987319 0
M  V30 53 H -4.551481 -0.702368 2.008114 0
M  V30 54 H -3.168923 0.099449 2.892446 0
M  V30 55 H -0.971739 -0.866315 2.566662 0
M  V30 56 H 0.436405 -2.602426 1.452545 0
M  V30 57 H -0.468672 -3.905563 -0.411709 0
M  V30 58 H -2.754218 -3.507755 -1.194488 0
M  V30 59 H -4.669166 0.849454 -1.482864 0
M  V30 60 H -7.851521 2.146108 -2.874172 0
M  V30 61 H -6.212133 1.452417 -3.220380 0
M  V30 62 H -7.693263 -0.382064 -1.974842 0
M  V30 63 H -8.699803 2.158955 -0.525131 0
M  V30 64 H -7.996792 2.323426 1.774538 0
M  V30 65 H -6.606425 2.267734 3.471520 0
M  V30 66 H -5.468773 0.917094 3.499734 0
M  V30 67 H -4.912514 2.641038 3.162123 0
M  V30 68 H 0.934872 0.463260 -1.145102 0
M  V30 69 H 2.536851 -1.095383 -2.004221 0
M  V30 70 H 6.535844 -2.743374 -0.271310 0
M  V30 71 H 6.460519 -1.089200 -1.066546 0
M  V30 72 H 6.506905 -3.929785 -2.177125 0
M  V30 73 H 7.259665 -2.421488 -2.836103 0
M  V30 74 H 6.181082 -1.037398 -3.959065 0
M  V30 75 H 4.655627 -0.695689 -3.099223 0
M  V30 76 H 4.652081 -1.361140 -4.802893 0
M  V30 77 H 4.127116 -4.447031 -3.142229 0
M  V30 78 H 3.150703 -2.996308 -3.313591 0
M  V30 79 H 4.523504 -4.285283 -0.931271 0
M  V30 80 H 2.927500 -3.453919 -1.023415 0
M  V30 END ATOM
M  V30 BEGIN BOND
M  V30 1 1 1 2
M  V30 2 1 2 3
M  V30 3 2 3 4
M  V30 4 2 3 5
M  V30 5 1 3 6
M  V30 6 2 6 7
M  V30 7 1 7 8
M  V30 8 1 8 9
M  V30 9 1 9 10
M  V30 10 2 10 11
M  V30 11 1 11 12
M  V30 12 2 12 13
M  V30 13 1 13 14
M  V30 14 1 13 15
M  V30 15 1 15 16
M  V30 16 1 16 17
M  V30 17 1 17 18
M  V30 18 2 18 19
M  V30 19 1 19 20
M  V30 20 2 20 21
M  V30 21 1 21 22
M  V30 22 2 22 23
M  V30 23 1 23 24
M  V30 24 1 16 25
M  V30 25 2 25 26
M  V30 26 1 26 27
M  V30 27 1 27 28
M  V30 28 1 28 29
M  V30 29 2 27 30
M  V30 30 1 30 31
M  V30 31 2 31 32
M  V30 32 1 32 33
M  V30 33 2 15 34
M  V30 34 2 8 35
M  V30 35 1 35 36
M  V30 36 2 36 37
M  V30 37 1 37 38
M  V30 38 1 38 39
M  V30 39 1 39 40
M  V30 40 1 40 41
M  V30 41 1 41 42
M  V30 42 1 41 43
M  V30 43 1 43 44
M  V30 44 1 37 6
M  V30 45 1 44 38
M  V30 46 1 34 10
M  V30 47 1 23 18
M  V30 48 1 32 25
M  V30 49 1 1 45
M  V30 50 1 1 46
M  V30 51 1 1 47
M  V30 52 1 2 48
M  V30 53 1 2 49
M  V30 54 1 7 50
M  V30 55 1 9 51
M  V30 56 1 12 52
M  V30 57 1 17 53
M  V30 58 1 17 54
M  V30 59 1 19 55
M  V30 60 1 20 56
M  V30 61 1 21 57
M  V30 62 1 22 58
M  V30 63 1 26 59
M  V30 64 1 28 60
M  V30 65 1 28 61
M  V30 66 1 29 62
M  V30 67 1 30 63
M  V30 68 1 31 64
M  V30 69 1 33 65
M  V30 70 1 33 66
M  V30 71 1 33 67
M  V30 72 1 35 68
M  V30 73 1 36 69
M  V30 74 1 39 70
M  V30 75 1 39 71
M  V30 76 1 40 72
M  V30 77 1 40 73
M  V30 78 1 42 74
M  V30 79 1 42 75
M  V30 80 1 42 76
M  V30 81 1 43 77
M  V30 82 1 43 78
M  V30 83 1 44 79
M  V30 84 1 44 80
M  V30 END BOND
M  V30 END CTAB
M  END
>  <Dataset>  (414) 
ChEMBL_Kinases

>  <Ligand_Instance>  (414) 
nan

>  <PDB_ID>  (414) 
nan

>  <Standardized_SMILES>  (414) 
CCS(=O)(=O)c1cc(Nc2ncc(F)c(N(Cc3ccccc3F)c3cc(CO)ccc3C)n2)ccc1N1CCN(C)CC1

>  <Name>  (414) 
nan

>  <Pocket>  (414) 
nan

>  <ATP_Site>  (414) 
nan

>  <Peripheral>  (414) 
nan

>  <Num_H_Atoms_ProtBoundConf>  (414) 
nan

>  <Num_Resolved_Atoms>  (414) 
nan

>  <Num_Not_Resolved_Atoms>  (414) 
nan

$$$$
CHEMBL3702134
     RDKit          3D

  0  0  0  0  0  0  0  0  0  0999 V3000
M  V30 BEGIN CTAB
M  V30 COUNTS 66 72 0 0 0
M  V30 BEGIN ATOM
M  V30 1 C 2.261804 -6.377068 4.057601 0
M  V30 2 C 2.974819 -5.225274 3.842666 0
M  V30 3 C 2.340322 -4.027656 3.579004 0
M  V30 4 C 2.776430 -2.745038 3.326788 0
M  V30 5 C 4.024927 -2.176981 3.241207 0
M  V30 6 N 4.167456 -0.845929 2.968393 0
M  V30 7 C 3.053236 -0.109033 2.786415 0
M  V30 8 N 2.722789 1.257463 2.475619 0
M  V30 9 C 2.176680 1.489044 1.156509 0
M  V30 10 C 1.766286 2.731898 0.727161 0
M  V30 11 C 1.236332 2.892299 -0.541332 0
M  V30 12 C 1.108180 1.827471 -1.393406 0
M  V30 13 N 0.554584 1.872864 -2.697531 0
M  V30 14 C -0.237704 2.949746 -3.278772 0
M  V30 15 C -1.573532 2.443462 -3.780095 0
M  V30 16 C -1.757560 0.968755 -3.657313 0
M  V30 17 C -2.260829 0.545911 -2.294731 0
M  V30 18 C -2.937133 -0.775816 -2.631472 0
M  V30 19 C -3.107910 -0.822939 -4.128294 0
M  V30 20 N -2.914901 0.596483 -4.490457 0
M  V30 21 C -0.572814 0.139666 -4.034715 0
M  V30 22 C 0.741370 0.781418 -3.632605 0
M  V30 23 N 1.521800 0.641111 -0.932384 0
M  V30 24 N 2.025937 0.475514 0.267969 0
M  V30 25 N 1.853835 -0.703237 2.879343 0
M  V30 26 C 1.627086 -2.008231 3.144357 0
M  V30 27 N 0.494249 -2.769792 3.268138 0
M  V30 28 C -0.847649 -2.218493 3.113082 0
M  V30 29 C -1.711379 -2.370145 4.322008 0
M  V30 30 C -2.777694 -1.295673 4.131425 0
M  V30 31 C -2.265382 -0.327114 3.111571 0
M  V30 32 C -0.793656 -0.707291 2.947857 0
M  V30 33 C 0.963327 -3.979851 3.529493 0
M  V30 34 C 0.267616 -5.149849 3.749000 0
M  V30 35 N 0.914703 -6.301142 4.003387 0
M  V30 36 H 2.695056 -7.364055 4.271635 0
M  V30 37 H 4.049776 -5.261854 3.881186 0
M  V30 38 H 4.912969 -2.754463 3.386213 0
M  V30 39 H 2.818537 2.132843 3.072028 0
M  V30 40 H 1.889520 3.527961 1.435774 0
M  V30 41 H 0.913514 3.867105 -0.882749 0
M  V30 42 H -0.371243 3.805983 -2.560623 0
M  V30 43 H 0.327544 3.337536 -4.148389 0
M  V30 44 H -2.375441 2.916960 -3.140251 0
M  V30 45 H -1.815048 2.787349 -4.806182 0
M  V30 46 H -2.982537 1.239250 -1.850078 0
M  V30 47 H -1.437962 0.334759 -1.610825 0
M  V30 48 H -3.952338 -0.854836 -2.198405 0
M  V30 49 H -2.362484 -1.650413 -2.304773 0
M  V30 50 H -2.288928 -1.381130 -4.634020 0
M  V30 51 H -4.095390 -1.166598 -4.468305 0
M  V30 52 H -3.756259 1.085182 -4.057390 0
M  V30 53 H -0.637296 -0.088748 -5.109345 0
M  V30 54 H -0.596262 -0.844607 -3.484484 0
M  V30 55 H 1.199320 1.234432 -4.546035 0
M  V30 56 H 1.463189 0.021597 -3.281823 0
M  V30 57 H -1.321291 -2.662593 2.203843 0
M  V30 58 H -1.137460 -2.088864 5.217400 0
M  V30 59 H -2.197124 -3.378918 4.416494 0
M  V30 60 H -2.938680 -0.739914 5.068703 0
M  V30 61 H -3.728471 -1.764260 3.799355 0
M  V30 62 H -2.275050 0.732961 3.450192 0
M  V30 63 H -2.799286 -0.395445 2.133613 0
M  V30 64 H -0.394057 -0.397850 1.977522 0
M  V30 65 H -0.249483 -0.307322 3.832129 0
M  V30 66 H -0.816176 -5.172903 3.718946 0
M  V30 END ATOM
M  V30 BEGIN BOND
M  V30 1 2 1 2
M  V30 2 1 2 3
M  V30 3 1 3 4
M  V30 4 2 4 5
M  V30 5 1 5 6
M  V30 6 2 6 7
M  V30 7 1 7 8
M  V30 8 1 8 9
M  V30 9 2 9 10
M  V30 10 1 10 11
M  V30 11 2 11 12
M  V30 12 1 12 13
M  V30 13 1 13 14
M  V30 14 1 14 15
M  V30 15 1 15 16
M  V30 16 1 16 17
M  V30 17 1 17 18
M  V30 18 1 18 19
M  V30 19 1 19 20
M  V30 20 1 16 21
M  V30 21 1 21 22
M  V30 22 1 12 23
M  V30 23 2 23 24
M  V30 24 1 7 25
M  V30 25 2 25 26
M  V30 26 1 26 27
M  V30 27 1 27 28
M  V30 28 1 28 29
M  V30 29 1 29 30
M  V30 30 1 30 31
M  V30 31 1 31 32
M  V30 32 1 27 33
M  V30 33 1 33 34
M  V30 34 2 34 35
M  V30 35 1 35 1
M  V30 36 2 33 3
M  V30 37 1 26 4
M  V30 38 1 32 28
M  V30 39 1 24 9
M  V30 40 1 22 13
M  V30 41 1 20 16
M  V30 42 1 1 36
M  V30 43 1 2 37
M  V30 44 1 5 38
M  V30 45 1 8 39
M  V30 46 1 10 40
M  V30 47 1 11 41
M  V30 48 1 14 42
M  V30 49 1 14 43
M  V30 50 1 15 44
M  V30 51 1 15 45
M  V30 52 1 17 46
M  V30 53 1 17 47
M  V30 54 1 18 48
M  V30 55 1 18 49
M  V30 56 1 19 50
M  V30 57 1 19 51
M  V30 58 1 20 52
M  V30 59 1 21 53
M  V30 60 1 21 54
M  V30 61 1 22 55
M  V30 62 1 22 56
M  V30 63 1 28 57
M  V30 64 1 29 58
M  V30 65 1 29 59
M  V30 66 1 30 60
M  V30 67 1 30 61
M  V30 68 1 31 62
M  V30 69 1 31 63
M  V30 70 1 32 64
M  V30 71 1 32 65
M  V30 72 1 34 66
M  V30 END BOND
M  V30 END CTAB
M  END
>  <Dataset>  (415) 
ChEMBL_Kinases

>  <Ligand_Instance>  (415) 
nan

>  <PDB_ID>  (415) 
nan

>  <Standardized_SMILES>  (415) 
c1cc2c3cnc(Nc4ccc(N5CCC6(CCCN6)CC5)nn4)nc3n(C3CCCC3)c2cn1

>  <Name>  (415) 
nan

>  <Pocket>  (415) 
nan

>  <ATP_Site>  (415) 
nan

>  <Peripheral>  (415) 
nan

>  <Num_H_Atoms_ProtBoundConf>  (415) 
nan

>  <Num_Resolved_Atoms>  (415) 
nan

>  <Num_Not_Resolved_Atoms>  (415) 
nan

$$$$
CHEMBL3950894
     RDKit          3D

  0  0  0  0  0  0  0  0  0  0999 V3000
M  V30 BEGIN CTAB
M  V30 COUNTS 65 70 0 0 0
M  V30 BEGIN ATOM
M  V30 1 O -2.030593 1.387691 3.217131 0
M  V30 2 C -1.155132 2.297792 3.352499 0
M  V30 3 N 0.241429 2.023638 3.117077 0
M  V30 4 C 0.556315 0.687219 2.725295 0
M  V30 5 N 0.545890 0.499067 1.387804 0
M  V30 6 C 0.850771 -0.777406 1.091120 0
M  V30 7 C 1.001880 -1.577903 -0.033792 0
M  V30 8 C 1.342818 -2.929296 0.087426 0
M  V30 9 C 1.450571 -3.577719 -1.231238 0
M  V30 10 O 1.536900 -4.959074 -1.155764 0
M  V30 11 C 2.674233 -3.073519 -1.918352 0
M  V30 12 C 3.939811 -3.230382 -1.398670 0
M  V30 13 C 5.040567 -2.739117 -2.087298 0
M  V30 14 C 4.802461 -2.092993 -3.305751 0
M  V30 15 C 3.510700 -1.947105 -3.810277 0
M  V30 16 C 2.424870 -2.439851 -3.116062 0
M  V30 17 C 0.979421 -2.503432 -3.265640 0
M  V30 18 O 0.452795 -1.983944 -4.307241 0
M  V30 19 N 0.391251 -3.183724 -2.136413 0
M  V30 20 C -1.046824 -3.364917 -2.062144 0
M  V30 21 C -1.493043 -4.623658 -2.692627 0
M  V30 22 C -1.812666 -4.572529 -4.055864 0
M  V30 23 C -2.243998 -5.656404 -4.790805 0
M  V30 24 C -2.368366 -6.872988 -4.136407 0
M  V30 25 C -2.061670 -6.956137 -2.795829 0
M  V30 26 C -1.631595 -5.856683 -2.081017 0
M  V30 27 C 1.531971 -3.474837 1.342532 0
M  V30 28 C 1.385279 -2.690793 2.468867 0
M  V30 29 C 1.050837 -1.370428 2.321187 0
M  V30 30 N 0.872375 -0.481800 3.315868 0
M  V30 31 O -1.470010 3.573288 3.722883 0
M  V30 32 C -2.794786 4.043080 4.002524 0
M  V30 33 C -3.171697 5.148590 3.017953 0
M  V30 34 C -2.044151 6.138336 2.901176 0
M  V30 35 C -1.646171 6.576935 4.280955 0
M  V30 36 C -2.645115 6.163931 5.327961 0
M  V30 37 C -2.870531 4.659695 5.365628 0
M  V30 38 H 1.027871 2.703868 3.204033 0
M  V30 39 H 0.828879 -1.040992 -0.964854 0
M  V30 40 H 1.977133 -5.269658 -2.002436 0
M  V30 41 H 4.208260 -3.709101 -0.479267 0
M  V30 42 H 6.071506 -2.811677 -1.764674 0
M  V30 43 H 5.657136 -1.705698 -3.850325 0
M  V30 44 H 3.314904 -1.449675 -4.750864 0
M  V30 45 H -1.573480 -2.531737 -2.541435 0
M  V30 46 H -1.296261 -3.319297 -0.980103 0
M  V30 47 H -1.730311 -3.628353 -4.618659 0
M  V30 48 H -2.475777 -5.554343 -5.840576 0
M  V30 49 H -2.703183 -7.699532 -4.723009 0
M  V30 50 H -2.155336 -7.906285 -2.271288 0
M  V30 51 H -1.381562 -5.881481 -1.032192 0
M  V30 52 H 1.791011 -4.521321 1.325655 0
M  V30 53 H 1.542238 -3.158641 3.431281 0
M  V30 54 H 0.916495 -0.480874 4.355406 0
M  V30 55 H -3.481640 3.203416 3.872093 0
M  V30 56 H -3.505758 4.740357 2.048807 0
M  V30 57 H -4.045023 5.673812 3.455109 0
M  V30 58 H -2.433258 7.029342 2.347520 0
M  V30 59 H -1.195490 5.700849 2.369240 0
M  V30 60 H -0.660925 6.143276 4.606292 0
M  V30 61 H -1.533693 7.669111 4.346693 0
M  V30 62 H -3.606183 6.713969 5.251106 0
M  V30 63 H -2.214296 6.478056 6.318517 0
M  V30 64 H -3.922554 4.534582 5.721649 0
M  V30 65 H -2.198565 4.207596 6.106380 0
M  V30 END ATOM
M  V30 BEGIN BOND
M  V30 1 2 1 2
M  V30 2 1 2 3
M  V30 3 1 3 4
M  V30 4 2 4 5
M  V30 5 1 5 6
M  V30 6 2 6 7
M  V30 7 1 7 8
M  V30 8 1 8 9
M  V30 9 1 9 10
M  V30 10 1 9 11
M  V30 11 2 11 12
M  V30 12 1 12 13
M  V30 13 2 13 14
M  V30 14 1 14 15
M  V30 15 2 15 16
M  V30 16 1 16 17
M  V30 17 2 17 18
M  V30 18 1 17 19
M  V30 19 1 19 20
M  V30 20 1 20 21
M  V30 21 2 21 22
M  V30 22 1 22 23
M  V30 23 2 23 24
M  V30 24 1 24 25
M  V30 25 2 25 26
M  V30 26 2 8 27
M  V30 27 1 27 28
M  V30 28 2 28 29
M  V30 29 1 29 30
M  V30 30 1 2 31
M  V30 31 1 31 32
M  V30 32 1 32 33
M  V30 33 1 33 34
M  V30 34 1 34 35
M  V30 35 1 35 36
M  V30 36 1 36 37
M  V30 37 1 30 4
M  V30 38 1 37 32
M  V30 39 1 29 6
M  V30 40 1 19 9
M  V30 41 1 26 21
M  V30 42 1 16 11
M  V30 43 1 3 38
M  V30 44 1 7 39
M  V30 45 1 10 40
M  V30 46 1 12 41
M  V30 47 1 13 42
M  V30 48 1 14 43
M  V30 49 1 15 44
M  V30 50 1 20 45
M  V30 51 1 20 46
M  V30 52 1 22 47
M  V30 53 1 23 48
M  V30 54 1 24 49
M  V30 55 1 25 50
M  V30 56 1 26 51
M  V30 57 1 27 52
M  V30 58 1 28 53
M  V30 59 1 30 54
M  V30 60 1 32 55
M  V30 61 1 33 56
M  V30 62 1 33 57
M  V30 63 1 34 58
M  V30 64 1 34 59
M  V30 65 1 35 60
M  V30 66 1 35 61
M  V30 67 1 36 62
M  V30 68 1 36 63
M  V30 69 1 37 64
M  V30 70 1 37 65
M  V30 END BOND
M  V30 END CTAB
M  END
>  <Dataset>  (416) 
ChEMBL_Kinases

>  <Ligand_Instance>  (416) 
nan

>  <PDB_ID>  (416) 
nan

>  <Standardized_SMILES>  (416) 
O=C(Nc1nc2cc(C3(O)c4ccccc4C(=O)N3Cc3ccccc3)ccc2[nH]1)OC1CCCCC1

>  <Name>  (416) 
nan

>  <Pocket>  (416) 
nan

>  <ATP_Site>  (416) 
nan

>  <Peripheral>  (416) 
nan

>  <Num_H_Atoms_ProtBoundConf>  (416) 
nan

>  <Num_Resolved_Atoms>  (416) 
nan

>  <Num_Not_Resolved_Atoms>  (416) 
nan

$$$$
CHEMBL3950880
     RDKit          3D

  0  0  0  0  0  0  0  0  0  0999 V3000
M  V30 BEGIN CTAB
M  V30 COUNTS 134 137 0 0 0
M  V30 BEGIN ATOM
M  V30 1 C 7.085635 -0.490397 3.412079 0
M  V30 2 C 6.317966 -0.081567 2.210826 0
M  V30 3 O 6.189937 -1.035400 1.361369 0
M  V30 4 N 5.812599 1.278530 2.115195 0
M  V30 5 C 6.126141 2.203616 3.240875 0
M  V30 6 C 6.875959 3.271410 2.428838 0
M  V30 7 C 6.114075 3.312657 1.102290 0
M  V30 8 C 5.060115 2.249123 1.363840 0 CFG=1
M  V30 9 C 4.342955 1.846037 0.186162 0
M  V30 10 O 3.690719 2.919546 -0.153941 0
M  V30 11 N 4.021709 0.849453 -0.755611 0
M  V30 12 C 3.099061 0.983854 -1.898610 0 CFG=1
M  V30 13 C 3.996970 0.879069 -3.118936 0
M  V30 14 C 3.246926 0.985242 -4.407027 0
M  V30 15 C 2.517615 2.282403 -4.560907 0
M  V30 16 C 4.282284 0.950104 -5.543730 0
M  V30 17 C 2.135303 -0.091439 -1.756794 0
M  V30 18 O 2.851564 -0.326829 -0.772860 0
M  V30 19 N 1.026303 -0.849911 -2.093972 0
M  V30 20 C 0.146520 -1.920574 -1.895723 0 CFG=1
M  V30 21 C 0.408745 -2.837231 -0.696395 0
M  V30 22 C 1.694734 -3.549307 -0.780343 0
M  V30 23 C 3.008410 -3.474608 -0.399093 0
M  V30 24 N 3.716757 -4.557877 -0.835690 0
M  V30 25 C 2.806064 -5.328956 -1.509014 0
M  V30 26 N 1.573995 -4.740905 -1.488523 0
M  V30 27 C 0.607553 -5.582763 -2.119335 0
M  V30 28 C 0.197524 -6.768604 -1.362022 0
M  V30 29 C -0.459697 -6.712024 -0.057187 0
M  V30 30 C 0.240936 -6.106428 1.108825 0
M  V30 31 C -0.661749 -6.241254 2.370632 0
M  V30 32 C 0.054605 -5.595766 3.503611 0
M  V30 33 O 0.286894 -4.216353 3.235651 0
M  V30 34 N -0.062472 -3.329732 4.206405 0
M  V30 35 C -0.068585 -2.053232 4.130027 0
M  V30 36 C -0.510517 -1.362868 5.371848 0
M  V30 37 C -0.865793 -2.102602 6.473931 0
M  V30 38 C -1.340923 -1.528592 7.615964 0
M  V30 39 Cl -1.775927 -2.516943 8.989693 0
M  V30 40 C -1.457679 -0.167654 7.637852 0
M  V30 41 C -1.096552 0.560608 6.525313 0
M  V30 42 C -0.605278 0.002286 5.340094 0
M  V30 43 O -0.253343 0.812357 4.257666 0
M  V30 44 C -0.444705 2.202420 4.402367 0
M  V30 45 C -0.016557 2.991481 3.243915 0
M  V30 46 C 1.315720 3.367108 3.325592 0
M  V30 47 C 1.889955 4.164358 2.325486 0
M  V30 48 C 1.043166 4.521836 1.300157 0
M  V30 49 C -0.294801 4.160790 1.190344 0
M  V30 50 N -0.733910 3.400358 2.203083 0
M  V30 51 C -1.266025 -1.511188 -1.861073 0
M  V30 52 O -2.001969 -2.456098 -1.530923 0
M  V30 53 N -1.740806 -0.184757 -2.165690 0
M  V30 54 C -3.114191 0.267984 -2.116326 0 CFG=1
M  V30 55 C -3.126300 1.668228 -1.598337 0
M  V30 56 O -2.383089 2.453135 -2.504411 0
M  V30 57 C -3.756424 0.166391 -3.481069 0
M  V30 58 O -3.693575 -0.162067 -4.689734 0
M  V30 59 N -5.085852 0.717067 -3.295253 0
M  V30 60 C -6.105540 0.821765 -4.350688 0 CFG=2
M  V30 61 C -6.243348 2.251430 -4.762880 0
M  V30 62 N -5.455659 3.273208 -4.124756 0
M  V30 63 O -6.812284 3.112581 -5.520145 0
M  V30 64 C -7.412836 0.279198 -3.843552 0 CFG=1
M  V30 65 C -8.507095 0.397256 -4.857129 0
M  V30 66 O -7.284526 -1.052506 -3.442573 0
M  V30 67 P -7.542532 -1.210054 -1.777470 0
M  V30 68 O -7.893109 0.120538 -1.143915 0
M  V30 69 O -6.095596 -1.739611 -1.083576 0
M  V30 70 O -8.765480 -2.288620 -1.398457 0
M  V30 71 H 6.494815 -0.212105 4.320482 0
M  V30 72 H 8.032802 0.123384 3.408379 0
M  V30 73 H 7.358737 -1.539888 3.389783 0
M  V30 74 H 6.754324 1.760070 4.001013 0
M  V30 75 H 5.158225 2.576084 3.595004 0
M  V30 76 H 6.901438 4.227494 2.948417 0
M  V30 77 H 7.908113 2.852690 2.276087 0
M  V30 78 H 6.813263 2.978022 0.302843 0
M  V30 79 H 5.714182 4.319516 0.973342 0
M  V30 80 H 4.350011 2.692238 2.114204 0
M  V30 81 H 4.602499 0.048770 -0.429619 0
M  V30 82 H 2.656502 1.996047 -1.809378 0
M  V30 83 H 4.677616 1.773765 -3.073567 0
M  V30 84 H 4.622958 -0.009112 -3.020031 0
M  V30 85 H 2.601586 0.098640 -4.573046 0
M  V30 86 H 3.219645 3.106906 -4.415499 0
M  V30 87 H 2.190007 2.350423 -5.632853 0
M  V30 88 H 1.603721 2.361562 -3.951668 0
M  V30 89 H 3.716919 1.104583 -6.473020 0
M  V30 90 H 4.693548 -0.074876 -5.518908 0
M  V30 91 H 5.049485 1.727024 -5.352268 0
M  V30 92 H 0.743466 -0.290460 -2.960948 0
M  V30 93 H 0.345913 -2.684125 -2.742619 0
M  V30 94 H -0.462642 -3.508138 -0.620400 0
M  V30 95 H 0.432766 -2.221662 0.245276 0
M  V30 96 H 3.344663 -2.647308 0.185836 0
M  V30 97 H 3.290778 -6.224914 -1.896098 0
M  V30 98 H -0.302651 -4.954972 -2.409708 0
M  V30 99 H 1.021912 -5.922155 -3.113364 0
M  V30 100 H 1.096898 -7.470446 -1.231038 0
M  V30 101 H -0.475256 -7.442099 -2.024391 0
M  V30 102 H -1.443503 -6.139663 -0.201887 0
M  V30 103 H -0.854111 -7.751291 0.222604 0
M  V30 104 H 1.191538 -6.635942 1.345741 0
M  V30 105 H 0.365258 -5.012401 1.046958 0
M  V30 106 H -0.791503 -7.322461 2.566438 0
M  V30 107 H -1.587906 -5.713621 2.128089 0
M  V30 108 H 1.038453 -6.092759 3.648061 0
M  V30 109 H -0.531747 -5.709110 4.429126 0
M  V30 110 H 0.236530 -1.592210 3.221773 0
M  V30 111 H -0.779300 -3.192679 6.464653 0
M  V30 112 H -1.839161 0.325171 8.542347 0
M  V30 113 H -1.224933 1.633497 6.634986 0
M  V30 114 H 0.060662 2.511769 5.344057 0
M  V30 115 H -1.543979 2.325597 4.617412 0
M  V30 116 H 1.997250 3.089546 4.127845 0
M  V30 117 H 2.903288 4.485197 2.350026 0
M  V30 118 H 1.512818 5.135125 0.530523 0
M  V30 119 H -0.886176 4.477683 0.361788 0
M  V30 120 H -1.038600 0.529817 -2.455265 0
M  V30 121 H -3.678530 -0.473054 -1.511490 0
M  V30 122 H -2.568536 1.640980 -0.616526 0
M  V30 123 H -4.123684 2.098560 -1.432172 0
M  V30 124 H -1.445071 2.557074 -2.264867 0
M  V30 125 H -5.565935 1.130786 -2.439257 0
M  V30 126 H -5.744946 0.286406 -5.240014 0
M  V30 127 H -5.772991 3.454059 -3.159227 0
M  V30 128 H -4.631215 3.868311 -4.436269 0
M  V30 129 H -7.685274 0.862296 -2.939290 0
M  V30 130 H -8.659780 -0.542131 -5.434469 0
M  V30 131 H -9.461903 0.623975 -4.339031 0
M  V30 132 H -8.210785 1.157537 -5.600286 0
M  V30 133 H -5.867184 -1.249163 -0.250234 0
M  V30 134 H -9.625649 -2.054674 -1.805141 0
M  V30 END ATOM
M  V30 BEGIN BOND
M  V30 1 1 1 2
M  V30 2 2 2 3
M  V30 3 1 2 4
M  V30 4 1 4 5
M  V30 5 1 5 6
M  V30 6 1 6 7
M  V30 7 1 7 8
M  V30 8 1 8 9
M  V30 9 2 9 10
M  V30 10 1 9 11
M  V30 11 1 11 12
M  V30 12 1 12 13
M  V30 13 1 13 14
M  V30 14 1 14 15
M  V30 15 1 14 16
M  V30 16 1 12 17
M  V30 17 2 17 18
M  V30 18 1 17 19
M  V30 19 1 19 20
M  V30 20 1 20 21
M  V30 21 1 21 22
M  V30 22 2 22 23
M  V30 23 1 23 24
M  V30 24 2 24 25
M  V30 25 1 25 26
M  V30 26 1 26 27
M  V30 27 1 27 28
M  V30 28 1 28 29
M  V30 29 1 29 30
M  V30 30 1 30 31
M  V30 31 1 31 32
M  V30 32 1 32 33
M  V30 33 1 33 34
M  V30 34 2 34 35
M  V30 35 1 35 36
M  V30 36 2 36 37
M  V30 37 1 37 38
M  V30 38 1 38 39
M  V30 39 2 38 40
M  V30 40 1 40 41
M  V30 41 2 41 42
M  V30 42 1 42 43
M  V30 43 1 43 44
M  V30 44 1 44 45
M  V30 45 2 45 46
M  V30 46 1 46 47
M  V30 47 2 47 48
M  V30 48 1 48 49
M  V30 49 2 49 50
M  V30 50 1 20 51
M  V30 51 2 51 52
M  V30 52 1 51 53
M  V30 53 1 53 54
M  V30 54 1 54 55
M  V30 55 1 55 56
M  V30 56 1 54 57
M  V30 57 2 57 58
M  V30 58 1 57 59
M  V30 59 1 59 60
M  V30 60 1 60 61
M  V30 61 1 61 62
M  V30 62 2 61 63
M  V30 63 1 60 64
M  V30 64 1 64 65
M  V30 65 1 64 66
M  V30 66 1 66 67
M  V30 67 2 67 68
M  V30 68 1 67 69
M  V30 69 1 67 70
M  V30 70 1 8 4
M  V30 71 1 26 22
M  V30 72 1 42 36
M  V30 73 1 50 45
M  V30 74 1 1 71
M  V30 75 1 1 72
M  V30 76 1 1 73
M  V30 77 1 5 74
M  V30 78 1 5 75
M  V30 79 1 6 76
M  V30 80 1 6 77
M  V30 81 1 7 78
M  V30 82 1 7 79
M  V30 83 1 8 80 CFG=1
M  V30 84 1 11 81
M  V30 85 1 12 82 CFG=1
M  V30 86 1 13 83
M  V30 87 1 13 84
M  V30 88 1 14 85
M  V30 89 1 15 86
M  V30 90 1 15 87
M  V30 91 1 15 88
M  V30 92 1 16 89
M  V30 93 1 16 90
M  V30 94 1 16 91
M  V30 95 1 19 92
M  V30 96 1 20 93 CFG=3
M  V30 97 1 21 94
M  V30 98 1 21 95
M  V30 99 1 23 96
M  V30 100 1 25 97
M  V30 101 1 27 98
M  V30 102 1 27 99
M  V30 103 1 28 100
M  V30 104 1 28 101
M  V30 105 1 29 102
M  V30 106 1 29 103
M  V30 107 1 30 104
M  V30 108 1 30 105
M  V30 109 1 31 106
M  V30 110 1 31 107
M  V30 111 1 32 108
M  V30 112 1 32 109
M  V30 113 1 35 110
M  V30 114 1 37 111
M  V30 115 1 40 112
M  V30 116 1 41 113
M  V30 117 1 44 114
M  V30 118 1 44 115
M  V30 119 1 46 116
M  V30 120 1 47 117
M  V30 121 1 48 118
M  V30 122 1 49 119
M  V30 123 1 53 120
M  V30 124 1 54 121 CFG=1
M  V30 125 1 55 122
M  V30 126 1 55 123
M  V30 127 1 56 124
M  V30 128 1 59 125
M  V30 129 1 60 126 CFG=3
M  V30 130 1 62 127
M  V30 131 1 62 128
M  V30 132 1 64 129 CFG=1
M  V30 133 1 65 130
M  V30 134 1 65 131
M  V30 135 1 65 132
M  V30 136 1 69 133
M  V30 137 1 70 134
M  V30 END BOND
M  V30 END CTAB
M  END
>  <Dataset>  (417) 
ChEMBL_Kinases

>  <Ligand_Instance>  (417) 
nan

>  <PDB_ID>  (417) 
nan

>  <Standardized_SMILES>  (417) 
CC(=O)N1CCC[C@H]1C(=O)N[C@@H](CC(C)C)C(=O)N[C@@H](Cc1cncn1CCCCCCO/N=C/c1cc(Cl)ccc1OCc1ccccn1)C(=O)N[C@@H](CO)C(=O)N[C@H](C(N)=O)[C@@H](C)OP(=O)(O)O

>  <Name>  (417) 
nan

>  <Pocket>  (417) 
nan

>  <ATP_Site>  (417) 
nan

>  <Peripheral>  (417) 
nan

>  <Num_H_Atoms_ProtBoundConf>  (417) 
nan

>  <Num_Resolved_Atoms>  (417) 
nan

>  <Num_Not_Resolved_Atoms>  (417) 
nan

$$$$
CHEMBL4875364
     RDKit          3D

  0  0  0  0  0  0  0  0  0  0999 V3000
M  V30 BEGIN CTAB
M  V30 COUNTS 45 48 0 0 0
M  V30 BEGIN ATOM
M  V30 1 C 1.661630 -2.838650 0.041488 0
M  V30 2 C 3.122327 -2.913726 -0.263063 0 CFG=2
M  V30 3 N 3.999668 -2.262965 0.649284 0
M  V30 4 C 4.946137 -2.923427 1.418820 0
M  V30 5 N 5.686376 -2.167662 2.212216 0
M  V30 6 N 5.245620 -0.921832 1.993804 0
M  V30 7 C 4.252826 -0.987600 1.071284 0
M  V30 8 C 3.372267 0.014141 0.421818 0
M  V30 9 C 3.809862 0.877295 -0.557910 0
M  V30 10 C 2.949650 1.779259 -1.150351 0
M  V30 11 C 1.620666 1.842136 -0.773780 0
M  V30 12 C 1.193804 0.974646 0.208734 0
M  V30 13 N -0.090974 0.733149 0.827745 0
M  V30 14 C -0.856612 1.276210 1.907933 0
M  V30 15 O -0.229384 2.249945 2.453279 0
M  V30 16 C -2.133877 0.630331 2.149257 0
M  V30 17 C -1.900758 -0.505893 2.931047 0
M  V30 18 C -2.930668 -1.339310 3.334284 0
M  V30 19 C -4.227942 -1.056585 2.964927 0
M  V30 20 C -4.471098 0.065717 2.191616 0
M  V30 21 C -5.719266 0.472088 1.747278 0
M  V30 22 C -5.846310 1.625822 0.969141 0
M  V30 23 C -4.740332 2.404293 0.613451 0
M  V30 24 N -3.512533 2.012703 1.045768 0
M  V30 25 C -3.433439 0.878543 1.803477 0
M  V30 26 N 2.083026 0.119650 0.743659 0
M  V30 27 C 3.371366 -2.637711 -1.728050 0
M  V30 28 F 4.712387 -2.699026 -1.978708 0
M  V30 29 F 2.714729 -1.564577 -2.236358 0
M  V30 30 F 2.829852 -3.742893 -2.415061 0
M  V30 31 H 1.197790 -3.824621 -0.256131 0
M  V30 32 H 1.103687 -2.109906 -0.591025 0
M  V30 33 H 1.483401 -2.706676 1.127169 0
M  V30 34 H 3.358885 -4.024276 -0.182254 0
M  V30 35 H 5.162220 -3.991623 1.452233 0
M  V30 36 H 4.835417 0.848216 -0.867601 0
M  V30 37 H 3.219214 2.477428 -1.920082 0
M  V30 38 H 0.804569 2.462443 -1.111086 0
M  V30 39 H -0.485351 -0.072075 0.259822 0
M  V30 40 H -0.944706 -0.887742 3.317382 0
M  V30 41 H -2.822101 -2.232648 3.935941 0
M  V30 42 H -5.088169 -1.655125 3.234838 0
M  V30 43 H -6.575082 -0.137776 2.024624 0
M  V30 44 H -6.871620 1.831138 0.687402 0
M  V30 45 H -5.028320 3.256167 0.011887 0
M  V30 END ATOM
M  V30 BEGIN BOND
M  V30 1 1 1 2
M  V30 2 1 2 3
M  V30 3 1 3 4
M  V30 4 2 4 5
M  V30 5 1 5 6
M  V30 6 2 6 7
M  V30 7 1 7 8
M  V30 8 2 8 9
M  V30 9 1 9 10
M  V30 10 2 10 11
M  V30 11 1 11 12
M  V30 12 1 12 13
M  V30 13 1 13 14
M  V30 14 2 14 15
M  V30 15 1 14 16
M  V30 16 2 16 17
M  V30 17 1 17 18
M  V30 18 2 18 19
M  V30 19 1 19 20
M  V30 20 2 20 21
M  V30 21 1 21 22
M  V30 22 2 22 23
M  V30 23 1 23 24
M  V30 24 2 24 25
M  V30 25 2 12 26
M  V30 26 1 2 27
M  V30 27 1 27 28
M  V30 28 1 27 29
M  V30 29 1 27 30
M  V30 30 1 7 3
M  V30 31 1 26 8
M  V30 32 1 25 16
M  V30 33 1 25 20
M  V30 34 1 1 31
M  V30 35 1 1 32
M  V30 36 1 1 33
M  V30 37 1 2 34 CFG=3
M  V30 38 1 4 35
M  V30 39 1 9 36
M  V30 40 1 10 37
M  V30 41 1 11 38
M  V30 42 1 13 39
M  V30 43 1 17 40
M  V30 44 1 18 41
M  V30 45 1 19 42
M  V30 46 1 21 43
M  V30 47 1 22 44
M  V30 48 1 23 45
M  V30 END BOND
M  V30 END CTAB
M  END
>  <Dataset>  (418) 
ChEMBL_Kinases

>  <Ligand_Instance>  (418) 
nan

>  <PDB_ID>  (418) 
nan

>  <Standardized_SMILES>  (418) 
C[C@H](n1cnnc1-c1cccc(NC(=O)c2cccc3cccnc23)n1)C(F)(F)F

>  <Name>  (418) 
nan

>  <Pocket>  (418) 
nan

>  <ATP_Site>  (418) 
nan

>  <Peripheral>  (418) 
nan

>  <Num_H_Atoms_ProtBoundConf>  (418) 
nan

>  <Num_Resolved_Atoms>  (418) 
nan

>  <Num_Not_Resolved_Atoms>  (418) 
nan

$$$$
CHEMBL3950764
     RDKit          3D

  0  0  0  0  0  0  0  0  0  0999 V3000
M  V30 BEGIN CTAB
M  V30 COUNTS 49 53 0 0 0
M  V30 BEGIN ATOM
M  V30 1 C 7.231521 -3.268173 2.606612 0
M  V30 2 O 6.174462 -3.839160 3.373539 0
M  V30 3 C 4.855317 -3.742315 3.098311 0
M  V30 4 O 5.238684 -3.063062 2.100210 0
M  V30 5 N 3.457387 -3.737467 2.956844 0
M  V30 6 C 2.526566 -3.183906 2.046934 0
M  V30 7 N 1.988471 -1.966870 2.233377 0
M  V30 8 C 1.134861 -1.675161 1.228752 0
M  V30 9 C 0.313022 -0.600269 0.892809 0
M  V30 10 C -0.452889 -0.655557 -0.259311 0
M  V30 11 C -1.321307 0.437807 -0.643616 0
M  V30 12 O -2.035551 0.073032 -1.809901 0
M  V30 13 C -0.696280 1.722925 -0.903140 0
M  V30 14 C 0.358449 1.992614 -1.762829 0
M  V30 15 C 0.839987 3.295622 -1.895841 0
M  V30 16 C 0.297225 4.372990 -1.186190 0
M  V30 17 C -0.769253 4.077451 -0.321913 0
M  V30 18 C -1.236728 2.782904 -0.199200 0
M  V30 19 C -2.317129 2.183804 0.611576 0
M  V30 20 O -3.024088 2.882494 1.380811 0
M  V30 21 N -2.345455 0.781630 0.329250 0
M  V30 22 C -3.325785 -0.012106 1.016006 0
M  V30 23 C -4.527243 -0.112019 0.327640 0
M  V30 24 C -5.597871 -0.844028 0.841303 0
M  V30 25 Cl -7.134962 -1.022613 0.048804 0
M  V30 26 C -5.442885 -1.476235 2.061060 0
M  V30 27 F -6.426377 -2.217925 2.653921 0
M  V30 28 C -4.245205 -1.373911 2.742798 0
M  V30 29 Cl -3.993415 -2.149506 4.282906 0
M  V30 30 C -3.196598 -0.657169 2.239996 0
M  V30 31 C -0.351505 -1.802166 -1.023070 0
M  V30 32 C 0.439189 -2.903615 -0.753052 0
M  V30 33 C 1.193979 -2.799040 0.422386 0
M  V30 34 N 2.041642 -3.724508 0.915201 0
M  V30 35 H 7.234300 -3.650265 1.560207 0
M  V30 36 H 7.150887 -2.160607 2.639474 0
M  V30 37 H 8.172444 -3.537978 3.111343 0
M  V30 38 H 3.529076 -4.308916 3.825973 0
M  V30 39 H 0.300166 0.252349 1.551863 0
M  V30 40 H -2.254757 0.879625 -2.320307 0
M  V30 41 H 0.882032 1.262182 -2.378126 0
M  V30 42 H 1.663865 3.528857 -2.562112 0
M  V30 43 H 0.678176 5.364577 -1.299982 0
M  V30 44 H -1.221957 4.882517 0.249658 0
M  V30 45 H -4.748784 0.350815 -0.642893 0
M  V30 46 H -2.215367 -0.503614 2.674964 0
M  V30 47 H -0.950784 -1.841488 -1.922902 0
M  V30 48 H 0.438191 -3.749558 -1.425865 0
M  V30 49 H 2.285176 -4.652438 0.531321 0
M  V30 END ATOM
M  V30 BEGIN BOND
M  V30 1 1 1 2
M  V30 2 1 2 3
M  V30 3 2 3 4
M  V30 4 1 3 5
M  V30 5 1 5 6
M  V30 6 2 6 7
M  V30 7 1 7 8
M  V30 8 2 8 9
M  V30 9 1 9 10
M  V30 10 1 10 11
M  V30 11 1 11 12
M  V30 12 1 11 13
M  V30 13 2 13 14
M  V30 14 1 14 15
M  V30 15 2 15 16
M  V30 16 1 16 17
M  V30 17 2 17 18
M  V30 18 1 18 19
M  V30 19 2 19 20
M  V30 20 1 19 21
M  V30 21 1 21 22
M  V30 22 2 22 23
M  V30 23 1 23 24
M  V30 24 1 24 25
M  V30 25 2 24 26
M  V30 26 1 26 27
M  V30 27 1 26 28
M  V30 28 1 28 29
M  V30 29 2 28 30
M  V30 30 2 10 31
M  V30 31 1 31 32
M  V30 32 2 32 33
M  V30 33 1 33 34
M  V30 34 1 34 6
M  V30 35 1 33 8
M  V30 36 1 21 11
M  V30 37 1 30 22
M  V30 38 1 18 13
M  V30 39 1 1 35
M  V30 40 1 1 36
M  V30 41 1 1 37
M  V30 42 1 5 38
M  V30 43 1 9 39
M  V30 44 1 12 40
M  V30 45 1 14 41
M  V30 46 1 15 42
M  V30 47 1 16 43
M  V30 48 1 17 44
M  V30 49 1 23 45
M  V30 50 1 30 46
M  V30 51 1 31 47
M  V30 52 1 32 48
M  V30 53 1 34 49
M  V30 END BOND
M  V30 END CTAB
M  END
>  <Dataset>  (419) 
ChEMBL_Kinases

>  <Ligand_Instance>  (419) 
nan

>  <PDB_ID>  (419) 
nan

>  <Standardized_SMILES>  (419) 
COC(=O)Nc1nc2cc(C3(O)c4ccccc4C(=O)N3c3cc(Cl)c(F)c(Cl)c3)ccc2[nH]1

>  <Name>  (419) 
nan

>  <Pocket>  (419) 
nan

>  <ATP_Site>  (419) 
nan

>  <Peripheral>  (419) 
nan

>  <Num_H_Atoms_ProtBoundConf>  (419) 
nan

>  <Num_Resolved_Atoms>  (419) 
nan

>  <Num_Not_Resolved_Atoms>  (419) 
nan

$$$$
CHEMBL4875371
     RDKit          3D

  0  0  0  0  0  0  0  0  0  0999 V3000
M  V30 BEGIN CTAB
M  V30 COUNTS 45 47 0 0 0
M  V30 BEGIN ATOM
M  V30 1 N -0.557309 -7.489047 2.062446 0
M  V30 2 C -0.362732 -6.522975 1.437437 0
M  V30 3 C -0.122301 -5.346852 0.653368 0
M  V30 4 C 0.765781 -5.395992 -0.396389 0
M  V30 5 C 1.010639 -4.282160 -1.159260 0
M  V30 6 C 0.409710 -3.068466 -0.944550 0
M  V30 7 N 0.634503 -1.915266 -1.712884 0
M  V30 8 C 0.187505 -0.586615 -1.567776 0
M  V30 9 N 0.519040 0.321578 -2.501823 0
M  V30 10 C 0.125193 1.596730 -2.410896 0
M  V30 11 C -0.638091 2.011308 -1.344445 0
M  V30 12 C -1.063372 3.424176 -1.268053 0
M  V30 13 F -2.460679 3.476940 -1.269050 0
M  V30 14 F -0.613145 4.123601 -2.362003 0
M  V30 15 F -0.563527 4.068182 -0.140538 0
M  V30 16 C -0.992893 1.108557 -0.373911 0
M  V30 17 N -1.783219 1.544814 0.722310 0
M  V30 18 C -2.205004 0.665723 1.803938 0
M  V30 19 C -0.939235 0.192541 2.489895 0
M  V30 20 C -0.110896 1.288661 3.067964 0
M  V30 21 N 1.058645 0.718306 3.694731 0
M  V30 22 C 2.002986 0.158725 2.773488 0
M  V30 23 C 3.242376 -0.520186 3.238559 0
M  V30 24 C 3.329996 0.853820 2.712916 0
M  V30 25 N -0.555687 -0.127180 -0.553130 0
M  V30 26 C -0.477902 -3.071610 0.126493 0
M  V30 27 N -0.701784 -4.175065 0.859602 0
M  V30 28 H 1.302179 -6.313808 -0.657356 0
M  V30 29 H 1.719540 -4.359231 -1.982278 0
M  V30 30 H 1.261203 -2.119632 -2.549395 0
M  V30 31 H 0.454511 2.237367 -3.225954 0
M  V30 32 H -2.090913 2.530789 0.786016 0
M  V30 33 H -2.658304 -0.224533 1.316048 0
M  V30 34 H -2.904221 1.146846 2.484211 0
M  V30 35 H -0.318028 -0.402875 1.798598 0
M  V30 36 H -1.177715 -0.508113 3.332208 0
M  V30 37 H -0.694411 1.791327 3.869833 0
M  V30 38 H 0.215423 2.019878 2.285526 0
M  V30 39 H 1.479844 1.333686 4.408452 0
M  V30 40 H 1.656046 -0.158121 1.750136 0
M  V30 41 H 3.479221 -0.669904 4.301005 0
M  V30 42 H 3.698693 -1.295790 2.584813 0
M  V30 43 H 3.500612 1.693520 3.423703 0
M  V30 44 H 3.806302 1.078367 1.725437 0
M  V30 45 H -1.039747 -2.205026 0.430705 0
M  V30 END ATOM
M  V30 BEGIN BOND
M  V30 1 3 1 2
M  V30 2 1 2 3
M  V30 3 2 3 4
M  V30 4 1 4 5
M  V30 5 2 5 6
M  V30 6 1 6 7
M  V30 7 1 7 8
M  V30 8 2 8 9
M  V30 9 1 9 10
M  V30 10 2 10 11
M  V30 11 1 11 12
M  V30 12 1 12 13
M  V30 13 1 12 14
M  V30 14 1 12 15
M  V30 15 1 11 16
M  V30 16 1 16 17
M  V30 17 1 17 18
M  V30 18 1 18 19
M  V30 19 1 19 20
M  V30 20 1 20 21
M  V30 21 1 21 22
M  V30 22 1 22 23
M  V30 23 1 23 24
M  V30 24 2 16 25
M  V30 25 1 6 26
M  V30 26 2 26 27
M  V30 27 1 27 3
M  V30 28 1 25 8
M  V30 29 1 24 22
M  V30 30 1 4 28
M  V30 31 1 5 29
M  V30 32 1 7 30
M  V30 33 1 10 31
M  V30 34 1 17 32
M  V30 35 1 18 33
M  V30 36 1 18 34
M  V30 37 1 19 35
M  V30 38 1 19 36
M  V30 39 1 20 37
M  V30 40 1 20 38
M  V30 41 1 21 39
M  V30 42 1 22 40
M  V30 43 1 23 41
M  V30 44 1 23 42
M  V30 45 1 24 43
M  V30 46 1 24 44
M  V30 47 1 26 45
M  V30 END BOND
M  V30 END CTAB
M  END
>  <Dataset>  (420) 
ChEMBL_Kinases

>  <Ligand_Instance>  (420) 
nan

>  <PDB_ID>  (420) 
nan

>  <Standardized_SMILES>  (420) 
N#Cc1ccc(Nc2ncc(C(F)(F)F)c(NCCCNC3CC3)n2)cn1

>  <Name>  (420) 
nan

>  <Pocket>  (420) 
nan

>  <ATP_Site>  (420) 
nan

>  <Peripheral>  (420) 
nan

>  <Num_H_Atoms_ProtBoundConf>  (420) 
nan

>  <Num_Resolved_Atoms>  (420) 
nan

>  <Num_Not_Resolved_Atoms>  (420) 
nan

$$$$
CHEMBL3950656
     RDKit          3D

  0  0  0  0  0  0  0  0  0  0999 V3000
M  V30 BEGIN CTAB
M  V30 COUNTS 53 57 0 0 0
M  V30 BEGIN ATOM
M  V30 1 N -1.126968 -2.943488 -2.400103 0
M  V30 2 C -0.743349 -3.073443 -1.006933 0
M  V30 3 C 0.735280 -3.337221 -0.814463 0
M  V30 4 C 1.009976 -3.451095 0.645230 0
M  V30 5 C 1.298325 -2.161843 1.364585 0
M  V30 6 N 1.805271 -1.132138 0.528321 0
M  V30 7 C 1.816553 0.244721 0.675726 0
M  V30 8 C 2.973131 0.959392 0.446709 0
M  V30 9 C 3.142194 2.322032 0.522828 0
M  V30 10 N 4.339084 2.891194 0.266729 0
M  V30 11 C 4.492656 4.245724 0.339860 0
M  V30 12 C 3.359032 4.935247 0.685225 0
M  V30 13 C 2.101759 4.448299 0.964169 0
M  V30 14 C 2.008548 3.061344 0.871961 0
M  V30 15 C 0.810031 2.411541 1.117304 0
M  V30 16 C 0.747459 1.025755 1.012951 0
M  V30 17 N -0.506944 0.528734 1.312926 0
M  V30 18 C -1.795047 0.215582 0.820789 0
M  V30 19 O -1.983841 0.458535 -0.415230 0
M  V30 20 C -2.824343 -0.347731 1.685017 0
M  V30 21 C -3.248869 0.249944 2.874876 0
M  V30 22 N -4.208952 -0.511541 3.452757 0
M  V30 23 N -4.429644 -1.567321 2.705428 0
M  V30 24 C -5.254005 -2.638463 2.787264 0
M  V30 25 C -5.269079 -3.629024 1.822114 0
M  V30 26 C -4.415841 -3.520023 0.741952 0
M  V30 27 N -3.600910 -2.448081 0.673208 0
M  V30 28 C -3.611895 -1.503592 1.629308 0
M  V30 29 C 2.469716 -1.575107 -0.685885 0
M  V30 30 C 1.600882 -2.400170 -1.576428 0
M  V30 31 H -2.143836 -3.241285 -2.457543 0
M  V30 32 H -1.014435 -1.953156 -2.727853 0
M  V30 33 H -1.275121 -3.966963 -0.608818 0
M  V30 34 H -1.091729 -2.201681 -0.457315 0
M  V30 35 H 0.879768 -4.383270 -1.227225 0
M  V30 36 H 1.817997 -4.209363 0.814865 0
M  V30 37 H 0.097169 -3.965552 1.078509 0
M  V30 38 H 2.115178 -2.393027 2.123091 0
M  V30 39 H 0.434195 -1.938890 1.978782 0
M  V30 40 H 3.869731 0.377194 0.175640 0
M  V30 41 H 5.412802 4.746716 0.148448 0
M  V30 42 H 3.453753 6.029214 0.751484 0
M  V30 43 H 1.255084 5.060779 1.228166 0
M  V30 44 H -0.006966 3.060850 1.379724 0
M  V30 45 H -0.390747 0.309942 2.350204 0
M  V30 46 H -2.859865 1.184266 3.268500 0
M  V30 47 H -5.929184 -2.740069 3.622369 0
M  V30 48 H -5.921870 -4.472067 1.890915 0
M  V30 49 H -4.362323 -4.257971 -0.065887 0
M  V30 50 H 3.364762 -2.224210 -0.411421 0
M  V30 51 H 2.930531 -0.788761 -1.292527 0
M  V30 52 H 2.259820 -3.019976 -2.262288 0
M  V30 53 H 1.001139 -1.784464 -2.280414 0
M  V30 END ATOM
M  V30 BEGIN BOND
M  V30 1 1 1 2
M  V30 2 1 2 3
M  V30 3 1 3 4
M  V30 4 1 4 5
M  V30 5 1 5 6
M  V30 6 1 6 7
M  V30 7 2 7 8
M  V30 8 1 8 9
M  V30 9 2 9 10
M  V30 10 1 10 11
M  V30 11 2 11 12
M  V30 12 1 12 13
M  V30 13 2 13 14
M  V30 14 1 14 15
M  V30 15 2 15 16
M  V30 16 1 16 17
M  V30 17 1 17 18
M  V30 18 2 18 19
M  V30 19 1 18 20
M  V30 20 1 20 21
M  V30 21 2 21 22
M  V30 22 1 22 23
M  V30 23 1 23 24
M  V30 24 2 24 25
M  V30 25 1 25 26
M  V30 26 2 26 27
M  V30 27 1 27 28
M  V30 28 1 6 29
M  V30 29 1 29 30
M  V30 30 1 30 3
M  V30 31 1 16 7
M  V30 32 2 28 20
M  V30 33 1 14 9
M  V30 34 1 28 23
M  V30 35 1 1 31
M  V30 36 1 1 32
M  V30 37 1 2 33
M  V30 38 1 2 34
M  V30 39 1 3 35
M  V30 40 1 4 36
M  V30 41 1 4 37
M  V30 42 1 5 38
M  V30 43 1 5 39
M  V30 44 1 8 40
M  V30 45 1 11 41
M  V30 46 1 12 42
M  V30 47 1 13 43
M  V30 48 1 15 44
M  V30 49 1 17 45
M  V30 50 1 21 46
M  V30 51 1 24 47
M  V30 52 1 25 48
M  V30 53 1 26 49
M  V30 54 1 29 50
M  V30 55 1 29 51
M  V30 56 1 30 52
M  V30 57 1 30 53
M  V30 END BOND
M  V30 END CTAB
M  END
>  <Dataset>  (421) 
ChEMBL_Kinases

>  <Ligand_Instance>  (421) 
nan

>  <PDB_ID>  (421) 
nan

>  <Standardized_SMILES>  (421) 
NCC1CCN(c2cc3ncccc3cc2NC(=O)c2cnn3cccnc23)CC1

>  <Name>  (421) 
nan

>  <Pocket>  (421) 
nan

>  <ATP_Site>  (421) 
nan

>  <Peripheral>  (421) 
nan

>  <Num_H_Atoms_ProtBoundConf>  (421) 
nan

>  <Num_Resolved_Atoms>  (421) 
nan

>  <Num_Not_Resolved_Atoms>  (421) 
nan

$$$$
CHEMBL4875416
     RDKit          3D

  0  0  0  0  0  0  0  0  0  0999 V3000
M  V30 BEGIN CTAB
M  V30 COUNTS 47 50 0 0 0
M  V30 BEGIN ATOM
M  V30 1 N -2.795700 -5.936297 1.147032 0
M  V30 2 C -1.472584 -6.220996 1.587225 0
M  V30 3 O -1.237508 -7.354291 2.032189 0
M  V30 4 C -0.410981 -5.222953 1.524896 0
M  V30 5 C 0.849077 -5.568948 1.966906 0
M  V30 6 C 1.844655 -4.615783 1.903220 0
M  V30 7 C 1.595506 -3.353009 1.413732 0
M  V30 8 C 0.359030 -2.975046 0.966934 0
M  V30 9 C 0.146675 -1.699684 0.482981 0
M  V30 10 N 1.173990 -0.722219 0.418303 0
M  V30 11 C 0.779318 0.592679 -0.125248 0 CFG=2
M  V30 12 C 1.964954 1.476377 -0.142931 0
M  V30 13 N 1.832780 2.794229 -0.621252 0
M  V30 14 C 1.121796 3.792075 0.068451 0
M  V30 15 C 2.411518 4.307823 0.669256 0
M  V30 16 C 3.052951 3.549606 -0.466657 0
M  V30 17 C -0.430632 1.096940 0.509407 0
M  V30 18 C -1.528505 1.630084 -0.180606 0
M  V30 19 C -2.612817 2.065385 0.562417 0
M  V30 20 C -2.651197 1.994301 1.940894 0
M  V30 21 F -3.737453 2.433358 2.644416 0
M  V30 22 C -1.574145 1.469381 2.647917 0
M  V30 23 C -0.500477 1.039367 1.894409 0
M  V30 24 N -1.090982 -1.458151 0.082128 0
M  V30 25 C -2.071317 -2.376546 0.138025 0
M  V30 26 N -1.858459 -3.632199 0.615607 0
M  V30 27 C -0.613594 -3.948368 1.043519 0
M  V30 28 H -3.388041 -5.418120 1.838234 0
M  V30 29 H -2.889225 -6.328261 0.179647 0
M  V30 30 H 1.102544 -6.551196 2.363166 0
M  V30 31 H 2.828348 -4.888279 2.248640 0
M  V30 32 H 2.437292 -2.677387 1.403517 0
M  V30 33 H 2.163801 -0.844223 0.713782 0
M  V30 34 H 0.512456 0.388537 -1.203696 0
M  V30 35 H 2.722693 0.976653 -0.817894 0
M  V30 36 H 2.355798 1.528739 0.899218 0
M  V30 37 H 0.734466 4.561127 -0.661368 0
M  V30 38 H 0.334485 3.560580 0.777754 0
M  V30 39 H 2.524115 5.389947 0.648239 0
M  V30 40 H 2.640924 3.931276 1.682431 0
M  V30 41 H 3.261337 4.269606 -1.296784 0
M  V30 42 H 3.941571 2.955496 -0.156883 0
M  V30 43 H -1.474428 1.674742 -1.258975 0
M  V30 44 H -3.470724 2.480043 0.046060 0
M  V30 45 H -1.566009 1.396535 3.726001 0
M  V30 46 H 0.344357 0.626589 2.469290 0
M  V30 47 H -3.071576 -2.133790 -0.201954 0
M  V30 END ATOM
M  V30 BEGIN BOND
M  V30 1 1 1 2
M  V30 2 2 2 3
M  V30 3 1 2 4
M  V30 4 2 4 5
M  V30 5 1 5 6
M  V30 6 2 6 7
M  V30 7 1 7 8
M  V30 8 2 8 9
M  V30 9 1 9 10
M  V30 10 1 10 11
M  V30 11 1 11 12
M  V30 12 1 12 13
M  V30 13 1 13 14
M  V30 14 1 14 15
M  V30 15 1 15 16
M  V30 16 1 11 17
M  V30 17 2 17 18
M  V30 18 1 18 19
M  V30 19 2 19 20
M  V30 20 1 20 21
M  V30 21 1 20 22
M  V30 22 2 22 23
M  V30 23 1 9 24
M  V30 24 2 24 25
M  V30 25 1 25 26
M  V30 26 2 26 27
M  V30 27 1 27 4
M  V30 28 1 27 8
M  V30 29 1 16 13
M  V30 30 1 23 17
M  V30 31 1 1 28
M  V30 32 1 1 29
M  V30 33 1 5 30
M  V30 34 1 6 31
M  V30 35 1 7 32
M  V30 36 1 10 33
M  V30 37 1 11 34 CFG=3
M  V30 38 1 12 35
M  V30 39 1 12 36
M  V30 40 1 14 37
M  V30 41 1 14 38
M  V30 42 1 15 39
M  V30 43 1 15 40
M  V30 44 1 16 41
M  V30 45 1 16 42
M  V30 46 1 18 43
M  V30 47 1 19 44
M  V30 48 1 22 45
M  V30 49 1 23 46
M  V30 50 1 25 47
M  V30 END BOND
M  V30 END CTAB
M  END
>  <Dataset>  (422) 
ChEMBL_Kinases

>  <Ligand_Instance>  (422) 
nan

>  <PDB_ID>  (422) 
nan

>  <Standardized_SMILES>  (422) 
NC(=O)c1cccc2c(N[C@H](CN3CCC3)c3ccc(F)cc3)ncnc12

>  <Name>  (422) 
nan

>  <Pocket>  (422) 
nan

>  <ATP_Site>  (422) 
nan

>  <Peripheral>  (422) 
nan

>  <Num_H_Atoms_ProtBoundConf>  (422) 
nan

>  <Num_Resolved_Atoms>  (422) 
nan

>  <Num_Not_Resolved_Atoms>  (422) 
nan

$$$$
CHEMBL395063
     RDKit          3D

  0  0  0  0  0  0  0  0  0  0999 V3000
M  V30 BEGIN CTAB
M  V30 COUNTS 38 40 0 0 0
M  V30 BEGIN ATOM
M  V30 1 N 1.896114 -3.874443 3.888755 0
M  V30 2 C 2.147559 -3.003273 3.200626 0
M  V30 3 C 2.473548 -1.921324 2.330270 0
M  V30 4 C 3.798949 -1.663174 2.034812 0
M  V30 5 N 4.092873 -0.638214 1.211359 0
M  V30 6 C 3.108895 0.091124 0.709372 0
M  V30 7 C 3.467849 1.127423 -0.127541 0
M  V30 8 Cl 5.129642 1.520652 -0.552553 0
M  V30 9 C 2.502384 1.934525 -0.691674 0
M  V30 10 C 1.134547 1.757135 -0.456406 0
M  V30 11 N 0.159484 2.598845 -1.051437 0
M  V30 12 C -1.254668 2.458569 -0.829593 0
M  V30 13 C -1.645504 2.651215 0.598296 0
M  V30 14 O -0.933972 2.922807 1.621877 0
M  V30 15 O -2.998623 2.505448 0.810059 0
M  V30 16 C 0.838877 0.707679 0.386229 0
M  V30 17 C 1.778000 -0.116278 0.965471 0
M  V30 18 C 1.447123 -1.160892 1.806917 0
M  V30 19 N 0.069278 -1.392719 2.085412 0
M  V30 20 C -0.846012 -2.221911 1.382381 0
M  V30 21 C -2.152107 -2.295403 1.838632 0
M  V30 22 C -3.038811 -3.103180 1.151612 0
M  V30 23 C -2.568227 -3.792490 0.045821 0
M  V30 24 F -3.451344 -4.583322 -0.620434 0
M  V30 25 C -1.264629 -3.715665 -0.404985 0
M  V30 26 Cl -0.786503 -4.622243 -1.799732 0
M  V30 27 C -0.375300 -2.909470 0.278842 0
M  V30 28 H 4.594784 -2.270829 2.454735 0
M  V30 29 H 2.763284 2.767689 -1.362589 0
M  V30 30 H 0.502274 3.355443 -1.681185 0
M  V30 31 H -1.614245 1.424354 -1.099359 0
M  V30 32 H -1.848026 3.132190 -1.467677 0
M  V30 33 H -3.377741 2.619399 1.743411 0
M  V30 34 H -0.173142 0.489956 0.625078 0
M  V30 35 H -0.210817 -0.842040 2.928285 0
M  V30 36 H -2.477512 -1.742922 2.703015 0
M  V30 37 H -4.065455 -3.185495 1.477947 0
M  V30 38 H 0.651894 -2.830297 -0.051869 0
M  V30 END ATOM
M  V30 BEGIN BOND
M  V30 1 3 1 2
M  V30 2 1 2 3
M  V30 3 2 3 4
M  V30 4 1 4 5
M  V30 5 2 5 6
M  V30 6 1 6 7
M  V30 7 1 7 8
M  V30 8 2 7 9
M  V30 9 1 9 10
M  V30 10 1 10 11
M  V30 11 1 11 12
M  V30 12 1 12 13
M  V30 13 2 13 14
M  V30 14 1 13 15
M  V30 15 2 10 16
M  V30 16 1 16 17
M  V30 17 2 17 18
M  V30 18 1 18 19
M  V30 19 1 19 20
M  V30 20 2 20 21
M  V30 21 1 21 22
M  V30 22 2 22 23
M  V30 23 1 23 24
M  V30 24 1 23 25
M  V30 25 1 25 26
M  V30 26 2 25 27
M  V30 27 1 18 3
M  V30 28 1 27 20
M  V30 29 1 17 6
M  V30 30 1 4 28
M  V30 31 1 9 29
M  V30 32 1 11 30
M  V30 33 1 12 31
M  V30 34 1 12 32
M  V30 35 1 15 33
M  V30 36 1 16 34
M  V30 37 1 19 35
M  V30 38 1 21 36
M  V30 39 1 22 37
M  V30 40 1 27 38
M  V30 END BOND
M  V30 END CTAB
M  END
>  <Dataset>  (423) 
ChEMBL_Kinases

>  <Ligand_Instance>  (423) 
nan

>  <PDB_ID>  (423) 
nan

>  <Standardized_SMILES>  (423) 
N#Cc1cnc2c(Cl)cc(NCC(=O)O)cc2c1Nc1ccc(F)c(Cl)c1

>  <Name>  (423) 
nan

>  <Pocket>  (423) 
nan

>  <ATP_Site>  (423) 
nan

>  <Peripheral>  (423) 
nan

>  <Num_H_Atoms_ProtBoundConf>  (423) 
nan

>  <Num_Resolved_Atoms>  (423) 
nan

>  <Num_Not_Resolved_Atoms>  (423) 
nan

$$$$
CHEMBL3956916
     RDKit          3D

  0  0  0  0  0  0  0  0  0  0999 V3000
M  V30 BEGIN CTAB
M  V30 COUNTS 43 45 0 0 0
M  V30 BEGIN ATOM
M  V30 1 C -0.471499 -6.648939 0.911279 0
M  V30 2 C 0.956036 -6.251896 1.192289 0
M  V30 3 C 1.420104 -5.237697 0.186319 0
M  V30 4 C 0.614748 -3.990431 0.193581 0
M  V30 5 C -0.517372 -3.796666 -0.598724 0
M  V30 6 C -1.216159 -2.584359 -0.532364 0
M  V30 7 C -0.799967 -1.552387 0.319978 0
M  V30 8 N -1.699319 -0.463979 0.164201 0
M  V30 9 C -1.193941 0.718843 0.051781 0
M  V30 10 S 0.493292 1.390791 0.043979 0
M  V30 11 C -0.003925 3.029317 0.645600 0
M  V30 12 C 0.632222 3.947474 1.317989 0
M  V30 13 C 2.012781 3.800684 1.754127 0
M  V30 14 C 3.075982 3.205058 1.073808 0
M  V30 15 C 4.310366 3.186638 1.702971 0
M  V30 16 N 4.518388 3.709816 2.918669 0
M  V30 17 C 3.537187 4.301641 3.634952 0
M  V30 18 C 2.310770 4.324185 3.018720 0
M  V30 19 C -1.395784 3.123203 0.188837 0
M  V30 20 O -1.976768 4.260149 0.090778 0
M  V30 21 N -2.016158 1.893112 -0.122437 0
M  V30 22 C -3.411542 1.825049 -0.591184 0
M  V30 23 C 0.318629 -1.760218 1.095124 0
M  V30 24 C 0.995796 -2.949491 1.023198 0
M  V30 25 H -1.180669 -5.897836 1.370721 0
M  V30 26 H -0.682142 -6.760174 -0.153815 0
M  V30 27 H -0.700495 -7.644656 1.369733 0
M  V30 28 H 1.596262 -7.147924 1.059204 0
M  V30 29 H 1.066464 -5.909322 2.238837 0
M  V30 30 H 2.501897 -5.019228 0.305648 0
M  V30 31 H 1.335792 -5.727883 -0.825317 0
M  V30 32 H -0.792031 -4.624710 -1.235620 0
M  V30 33 H -2.077074 -2.605772 -1.219985 0
M  V30 34 H 0.119659 4.885817 1.576389 0
M  V30 35 H 2.810841 2.820626 0.117725 0
M  V30 36 H 5.108466 2.719165 1.150507 0
M  V30 37 H 3.697148 4.718692 4.602586 0
M  V30 38 H 1.516505 4.807225 3.607871 0
M  V30 39 H -3.829264 0.864906 -0.231521 0
M  V30 40 H -3.990513 2.704882 -0.226804 0
M  V30 41 H -3.391869 1.828745 -1.680231 0
M  V30 42 H 0.513392 -0.885449 1.694185 0
M  V30 43 H 1.858731 -2.986383 1.685206 0
M  V30 END ATOM
M  V30 BEGIN BOND
M  V30 1 1 1 2
M  V30 2 1 2 3
M  V30 3 1 3 4
M  V30 4 2 4 5
M  V30 5 1 5 6
M  V30 6 2 6 7
M  V30 7 1 7 8
M  V30 8 2 8 9
M  V30 9 1 9 10
M  V30 10 1 10 11
M  V30 11 2 11 12
M  V30 12 1 12 13
M  V30 13 2 13 14
M  V30 14 1 14 15
M  V30 15 2 15 16
M  V30 16 1 16 17
M  V30 17 2 17 18
M  V30 18 1 11 19
M  V30 19 2 19 20
M  V30 20 1 19 21
M  V30 21 1 21 22
M  V30 22 1 7 23
M  V30 23 2 23 24
M  V30 24 1 24 4
M  V30 25 1 21 9
M  V30 26 1 18 13
M  V30 27 1 1 25
M  V30 28 1 1 26
M  V30 29 1 1 27
M  V30 30 1 2 28
M  V30 31 1 2 29
M  V30 32 1 3 30
M  V30 33 1 3 31
M  V30 34 1 5 32
M  V30 35 1 6 33
M  V30 36 1 12 34
M  V30 37 1 14 35
M  V30 38 1 15 36
M  V30 39 1 17 37
M  V30 40 1 18 38
M  V30 41 1 22 39
M  V30 42 1 22 40
M  V30 43 1 22 41
M  V30 44 1 23 42
M  V30 45 1 24 43
M  V30 END BOND
M  V30 END CTAB
M  END
>  <Dataset>  (424) 
ChEMBL_Kinases

>  <Ligand_Instance>  (424) 
nan

>  <PDB_ID>  (424) 
nan

>  <Standardized_SMILES>  (424) 
CCCc1ccc(/N=C2\S/C(=C\c3ccncc3)C(=O)N2C)cc1

>  <Name>  (424) 
nan

>  <Pocket>  (424) 
nan

>  <ATP_Site>  (424) 
nan

>  <Peripheral>  (424) 
nan

>  <Num_H_Atoms_ProtBoundConf>  (424) 
nan

>  <Num_Resolved_Atoms>  (424) 
nan

>  <Num_Not_Resolved_Atoms>  (424) 
nan

$$$$
CHEMBL3950389
     RDKit          3D

  0  0  0  0  0  0  0  0  0  0999 V3000
M  V30 BEGIN CTAB
M  V30 COUNTS 53 57 0 0 0
M  V30 BEGIN ATOM
M  V30 1 C 4.555846 -3.540725 6.421935 0
M  V30 2 O 4.237639 -2.142273 6.350546 0
M  V30 3 C 3.600525 -1.620462 5.217269 0
M  V30 4 O 3.386724 -2.537761 4.361937 0
M  V30 5 N 3.248058 -0.253737 5.058988 0
M  V30 6 C 2.603221 0.010933 3.795874 0
M  V30 7 N 3.212420 0.355465 2.648144 0
M  V30 8 C 2.298898 0.522309 1.676821 0
M  V30 9 C 2.433017 0.872181 0.344501 0
M  V30 10 C 1.286903 0.958921 -0.391244 0
M  V30 11 C 0.014403 0.714932 0.132249 0
M  V30 12 C -1.170424 0.830215 -0.718744 0
M  V30 13 O -0.795961 1.133914 -2.047628 0
M  V30 14 C -2.097184 1.903686 -0.305790 0
M  V30 15 C -1.871858 3.258159 -0.069212 0
M  V30 16 C -2.935646 4.073325 0.318664 0
M  V30 17 C -4.216385 3.540485 0.469612 0
M  V30 18 C -4.466599 2.190341 0.239059 0
M  V30 19 C -3.389787 1.411248 -0.143988 0
M  V30 20 C -3.375750 -0.023437 -0.446221 0
M  V30 21 O -4.343197 -0.843353 -0.419301 0
M  V30 22 N -2.020331 -0.314677 -0.784420 0
M  V30 23 C -1.524478 -1.599550 -1.157750 0
M  V30 24 C -1.034310 -2.539534 -0.256413 0
M  V30 25 C -0.563101 -3.765766 -0.653904 0
M  V30 26 C -0.578859 -4.069409 -1.991025 0
M  V30 27 C -1.049873 -3.196141 -2.974467 0
M  V30 28 O -1.067087 -3.499144 -4.324326 0
M  V30 29 C -0.562671 -4.794237 -4.679762 0
M  V30 30 C -1.512383 -1.971182 -2.500368 0
M  V30 31 F -1.979497 -1.085454 -3.400117 0
M  V30 32 C -0.091448 0.370762 1.451784 0
M  V30 33 C 1.046456 0.268438 2.246235 0
M  V30 34 N 1.276483 -0.041224 3.545181 0
M  V30 35 H 4.714149 -3.865716 7.448641 0
M  V30 36 H 3.652708 -4.067988 6.012464 0
M  V30 37 H 5.378072 -3.712879 5.719542 0
M  V30 38 H 3.495674 0.387690 5.866792 0
M  V30 39 H 3.380306 1.076537 -0.135594 0
M  V30 40 H 1.325419 1.229419 -1.443757 0
M  V30 41 H -1.419422 1.782506 -2.458086 0
M  V30 42 H -0.891233 3.722267 -0.172972 0
M  V30 43 H -2.785485 5.135919 0.509841 0
M  V30 44 H -5.025548 4.181354 0.768897 0
M  V30 45 H -5.461401 1.772827 0.355583 0
M  V30 46 H -1.029955 -2.284676 0.794204 0
M  V30 47 H -0.202438 -4.436376 0.092185 0
M  V30 48 H -0.209948 -5.032701 -2.315186 0
M  V30 49 H 0.471197 -4.911788 -4.277503 0
M  V30 50 H -1.210504 -5.520982 -4.116877 0
M  V30 51 H -0.630347 -4.929101 -5.767274 0
M  V30 52 H -1.048532 0.166827 1.926150 0
M  V30 53 H 0.529589 -0.284374 4.246432 0
M  V30 END ATOM
M  V30 BEGIN BOND
M  V30 1 1 1 2
M  V30 2 1 2 3
M  V30 3 2 3 4
M  V30 4 1 3 5
M  V30 5 1 5 6
M  V30 6 2 6 7
M  V30 7 1 7 8
M  V30 8 2 8 9
M  V30 9 1 9 10
M  V30 10 2 10 11
M  V30 11 1 11 12
M  V30 12 1 12 13
M  V30 13 1 12 14
M  V30 14 2 14 15
M  V30 15 1 15 16
M  V30 16 2 16 17
M  V30 17 1 17 18
M  V30 18 2 18 19
M  V30 19 1 19 20
M  V30 20 2 20 21
M  V30 21 1 20 22
M  V30 22 1 22 23
M  V30 23 2 23 24
M  V30 24 1 24 25
M  V30 25 2 25 26
M  V30 26 1 26 27
M  V30 27 1 27 28
M  V30 28 1 28 29
M  V30 29 2 27 30
M  V30 30 1 30 31
M  V30 31 1 11 32
M  V30 32 2 32 33
M  V30 33 1 33 34
M  V30 34 1 34 6
M  V30 35 1 33 8
M  V30 36 1 22 12
M  V30 37 1 30 23
M  V30 38 1 19 14
M  V30 39 1 1 35
M  V30 40 1 1 36
M  V30 41 1 1 37
M  V30 42 1 5 38
M  V30 43 1 9 39
M  V30 44 1 10 40
M  V30 45 1 13 41
M  V30 46 1 15 42
M  V30 47 1 16 43
M  V30 48 1 17 44
M  V30 49 1 18 45
M  V30 50 1 24 46
M  V30 51 1 25 47
M  V30 52 1 26 48
M  V30 53 1 29 49
M  V30 54 1 29 50
M  V30 55 1 29 51
M  V30 56 1 32 52
M  V30 57 1 34 53
M  V30 END BOND
M  V30 END CTAB
M  END
>  <Dataset>  (425) 
ChEMBL_Kinases

>  <Ligand_Instance>  (425) 
nan

>  <PDB_ID>  (425) 
nan

>  <Standardized_SMILES>  (425) 
COC(=O)Nc1nc2ccc(C3(O)c4ccccc4C(=O)N3c3cccc(OC)c3F)cc2[nH]1

>  <Name>  (425) 
nan

>  <Pocket>  (425) 
nan

>  <ATP_Site>  (425) 
nan

>  <Peripheral>  (425) 
nan

>  <Num_H_Atoms_ProtBoundConf>  (425) 
nan

>  <Num_Resolved_Atoms>  (425) 
nan

>  <Num_Not_Resolved_Atoms>  (425) 
nan

$$$$
CHEMBL395037
     RDKit          3D

  0  0  0  0  0  0  0  0  0  0999 V3000
M  V30 BEGIN CTAB
M  V30 COUNTS 40 43 0 0 0
M  V30 BEGIN ATOM
M  V30 1 C 1.286878 -5.196135 -0.571073 0
M  V30 2 O 1.396806 -3.811134 -0.364644 0
M  V30 3 C 2.569404 -3.209607 0.072917 0
M  V30 4 C 3.685435 -4.000841 0.319588 0
M  V30 5 C 4.829203 -3.353596 0.753925 0
M  V30 6 C 4.946698 -1.997311 0.959119 0
M  V30 7 C 3.819444 -1.205632 0.709031 0
M  V30 8 C 2.668414 -1.830960 0.275177 0
M  V30 9 C 1.438660 -1.051028 -0.008100 0
M  V30 10 C 0.690981 -1.290401 -1.164551 0
M  V30 11 C -0.452391 -0.556804 -1.416271 0
M  V30 12 C -0.840635 0.412802 -0.507935 0
M  V30 13 C -0.093079 0.639069 0.630306 0
M  V30 14 C 1.055600 -0.081325 0.906094 0
M  V30 15 N -0.364354 1.599689 1.655522 0
M  V30 16 C -1.637840 2.157633 1.994444 0
M  V30 17 C -1.644508 2.596892 3.320640 0
M  V30 18 C -2.816973 3.169652 3.811963 0
M  V30 19 C -3.930811 3.291242 2.996202 0
M  V30 20 C -3.927704 2.858798 1.686909 0
M  V30 21 C -2.783497 2.298239 1.202558 0
M  V30 22 N -2.929164 1.895802 -0.173949 0
M  V30 23 C -2.068898 1.060111 -0.972482 0
M  V30 24 O -2.433427 0.891177 -2.171694 0
M  V30 25 H 1.332534 -5.773807 0.381769 0
M  V30 26 H 0.297271 -5.416593 -1.005007 0
M  V30 27 H 2.067958 -5.482553 -1.293010 0
M  V30 28 H 3.653160 -5.073074 0.176113 0
M  V30 29 H 5.710121 -3.971273 0.949477 0
M  V30 30 H 5.862984 -1.547420 1.298528 0
M  V30 31 H 3.837164 -0.132931 0.848054 0
M  V30 32 H 0.996292 -2.046944 -1.870660 0
M  V30 33 H -1.049898 -0.721682 -2.303998 0
M  V30 34 H 1.592737 0.146698 1.814235 0
M  V30 35 H 0.445563 1.920886 2.205376 0
M  V30 36 H -0.738477 2.475199 3.915034 0
M  V30 37 H -2.839916 3.516003 4.838851 0
M  V30 38 H -4.852372 3.744272 3.390964 0
M  V30 39 H -4.788905 2.945986 1.035463 0
M  V30 40 H -3.786984 2.282456 -0.619056 0
M  V30 END ATOM
M  V30 BEGIN BOND
M  V30 1 1 1 2
M  V30 2 1 2 3
M  V30 3 2 3 4
M  V30 4 1 4 5
M  V30 5 2 5 6
M  V30 6 1 6 7
M  V30 7 2 7 8
M  V30 8 1 8 9
M  V30 9 2 9 10
M  V30 10 1 10 11
M  V30 11 2 11 12
M  V30 12 1 12 13
M  V30 13 2 13 14
M  V30 14 1 13 15
M  V30 15 1 15 16
M  V30 16 2 16 17
M  V30 17 1 17 18
M  V30 18 2 18 19
M  V30 19 1 19 20
M  V30 20 2 20 21
M  V30 21 1 21 22
M  V30 22 1 22 23
M  V30 23 2 23 24
M  V30 24 1 8 3
M  V30 25 1 14 9
M  V30 26 1 21 16
M  V30 27 1 23 12
M  V30 28 1 1 25
M  V30 29 1 1 26
M  V30 30 1 1 27
M  V30 31 1 4 28
M  V30 32 1 5 29
M  V30 33 1 6 30
M  V30 34 1 7 31
M  V30 35 1 10 32
M  V30 36 1 11 33
M  V30 37 1 14 34
M  V30 38 1 15 35
M  V30 39 1 17 36
M  V30 40 1 18 37
M  V30 41 1 19 38
M  V30 42 1 20 39
M  V30 43 1 22 40
M  V30 END BOND
M  V30 END CTAB
M  END
>  <Dataset>  (426) 
ChEMBL_Kinases

>  <Ligand_Instance>  (426) 
nan

>  <PDB_ID>  (426) 
nan

>  <Standardized_SMILES>  (426) 
COc1ccccc1-c1ccc2c(c1)Nc1ccccc1NC2=O

>  <Name>  (426) 
nan

>  <Pocket>  (426) 
nan

>  <ATP_Site>  (426) 
nan

>  <Peripheral>  (426) 
nan

>  <Num_H_Atoms_ProtBoundConf>  (426) 
nan

>  <Num_Resolved_Atoms>  (426) 
nan

>  <Num_Not_Resolved_Atoms>  (426) 
nan

$$$$
CHEMBL395030
     RDKit          3D

  0  0  0  0  0  0  0  0  0  0999 V3000
M  V30 BEGIN CTAB
M  V30 COUNTS 40 43 0 0 0
M  V30 BEGIN ATOM
M  V30 1 O 4.184215 0.621254 0.616136 0
M  V30 2 C 3.070424 0.599149 1.241088 0
M  V30 3 C 3.199253 -0.200801 2.448589 0
M  V30 4 C 3.457202 0.442187 3.653470 0
M  V30 5 F 3.582090 1.791545 3.703807 0
M  V30 6 C 3.596561 -0.230276 4.852594 0
M  V30 7 C 3.476785 -1.621998 4.885478 0
M  V30 8 C 3.222034 -2.278440 3.705788 0
M  V30 9 C 3.087251 -1.583581 2.519892 0
M  V30 10 F 2.834175 -2.174645 1.314756 0
M  V30 11 N 1.795439 1.173781 0.998393 0
M  V30 12 C 0.590801 1.088338 1.776207 0
M  V30 13 C -0.560044 0.391099 1.059762 0
M  V30 14 N -0.463317 0.440427 -0.357564 0
M  V30 15 C 0.480582 1.193128 -0.926805 0
M  V30 16 C 0.376742 1.051421 -2.283920 0
M  V30 17 N -0.643504 0.205985 -2.441985 0
M  V30 18 C -1.183213 -0.189265 -1.281572 0
M  V30 19 C -2.271056 -1.131245 -1.344363 0
M  V30 20 C -2.554858 -1.791504 -2.515098 0
M  V30 21 C -3.571224 -2.697444 -2.713402 0
M  V30 22 C -4.400836 -2.992653 -1.657996 0
M  V30 23 F -5.403149 -3.883391 -1.848296 0
M  V30 24 C -4.182641 -2.374004 -0.456405 0
M  V30 25 C -3.141155 -1.480871 -0.350184 0
M  V30 26 F -3.072970 -0.943474 0.873978 0
M  V30 27 C 1.460184 2.007887 -0.162121 0
M  V30 28 H 3.797436 0.218703 5.806504 0
M  V30 29 H 3.559754 -2.279802 5.738082 0
M  V30 30 H 3.104720 -3.332876 3.573617 0
M  V30 31 H 0.764838 0.561984 2.754089 0
M  V30 32 H 0.257608 2.125884 2.082781 0
M  V30 33 H -0.608705 -0.639011 1.470614 0
M  V30 34 H -1.466045 0.941751 1.388228 0
M  V30 35 H 0.956118 1.493317 -3.080370 0
M  V30 36 H -1.966764 -1.647240 -3.440998 0
M  V30 37 H -3.745869 -3.188254 -3.653064 0
M  V30 38 H -4.855334 -2.632802 0.344955 0
M  V30 39 H 1.038539 2.954330 0.167249 0
M  V30 40 H 2.401412 2.142962 -0.756086 0
M  V30 END ATOM
M  V30 BEGIN BOND
M  V30 1 2 1 2
M  V30 2 1 2 3
M  V30 3 2 3 4
M  V30 4 1 4 5
M  V30 5 1 4 6
M  V30 6 2 6 7
M  V30 7 1 7 8
M  V30 8 2 8 9
M  V30 9 1 9 10
M  V30 10 1 2 11
M  V30 11 1 11 12
M  V30 12 1 12 13
M  V30 13 1 13 14
M  V30 14 1 14 15
M  V30 15 2 15 16
M  V30 16 1 16 17
M  V30 17 2 17 18
M  V30 18 1 18 19
M  V30 19 2 19 20
M  V30 20 1 20 21
M  V30 21 2 21 22
M  V30 22 1 22 23
M  V30 23 1 22 24
M  V30 24 2 24 25
M  V30 25 1 25 26
M  V30 26 1 15 27
M  V30 27 1 9 3
M  V30 28 1 27 11
M  V30 29 1 18 14
M  V30 30 1 25 19
M  V30 31 1 6 28
M  V30 32 1 7 29
M  V30 33 1 8 30
M  V30 34 1 12 31
M  V30 35 1 12 32
M  V30 36 1 13 33
M  V30 37 1 13 34
M  V30 38 1 16 35
M  V30 39 1 20 36
M  V30 40 1 21 37
M  V30 41 1 24 38
M  V30 42 1 27 39
M  V30 43 1 27 40
M  V30 END BOND
M  V30 END CTAB
M  END
>  <Dataset>  (427) 
ChEMBL_Kinases

>  <Ligand_Instance>  (427) 
nan

>  <PDB_ID>  (427) 
nan

>  <Standardized_SMILES>  (427) 
O=C(c1c(F)cccc1F)N1CCn2c(cnc2-c2ccc(F)cc2F)C1

>  <Name>  (427) 
nan

>  <Pocket>  (427) 
nan

>  <ATP_Site>  (427) 
nan

>  <Peripheral>  (427) 
nan

>  <Num_H_Atoms_ProtBoundConf>  (427) 
nan

>  <Num_Resolved_Atoms>  (427) 
nan

>  <Num_Not_Resolved_Atoms>  (427) 
nan

$$$$
CHEMBL4875425
     RDKit          3D

  0  0  0  0  0  0  0  0  0  0999 V3000
M  V30 BEGIN CTAB
M  V30 COUNTS 49 52 0 0 0
M  V30 BEGIN ATOM
M  V30 1 C 5.157299 -6.650593 1.607483 0
M  V30 2 O 4.340231 -6.338567 0.518958 0
M  V30 3 C 3.886226 -5.097597 0.160149 0
M  V30 4 C 4.169026 -3.927064 0.831796 0
M  V30 5 C 3.699941 -2.675365 0.454064 0
M  V30 6 C 2.889418 -2.620629 -0.684743 0
M  V30 7 C 2.370345 -1.272560 -1.110967 0 CFG=2
M  V30 8 C 3.538922 -0.528463 -1.700265 0
M  V30 9 N 1.863896 -0.509845 0.011291 0
M  V30 10 C 0.543955 -0.011825 0.268765 0
M  V30 11 O -0.307841 -0.288421 -0.635967 0
M  V30 12 C 0.360445 0.741157 1.529092 0
M  V30 13 C 1.307836 1.032820 2.506535 0
M  V30 14 N 0.608224 1.730312 3.419668 0
M  V30 15 C -0.671929 1.856061 3.029993 0
M  V30 16 C -1.703096 2.497047 3.682743 0
M  V30 17 C -2.936514 2.488245 3.074572 0
M  V30 18 C -3.150329 1.868182 1.861345 0
M  V30 19 C -4.416052 1.803748 1.137965 0
M  V30 20 C -4.829534 0.761291 0.305326 0
M  V30 21 N -6.055175 1.131345 -0.142872 0
M  V30 22 N -6.363498 2.320643 0.384327 0
M  V30 23 C -7.636659 2.966487 0.071350 0
M  V30 24 C -5.379090 2.790351 1.192009 0
M  V30 25 C -2.051384 1.241336 1.266473 0
M  V30 26 N -0.843073 1.247319 1.857538 0
M  V30 27 C 2.585212 -3.770147 -1.381970 0
M  V30 28 C 3.085591 -4.996016 -0.953779 0
M  V30 29 H 5.729071 -5.774003 1.935384 0
M  V30 30 H 5.875744 -7.437826 1.233856 0
M  V30 31 H 4.586856 -7.008343 2.497227 0
M  V30 32 H 4.795930 -3.974238 1.711484 0
M  V30 33 H 3.976812 -1.818102 1.045124 0
M  V30 34 H 1.576563 -1.476770 -1.858028 0
M  V30 35 H 3.192407 0.404414 -2.170809 0
M  V30 36 H 4.220256 -0.271277 -0.852283 0
M  V30 37 H 4.127472 -1.187706 -2.360126 0
M  V30 38 H 2.624955 -0.328048 0.702504 0
M  V30 39 H 2.323740 0.730759 2.453568 0
M  V30 40 H -1.664477 3.015941 4.630448 0
M  V30 41 H -3.850897 2.948709 3.460024 0
M  V30 42 H -4.207545 -0.115618 0.130462 0
M  V30 43 H -7.827491 3.796545 0.811191 0
M  V30 44 H -8.476832 2.240383 0.040869 0
M  V30 45 H -7.608041 3.457577 -0.918777 0
M  V30 46 H -5.435768 3.723971 1.706303 0
M  V30 47 H -2.183461 0.740829 0.306668 0
M  V30 48 H 1.950499 -3.709248 -2.269614 0
M  V30 49 H 2.804712 -5.854651 -1.550754 0
M  V30 END ATOM
M  V30 BEGIN BOND
M  V30 1 1 1 2
M  V30 2 1 2 3
M  V30 3 2 3 4
M  V30 4 1 4 5
M  V30 5 2 5 6
M  V30 6 1 6 7
M  V30 7 1 7 8
M  V30 8 1 7 9
M  V30 9 1 9 10
M  V30 10 2 10 11
M  V30 11 1 10 12
M  V30 12 2 12 13
M  V30 13 1 13 14
M  V30 14 2 14 15
M  V30 15 1 15 16
M  V30 16 2 16 17
M  V30 17 1 17 18
M  V30 18 1 18 19
M  V30 19 1 19 20
M  V30 20 2 20 21
M  V30 21 1 21 22
M  V30 22 1 22 23
M  V30 23 1 22 24
M  V30 24 2 18 25
M  V30 25 1 25 26
M  V30 26 1 6 27
M  V30 27 2 27 28
M  V30 28 1 28 3
M  V30 29 1 26 12
M  V30 30 1 26 15
M  V30 31 2 24 19
M  V30 32 1 1 29
M  V30 33 1 1 30
M  V30 34 1 1 31
M  V30 35 1 4 32
M  V30 36 1 5 33
M  V30 37 1 7 34 CFG=3
M  V30 38 1 8 35
M  V30 39 1 8 36
M  V30 40 1 8 37
M  V30 41 1 9 38
M  V30 42 1 13 39
M  V30 43 1 16 40
M  V30 44 1 17 41
M  V30 45 1 20 42
M  V30 46 1 23 43
M  V30 47 1 23 44
M  V30 48 1 23 45
M  V30 49 1 24 46
M  V30 50 1 25 47
M  V30 51 1 27 48
M  V30 52 1 28 49
M  V30 END BOND
M  V30 END CTAB
M  END
>  <Dataset>  (428) 
ChEMBL_Kinases

>  <Ligand_Instance>  (428) 
nan

>  <PDB_ID>  (428) 
nan

>  <Standardized_SMILES>  (428) 
COc1ccc([C@H](C)NC(=O)c2cnc3ccc(-c4cnn(C)c4)cn23)cc1

>  <Name>  (428) 
nan

>  <Pocket>  (428) 
nan

>  <ATP_Site>  (428) 
nan

>  <Peripheral>  (428) 
nan

>  <Num_H_Atoms_ProtBoundConf>  (428) 
nan

>  <Num_Resolved_Atoms>  (428) 
nan

>  <Num_Not_Resolved_Atoms>  (428) 
nan

$$$$
CHEMBL3950250
     RDKit          3D

  0  0  0  0  0  0  0  0  0  0999 V3000
M  V30 BEGIN CTAB
M  V30 COUNTS 57 60 0 0 0
M  V30 BEGIN ATOM
M  V30 1 C 4.466690 -0.196610 4.010456 0
M  V30 2 N 5.388314 -1.133700 3.383309 0
M  V30 3 C 5.698945 -2.223019 4.312929 0
M  V30 4 C 5.929266 -1.038090 2.062268 0
M  V30 5 O 6.720168 -1.975981 1.722023 0
M  V30 6 C 5.475196 0.133271 1.322778 0
M  V30 7 C 6.356165 1.055656 0.794935 0
M  V30 8 N 5.924164 2.134196 0.113357 0
M  V30 9 C 4.617189 2.373861 -0.091596 0
M  V30 10 C 4.101880 3.450585 -0.776971 0
M  V30 11 C 2.754907 3.654271 -0.962648 0
M  V30 12 C 1.894672 2.717784 -0.425078 0
M  V30 13 C 0.458542 2.805045 -0.542974 0
M  V30 14 C -0.743419 2.856954 -0.644670 0
M  V30 15 C -2.222461 2.894910 -0.768119 0
M  V30 16 N -2.739408 1.573938 -1.043120 0
M  V30 17 C -4.113695 1.273375 -1.210217 0
M  V30 18 O -4.811576 2.329194 -1.083797 0
M  V30 19 C -4.714273 -0.017041 -1.485245 0
M  V30 20 C -6.091291 -0.046156 -1.595749 0
M  V30 21 N -6.770185 -1.167813 -1.840593 0
M  V30 22 C -6.132469 -2.333739 -1.992232 0
M  V30 23 N -4.772081 -2.384848 -1.897016 0
M  V30 24 C -4.013958 -3.606725 -2.050615 0
M  V30 25 C -3.797072 -4.325142 -0.794647 0
M  V30 26 C -4.755697 -5.247075 -0.372000 0
M  V30 27 C -4.669631 -5.986924 0.789794 0
M  V30 28 C -3.551763 -5.789178 1.575872 0
M  V30 29 F -3.474706 -6.523183 2.721258 0
M  V30 30 C -2.545588 -4.886803 1.226247 0
M  V30 31 F -1.465462 -4.715785 2.016539 0
M  V30 32 C -2.716876 -4.196588 0.055605 0
M  V30 33 C -4.115915 -1.245262 -1.650972 0
M  V30 34 O -2.883764 -1.268972 -1.560958 0
M  V30 35 C 2.365185 1.616319 0.273497 0
M  V30 36 C 3.735733 1.459748 0.431173 0
M  V30 37 N 4.170094 0.384105 1.111303 0
M  V30 38 H 4.748794 0.035734 5.059068 0
M  V30 39 H 3.463386 -0.648985 4.021106 0
M  V30 40 H 4.421712 0.775940 3.448488 0
M  V30 41 H 6.128563 -1.750896 5.230533 0
M  V30 42 H 6.428606 -2.939412 3.865563 0
M  V30 43 H 4.823781 -2.821454 4.587969 0
M  V30 44 H 7.424588 0.878235 0.949938 0
M  V30 45 H 4.803508 4.150006 -1.175180 0
M  V30 46 H 2.344361 4.484890 -1.492344 0
M  V30 47 H -2.692929 3.297979 0.155438 0
M  V30 48 H -2.453335 3.605674 -1.580563 0
M  V30 49 H -2.051880 0.796637 -1.123122 0
M  V30 50 H -6.703835 0.838022 -1.490074 0
M  V30 51 H -6.607489 -3.298678 -2.194590 0
M  V30 52 H -4.602939 -4.273480 -2.729593 0
M  V30 53 H -3.011136 -3.343120 -2.478008 0
M  V30 54 H -5.644704 -5.402743 -0.997806 0
M  V30 55 H -5.461831 -6.678731 1.037022 0
M  V30 56 H -1.954757 -3.487770 -0.243835 0
M  V30 57 H 1.703731 0.863821 0.706953 0
M  V30 END ATOM
M  V30 BEGIN BOND
M  V30 1 1 1 2
M  V30 2 1 2 3
M  V30 3 1 2 4
M  V30 4 2 4 5
M  V30 5 1 4 6
M  V30 6 2 6 7
M  V30 7 1 7 8
M  V30 8 2 8 9
M  V30 9 1 9 10
M  V30 10 2 10 11
M  V30 11 1 11 12
M  V30 12 1 12 13
M  V30 13 3 13 14
M  V30 14 1 14 15
M  V30 15 1 15 16
M  V30 16 1 16 17
M  V30 17 2 17 18
M  V30 18 1 17 19
M  V30 19 2 19 20
M  V30 20 1 20 21
M  V30 21 2 21 22
M  V30 22 1 22 23
M  V30 23 1 23 24
M  V30 24 1 24 25
M  V30 25 2 25 26
M  V30 26 1 26 27
M  V30 27 2 27 28
M  V30 28 1 28 29
M  V30 29 1 28 30
M  V30 30 1 30 31
M  V30 31 2 30 32
M  V30 32 1 23 33
M  V30 33 2 33 34
M  V30 34 2 12 35
M  V30 35 1 35 36
M  V30 36 2 36 37
M  V30 37 1 37 6
M  V30 38 1 36 9
M  V30 39 1 33 19
M  V30 40 1 32 25
M  V30 41 1 1 38
M  V30 42 1 1 39
M  V30 43 1 1 40
M  V30 44 1 3 41
M  V30 45 1 3 42
M  V30 46 1 3 43
M  V30 47 1 7 44
M  V30 48 1 10 45
M  V30 49 1 11 46
M  V30 50 1 15 47
M  V30 51 1 15 48
M  V30 52 1 16 49
M  V30 53 1 20 50
M  V30 54 1 22 51
M  V30 55 1 24 52
M  V30 56 1 24 53
M  V30 57 1 26 54
M  V30 58 1 27 55
M  V30 59 1 32 56
M  V30 60 1 35 57
M  V30 END BOND
M  V30 END CTAB
M  END
>  <Dataset>  (429) 
ChEMBL_Kinases

>  <Ligand_Instance>  (429) 
nan

>  <PDB_ID>  (429) 
nan

>  <Standardized_SMILES>  (429) 
CN(C)C(=O)c1cnc2ccc(C#CCNC(=O)c3cncn(Cc4ccc(F)c(F)c4)c3=O)cc2n1

>  <Name>  (429) 
nan

>  <Pocket>  (429) 
nan

>  <ATP_Site>  (429) 
nan

>  <Peripheral>  (429) 
nan

>  <Num_H_Atoms_ProtBoundConf>  (429) 
nan

>  <Num_Resolved_Atoms>  (429) 
nan

>  <Num_Not_Resolved_Atoms>  (429) 
nan

$$$$
CHEMBL3950243
     RDKit          3D

  0  0  0  0  0  0  0  0  0  0999 V3000
M  V30 BEGIN CTAB
M  V30 COUNTS 51 54 0 0 0
M  V30 BEGIN ATOM
M  V30 1 C 0.998779 -2.670802 4.743660 0
M  V30 2 O 1.367104 -2.721175 3.419427 0
M  V30 3 C 2.569351 -2.131400 2.923436 0
M  V30 4 C 3.631140 -1.559421 3.656702 0
M  V30 5 C 4.678491 -0.964925 3.097146 0
M  V30 6 C 4.700711 -0.891236 1.808819 0
M  V30 7 C 5.072388 -0.103248 0.333031 0
M  V30 8 N 4.254478 0.979097 0.601025 0
M  V30 9 S 3.528706 2.246054 -0.134565 0
M  V30 10 O 3.569682 1.815225 -1.708885 0
M  V30 11 O 3.749569 3.593611 -0.067918 0
M  V30 12 C 1.703294 1.812765 0.053517 0
M  V30 13 C 1.641214 1.065049 1.256132 0
M  V30 14 C 0.480137 0.263490 1.495593 0
M  V30 15 C -0.509237 0.251578 0.594495 0
M  V30 16 C -1.762832 -0.515373 0.630648 0
M  V30 17 N -2.019036 -0.717393 -0.707987 0
M  V30 18 C -3.229391 -1.369921 -0.814289 0
M  V30 19 C -3.833116 -1.526997 -2.088848 0
M  V30 20 C -5.116386 -1.945896 -1.761263 0
M  V30 21 C -5.935563 -1.759961 -3.024145 0
M  V30 22 N -6.078522 -0.284528 -2.814326 0
M  V30 23 O -6.528245 -1.861343 -4.020376 0
M  V30 24 C -5.714492 -2.186707 -0.550596 0
M  V30 25 C -4.955431 -1.983068 0.564903 0
M  V30 26 C -3.596962 -1.542882 0.428149 0
M  V30 27 N -2.738468 -1.044414 1.301804 0
M  V30 28 C -0.258069 1.078561 -0.503100 0
M  V30 29 C 0.738076 1.876270 -0.882714 0
M  V30 30 C 3.644078 -1.512352 0.958750 0
M  V30 31 C 2.516295 -2.171347 1.555946 0
M  V30 32 H 1.213649 -3.602834 5.212994 0
M  V30 33 H -0.019146 -2.282131 4.812514 0
M  V30 34 H 1.660708 -1.837819 5.187472 0
M  V30 35 H 3.554830 -1.617101 4.686000 0
M  V30 36 H 5.617388 -0.479389 3.376480 0
M  V30 37 H 5.281510 -0.743519 -0.392975 0
M  V30 38 H 6.185110 0.333599 0.821158 0
M  V30 39 H 4.651635 1.457796 1.632367 0
M  V30 40 H 2.242494 0.868101 2.144667 0
M  V30 41 H 0.282332 -0.376758 2.320506 0
M  V30 42 H -3.402053 -1.351983 -3.048283 0
M  V30 43 H -5.593205 0.596799 -3.218871 0
M  V30 44 H -6.583341 0.445855 -2.236757 0
M  V30 45 H -6.705896 -2.523983 -0.518944 0
M  V30 46 H -5.283439 -2.110474 1.505532 0
M  V30 47 H -2.672538 -0.910146 2.284119 0
M  V30 48 H -0.999429 1.197573 -1.336514 0
M  V30 49 H 1.053400 2.532709 -1.639115 0
M  V30 50 H 3.481544 -1.602113 -0.142623 0
M  V30 51 H 1.714411 -2.638198 0.930762 0
M  V30 END ATOM
M  V30 BEGIN BOND
M  V30 1 1 1 2
M  V30 2 1 2 3
M  V30 3 2 3 4
M  V30 4 1 4 5
M  V30 5 2 5 6
M  V30 6 1 6 7
M  V30 7 1 7 8
M  V30 8 1 8 9
M  V30 9 2 9 10
M  V30 10 2 9 11
M  V30 11 1 9 12
M  V30 12 2 12 13
M  V30 13 1 13 14
M  V30 14 2 14 15
M  V30 15 1 15 16
M  V30 16 2 16 17
M  V30 17 1 17 18
M  V30 18 2 18 19
M  V30 19 1 19 20
M  V30 20 1 20 21
M  V30 21 1 21 22
M  V30 22 2 21 23
M  V30 23 2 20 24
M  V30 24 1 24 25
M  V30 25 2 25 26
M  V30 26 1 26 27
M  V30 27 1 15 28
M  V30 28 2 28 29
M  V30 29 1 6 30
M  V30 30 2 30 31
M  V30 31 1 31 3
M  V30 32 1 29 12
M  V30 33 1 27 16
M  V30 34 1 26 18
M  V30 35 1 1 32
M  V30 36 1 1 33
M  V30 37 1 1 34
M  V30 38 1 4 35
M  V30 39 1 5 36
M  V30 40 1 7 37
M  V30 41 1 7 38
M  V30 42 1 8 39
M  V30 43 1 13 40
M  V30 44 1 14 41
M  V30 45 1 19 42
M  V30 46 1 22 43
M  V30 47 1 22 44
M  V30 48 1 24 45
M  V30 49 1 25 46
M  V30 50 1 27 47
M  V30 51 1 28 48
M  V30 52 1 29 49
M  V30 53 1 30 50
M  V30 54 1 31 51
M  V30 END BOND
M  V30 END CTAB
M  END
>  <Dataset>  (430) 
ChEMBL_Kinases

>  <Ligand_Instance>  (430) 
nan

>  <PDB_ID>  (430) 
nan

>  <Standardized_SMILES>  (430) 
COc1ccc(CNS(=O)(=O)c2ccc(-c3nc4cc(C(N)=O)ccc4[nH]3)cc2)cc1

>  <Name>  (430) 
nan

>  <Pocket>  (430) 
nan

>  <ATP_Site>  (430) 
nan

>  <Peripheral>  (430) 
nan

>  <Num_H_Atoms_ProtBoundConf>  (430) 
nan

>  <Num_Resolved_Atoms>  (430) 
nan

>  <Num_Not_Resolved_Atoms>  (430) 
nan

$$$$
CHEMBL3950215
     RDKit          3D

  0  0  0  0  0  0  0  0  0  0999 V3000
M  V30 BEGIN CTAB
M  V30 COUNTS 43 45 0 0 0
M  V30 BEGIN ATOM
M  V30 1 C 0.244568 -2.073035 4.083447 0
M  V30 2 C 0.124599 -0.555578 4.186879 0
M  V30 3 O 1.385222 0.060718 4.073669 0
M  V30 4 C 2.139314 -0.104073 2.931009 0
M  V30 5 C 1.941701 -0.787496 1.743799 0
M  V30 6 C 2.969876 -0.711504 0.810920 0
M  V30 7 C 2.717719 -1.423014 -0.432507 0
M  V30 8 C 1.755061 -1.451855 -1.270170 0
M  V30 9 S 0.153767 -0.585668 -1.342979 0
M  V30 10 C -0.711383 -2.054350 -1.964164 0
M  V30 11 N -1.911209 -2.472463 -1.773697 0
M  V30 12 C -2.844454 -1.756710 -0.960689 0
M  V30 13 C -2.482438 -0.418981 -0.525973 0
M  V30 14 C -2.758535 0.706188 -1.332354 0
M  V30 15 C -2.479330 2.027904 -1.014987 0
M  V30 16 C -1.885187 2.278076 0.180128 0
M  V30 17 C -1.575469 1.265536 1.033948 0
M  V30 18 C -1.874085 -0.019863 0.668506 0
M  V30 19 N 0.330188 -2.597158 -2.777001 0
M  V30 20 C 1.674718 -2.306576 -2.453817 0
M  V30 21 O 2.621007 -2.772675 -3.156472 0
M  V30 22 C 4.148946 -0.024477 0.966799 0
M  V30 23 C 4.337328 0.665864 2.175999 0
M  V30 24 C 3.303724 0.591816 3.119428 0
M  V30 25 O 3.725992 1.351950 4.225552 0
M  V30 26 H 1.310275 -2.326435 3.861711 0
M  V30 27 H -0.402757 -2.499167 3.308186 0
M  V30 28 H -0.025464 -2.562755 5.042005 0
M  V30 29 H -0.571695 -0.253970 3.395507 0
M  V30 30 H -0.280242 -0.345709 5.208468 0
M  V30 31 H 1.008342 -1.287690 1.710345 0
M  V30 32 H 3.598429 -2.062039 -0.630864 0
M  V30 33 H -3.194774 -2.417886 -0.133029 0
M  V30 34 H -3.761848 -1.619868 -1.628173 0
M  V30 35 H -3.244106 0.460217 -2.291966 0
M  V30 36 H -2.770211 2.766660 -1.773951 0
M  V30 37 H -1.674162 3.307032 0.412714 0
M  V30 38 H -1.109298 1.545099 1.951595 0
M  V30 39 H -1.637709 -0.841755 1.334934 0
M  V30 40 H 0.011070 -3.209283 -3.602150 0
M  V30 41 H 4.878508 -0.035214 0.166581 0
M  V30 42 H 5.281951 1.178301 2.220807 0
M  V30 43 H 3.507018 0.992505 5.140797 0
M  V30 END ATOM
M  V30 BEGIN BOND
M  V30 1 1 1 2
M  V30 2 1 2 3
M  V30 3 1 3 4
M  V30 4 2 4 5
M  V30 5 1 5 6
M  V30 6 1 6 7
M  V30 7 2 7 8
M  V30 8 1 8 9
M  V30 9 1 9 10
M  V30 10 2 10 11
M  V30 11 1 11 12
M  V30 12 1 12 13
M  V30 13 2 13 14
M  V30 14 1 14 15
M  V30 15 2 15 16
M  V30 16 1 16 17
M  V30 17 2 17 18
M  V30 18 1 10 19
M  V30 19 1 19 20
M  V30 20 2 20 21
M  V30 21 2 6 22
M  V30 22 1 22 23
M  V30 23 2 23 24
M  V30 24 1 24 25
M  V30 25 1 24 4
M  V30 26 1 20 8
M  V30 27 1 18 13
M  V30 28 1 1 26
M  V30 29 1 1 27
M  V30 30 1 1 28
M  V30 31 1 2 29
M  V30 32 1 2 30
M  V30 33 1 5 31
M  V30 34 1 7 32
M  V30 35 1 12 33
M  V30 36 1 12 34
M  V30 37 1 14 35
M  V30 38 1 15 36
M  V30 39 1 16 37
M  V30 40 1 17 38
M  V30 41 1 18 39
M  V30 42 1 19 40
M  V30 43 1 22 41
M  V30 44 1 23 42
M  V30 45 1 25 43
M  V30 END BOND
M  V30 END CTAB
M  END
>  <Dataset>  (431) 
ChEMBL_Kinases

>  <Ligand_Instance>  (431) 
nan

>  <PDB_ID>  (431) 
nan

>  <Standardized_SMILES>  (431) 
CCOc1cc(/C=C2\S/C(=N\Cc3ccccc3)NC2=O)ccc1O

>  <Name>  (431) 
nan

>  <Pocket>  (431) 
nan

>  <ATP_Site>  (431) 
nan

>  <Peripheral>  (431) 
nan

>  <Num_H_Atoms_ProtBoundConf>  (431) 
nan

>  <Num_Resolved_Atoms>  (431) 
nan

>  <Num_Not_Resolved_Atoms>  (431) 
nan

$$$$
CHEMBL4875431
     RDKit          3D

  0  0  0  0  0  0  0  0  0  0999 V3000
M  V30 BEGIN CTAB
M  V30 COUNTS 41 42 0 0 0
M  V30 BEGIN ATOM
M  V30 1 C 0.507470 -4.363431 3.280469 0
M  V30 2 O -0.423391 -3.413996 3.744821 0
M  V30 3 C -0.437432 -2.088220 3.403888 0
M  V30 4 C 0.535403 -1.635245 2.535172 0
M  V30 5 C 0.571408 -0.314412 2.157044 0
M  V30 6 N 1.545114 0.220780 1.265829 0
M  V30 7 C 1.154360 0.164409 -0.089286 0
M  V30 8 O 0.029536 -0.328440 -0.415691 0
M  V30 9 C 2.098470 0.699661 -1.130035 0
M  V30 10 C 1.496614 0.547523 -2.510852 0
M  V30 11 C 2.391584 1.065510 -3.613176 0
M  V30 12 C 1.685115 0.860873 -4.956924 0
M  V30 13 C 2.675032 2.523616 -3.500944 0
M  V30 14 C -0.385355 0.543605 2.665579 0
M  V30 15 C -1.341191 0.049131 3.532225 0
M  V30 16 C -1.409600 -1.268562 3.934454 0
M  V30 17 C -2.455606 -1.695924 4.852674 0
M  V30 18 C -2.714399 -2.941393 5.382255 0
M  V30 19 N -3.784453 -2.897599 6.193964 0
M  V30 20 C -4.173330 -1.605403 6.150321 0
M  V30 21 O -3.383471 -0.919634 5.360627 0
M  V30 22 H 0.383754 -5.272141 3.912502 0
M  V30 23 H 0.315007 -4.707953 2.238430 0
M  V30 24 H 1.562008 -4.035343 3.414460 0
M  V30 25 H 1.263087 -2.310187 2.154325 0
M  V30 26 H 2.469882 0.622351 1.573403 0
M  V30 27 H 2.415690 1.716188 -0.910895 0
M  V30 28 H 2.993047 0.044112 -1.089651 0
M  V30 29 H 0.579822 1.175227 -2.534732 0
M  V30 30 H 1.167259 -0.492080 -2.703108 0
M  V30 31 H 3.302787 0.450966 -3.641451 0
M  V30 32 H 2.400465 0.851441 -5.780385 0
M  V30 33 H 1.042922 -0.061459 -4.920075 0
M  V30 34 H 0.967102 1.719615 -5.088859 0
M  V30 35 H 3.554099 2.733945 -4.155074 0
M  V30 36 H 2.863277 2.912191 -2.501617 0
M  V30 37 H 1.822759 3.123994 -3.930819 0
M  V30 38 H -0.432415 1.602312 2.420906 0
M  V30 39 H -2.100968 0.732831 3.935441 0
M  V30 40 H -2.166335 -3.850193 5.201685 0
M  V30 41 H -5.032290 -1.254716 6.718182 0
M  V30 END ATOM
M  V30 BEGIN BOND
M  V30 1 1 1 2
M  V30 2 1 2 3
M  V30 3 2 3 4
M  V30 4 1 4 5
M  V30 5 1 5 6
M  V30 6 1 6 7
M  V30 7 2 7 8
M  V30 8 1 7 9
M  V30 9 1 9 10
M  V30 10 1 10 11
M  V30 11 1 11 12
M  V30 12 1 11 13
M  V30 13 2 5 14
M  V30 14 1 14 15
M  V30 15 2 15 16
M  V30 16 1 16 17
M  V30 17 2 17 18
M  V30 18 1 18 19
M  V30 19 2 19 20
M  V30 20 1 20 21
M  V30 21 1 16 3
M  V30 22 1 21 17
M  V30 23 1 1 22
M  V30 24 1 1 23
M  V30 25 1 1 24
M  V30 26 1 4 25
M  V30 27 1 6 26
M  V30 28 1 9 27
M  V30 29 1 9 28
M  V30 30 1 10 29
M  V30 31 1 10 30
M  V30 32 1 11 31
M  V30 33 1 12 32
M  V30 34 1 12 33
M  V30 35 1 12 34
M  V30 36 1 13 35
M  V30 37 1 13 36
M  V30 38 1 13 37
M  V30 39 1 14 38
M  V30 40 1 15 39
M  V30 41 1 18 40
M  V30 42 1 20 41
M  V30 END BOND
M  V30 END CTAB
M  END
>  <Dataset>  (432) 
ChEMBL_Kinases

>  <Ligand_Instance>  (432) 
nan

>  <PDB_ID>  (432) 
nan

>  <Standardized_SMILES>  (432) 
COc1cc(NC(=O)CCC(C)C)ccc1-c1cnco1

>  <Name>  (432) 
nan

>  <Pocket>  (432) 
nan

>  <ATP_Site>  (432) 
nan

>  <Peripheral>  (432) 
nan

>  <Num_H_Atoms_ProtBoundConf>  (432) 
nan

>  <Num_Resolved_Atoms>  (432) 
nan

>  <Num_Not_Resolved_Atoms>  (432) 
nan

$$$$
CHEMBL395016
     RDKit          3D

  0  0  0  0  0  0  0  0  0  0999 V3000
M  V30 BEGIN CTAB
M  V30 COUNTS 32 36 0 0 0
M  V30 BEGIN ATOM
M  V30 1 O -1.469733 -4.849472 1.376820 0
M  V30 2 C -0.467760 -4.109558 1.290671 0
M  V30 3 C 0.962484 -4.504862 1.365551 0
M  V30 4 C 1.697962 -3.359715 0.701926 0
M  V30 5 C 0.719928 -2.227903 0.748377 0
M  V30 6 C -0.545305 -2.665651 1.092678 0
M  V30 7 C -1.572194 -1.725971 1.178885 0
M  V30 8 C -1.342806 -0.395730 0.929770 0
M  V30 9 C -0.090163 0.017466 0.591884 0
M  V30 10 C 0.940046 -0.890142 0.500186 0
M  V30 11 N 2.053001 -0.212894 0.153655 0
M  V30 12 C 1.709629 1.092749 0.034468 0
M  V30 13 C 2.548712 2.134627 -0.306132 0
M  V30 14 C 2.068431 3.425519 -0.392959 0
M  V30 15 C 0.710998 3.621678 -0.122900 0
M  V30 16 C -0.075597 2.550013 0.210573 0
M  V30 17 C 0.370214 1.267172 0.303801 0
M  V30 18 C -2.600699 0.235987 1.112953 0
M  V30 19 O -3.002835 1.404428 1.027282 0
M  V30 20 N -3.595129 -0.707598 1.473118 0
M  V30 21 C -2.975134 -2.006595 1.530218 0
M  V30 22 O -3.489659 -3.114809 1.809093 0
M  V30 23 H 1.301784 -4.543927 2.424218 0
M  V30 24 H 1.186102 -5.421067 0.789911 0
M  V30 25 H 1.978884 -3.600013 -0.355679 0
M  V30 26 H 2.646309 -3.125064 1.226506 0
M  V30 27 H 3.017519 -0.635007 0.003972 0
M  V30 28 H 3.598302 1.987826 -0.515677 0
M  V30 29 H 2.743935 4.226458 -0.661512 0
M  V30 30 H 0.363046 4.641379 -0.198410 0
M  V30 31 H -1.072237 2.791359 0.394264 0
M  V30 32 H -4.620149 -0.644982 1.689862 0
M  V30 END ATOM
M  V30 BEGIN BOND
M  V30 1 2 1 2
M  V30 2 1 2 3
M  V30 3 1 3 4
M  V30 4 1 4 5
M  V30 5 2 5 6
M  V30 6 1 6 7
M  V30 7 2 7 8
M  V30 8 1 8 9
M  V30 9 2 9 10
M  V30 10 1 10 11
M  V30 11 1 11 12
M  V30 12 2 12 13
M  V30 13 1 13 14
M  V30 14 2 14 15
M  V30 15 1 15 16
M  V30 16 2 16 17
M  V30 17 1 8 18
M  V30 18 2 18 19
M  V30 19 1 18 20
M  V30 20 1 20 21
M  V30 21 2 21 22
M  V30 22 1 6 2
M  V30 23 1 21 7
M  V30 24 1 10 5
M  V30 25 1 17 12
M  V30 26 1 17 9
M  V30 27 1 3 23
M  V30 28 1 3 24
M  V30 29 1 4 25
M  V30 30 1 4 26
M  V30 31 1 11 27
M  V30 32 1 13 28
M  V30 33 1 14 29
M  V30 34 1 15 30
M  V30 35 1 16 31
M  V30 36 1 20 32
M  V30 END BOND
M  V30 END CTAB
M  END
>  <Dataset>  (433) 
ChEMBL_Kinases

>  <Ligand_Instance>  (433) 
nan

>  <PDB_ID>  (433) 
nan

>  <Standardized_SMILES>  (433) 
O=C1CCc2c1c1c(c3c2[nH]c2ccccc23)C(=O)NC1=O

>  <Name>  (433) 
nan

>  <Pocket>  (433) 
nan

>  <ATP_Site>  (433) 
nan

>  <Peripheral>  (433) 
nan

>  <Num_H_Atoms_ProtBoundConf>  (433) 
nan

>  <Num_Resolved_Atoms>  (433) 
nan

>  <Num_Not_Resolved_Atoms>  (433) 
nan

$$$$
CHEMBL3949980
     RDKit          3D

  0  0  0  0  0  0  0  0  0  0999 V3000
M  V30 BEGIN CTAB
M  V30 COUNTS 45 48 0 0 0
M  V30 BEGIN ATOM
M  V30 1 C -2.753331 -6.124165 -0.165115 0
M  V30 2 C -3.534802 -4.985369 0.454216 0
M  V30 3 C -4.821719 -4.751023 -0.287101 0
M  V30 4 N -2.689259 -3.830654 0.501187 0
M  V30 5 C -2.808526 -2.563853 0.104606 0
M  V30 6 C -1.663993 -1.913512 0.417080 0
M  V30 7 C -1.293933 -0.522574 0.196117 0
M  V30 8 C -0.043133 -0.053022 0.603036 0
M  V30 9 C 0.375665 1.250095 0.426662 0
M  V30 10 C 1.718904 1.612645 0.901631 0
M  V30 11 C 2.672254 0.616067 0.846814 0
M  V30 12 C 3.968069 0.910307 1.287787 0
M  V30 13 C 4.217307 2.183442 1.752954 0
M  V30 14 C 3.290197 3.208337 1.823709 0
M  V30 15 C 3.886581 4.340827 2.338330 0
M  V30 16 C 5.217556 4.012162 2.593948 0
M  V30 17 N 5.360751 2.708360 2.224901 0
M  V30 18 C 6.634808 1.994685 2.344704 0
M  V30 19 C 2.006804 2.876802 1.374453 0
M  V30 20 C -0.461930 2.162207 -0.180357 0
M  V30 21 N -1.688428 1.717132 -0.583628 0
M  V30 22 C -2.060920 0.439446 -0.394373 0
M  V30 23 N -3.356806 0.078579 -0.850693 0
M  V30 24 N -0.864016 -2.818808 1.006319 0
M  V30 25 N -1.492768 -3.950331 1.045812 0
M  V30 26 H -2.937973 -6.200721 -1.265017 0
M  V30 27 H -1.674255 -5.924770 -0.005330 0
M  V30 28 H -2.951958 -7.092421 0.346398 0
M  V30 29 H -3.707126 -5.301638 1.519974 0
M  V30 30 H -5.066328 -3.693850 -0.410856 0
M  V30 31 H -4.782723 -5.315436 -1.245781 0
M  V30 32 H -5.624919 -5.230610 0.336906 0
M  V30 33 H -3.680586 -2.198169 -0.368327 0
M  V30 34 H 0.634323 -0.773341 1.089460 0
M  V30 35 H 2.548887 -0.396415 0.496867 0
M  V30 36 H 4.754672 0.158285 1.264318 0
M  V30 37 H 3.399910 5.285400 2.502625 0
M  V30 38 H 5.987975 4.650994 3.001148 0
M  V30 39 H 6.561588 1.324223 3.242345 0
M  V30 40 H 6.788357 1.304475 1.488238 0
M  V30 41 H 7.466136 2.679098 2.509364 0
M  V30 42 H 1.257083 3.637329 1.410402 0
M  V30 43 H -0.120238 3.178956 -0.311606 0
M  V30 44 H -3.898894 -0.214567 -1.699526 0
M  V30 45 H -3.940432 0.152392 0.035545 0
M  V30 END ATOM
M  V30 BEGIN BOND
M  V30 1 1 1 2
M  V30 2 1 2 3
M  V30 3 1 2 4
M  V30 4 1 4 5
M  V30 5 2 5 6
M  V30 6 1 6 7
M  V30 7 2 7 8
M  V30 8 1 8 9
M  V30 9 1 9 10
M  V30 10 2 10 11
M  V30 11 1 11 12
M  V30 12 2 12 13
M  V30 13 1 13 14
M  V30 14 1 14 15
M  V30 15 2 15 16
M  V30 16 1 16 17
M  V30 17 1 17 18
M  V30 18 2 14 19
M  V30 19 2 9 20
M  V30 20 1 20 21
M  V30 21 2 21 22
M  V30 22 1 22 23
M  V30 23 1 6 24
M  V30 24 2 24 25
M  V30 25 1 25 4
M  V30 26 1 22 7
M  V30 27 1 19 10
M  V30 28 1 17 13
M  V30 29 1 1 26
M  V30 30 1 1 27
M  V30 31 1 1 28
M  V30 32 1 2 29
M  V30 33 1 3 30
M  V30 34 1 3 31
M  V30 35 1 3 32
M  V30 36 1 5 33
M  V30 37 1 8 34
M  V30 38 1 11 35
M  V30 39 1 12 36
M  V30 40 1 15 37
M  V30 41 1 16 38
M  V30 42 1 18 39
M  V30 43 1 18 40
M  V30 44 1 18 41
M  V30 45 1 19 42
M  V30 46 1 20 43
M  V30 47 1 23 44
M  V30 48 1 23 45
M  V30 END BOND
M  V30 END CTAB
M  END
>  <Dataset>  (434) 
ChEMBL_Kinases

>  <Ligand_Instance>  (434) 
nan

>  <PDB_ID>  (434) 
nan

>  <Standardized_SMILES>  (434) 
CC(C)n1cc(-c2cc(-c3ccc4c(ccn4C)c3)cnc2N)nn1

>  <Name>  (434) 
nan

>  <Pocket>  (434) 
nan

>  <ATP_Site>  (434) 
nan

>  <Peripheral>  (434) 
nan

>  <Num_H_Atoms_ProtBoundConf>  (434) 
nan

>  <Num_Resolved_Atoms>  (434) 
nan

>  <Num_Not_Resolved_Atoms>  (434) 
nan

$$$$
CHEMBL4875475
     RDKit          3D

  0  0  0  0  0  0  0  0  0  0999 V3000
M  V30 BEGIN CTAB
M  V30 COUNTS 45 48 0 0 0
M  V30 BEGIN ATOM
M  V30 1 C 0.483261 -5.188504 2.991598 0
M  V30 2 O 1.236079 -4.139115 2.423791 0
M  V30 3 C 2.520561 -4.358089 1.942685 0
M  V30 4 O 3.101524 -5.473541 1.971779 0
M  V30 5 C 3.242944 -3.228567 1.368076 0
M  V30 6 C 4.521767 -3.361890 0.868548 0
M  V30 7 C 5.174673 -2.281339 0.334714 0
M  V30 8 C 4.603592 -1.009202 0.263455 0
M  V30 9 C 3.324760 -0.881631 0.764380 0
M  V30 10 C 2.602161 0.362257 0.763009 0
M  V30 11 C 1.980614 1.399885 0.773721 0
M  V30 12 C 1.214442 2.632933 0.795677 0
M  V30 13 C 1.913699 3.795105 1.023245 0
M  V30 14 C 1.257510 5.003651 1.058596 0
M  V30 15 C -0.104197 5.024087 0.862659 0
M  V30 16 C -0.742141 3.826785 0.640210 0
M  V30 17 C -0.149807 2.584286 0.591891 0
M  V30 18 N -0.822371 1.359251 0.361384 0
M  V30 19 C -2.185637 1.148780 0.140235 0
M  V30 20 N -3.150929 2.063981 0.099021 0
M  V30 21 C -4.428236 1.745733 -0.121335 0
M  V30 22 N -4.848399 0.486288 -0.319031 0
M  V30 23 C -3.944436 -0.482467 -0.292545 0
M  V30 24 C -4.365276 -1.763503 -0.492685 0
M  V30 25 C -3.471698 -2.811357 -0.476292 0
M  V30 26 C -2.157248 -2.462314 -0.247194 0
M  V30 27 Cl -0.870146 -3.644096 -0.188078 0
M  V30 28 N -1.763367 -1.191574 -0.052092 0
M  V30 29 C -2.637637 -0.141968 -0.065486 0
M  V30 30 C 2.688374 -1.967533 1.292644 0
M  V30 31 H 1.008875 -6.154787 2.932469 0
M  V30 32 H -0.515572 -5.291851 2.510821 0
M  V30 33 H 0.291321 -4.961576 4.065664 0
M  V30 34 H 4.982849 -4.343341 0.915003 0
M  V30 35 H 6.176804 -2.409304 -0.051027 0
M  V30 36 H 5.089222 -0.137438 -0.150121 0
M  V30 37 H 2.984046 3.789051 1.178334 0
M  V30 38 H 1.809053 5.915693 1.237595 0
M  V30 39 H -0.628077 5.968626 0.888679 0
M  V30 40 H -1.804695 3.916475 0.495302 0
M  V30 41 H -0.182094 0.509165 0.362491 0
M  V30 42 H -5.180454 2.538322 -0.144837 0
M  V30 43 H -5.408424 -2.012313 -0.671442 0
M  V30 44 H -3.691261 -3.856183 -0.621548 0
M  V30 45 H 1.672800 -1.889875 1.696185 0
M  V30 END ATOM
M  V30 BEGIN BOND
M  V30 1 1 1 2
M  V30 2 1 2 3
M  V30 3 2 3 4
M  V30 4 1 3 5
M  V30 5 2 5 6
M  V30 6 1 6 7
M  V30 7 2 7 8
M  V30 8 1 8 9
M  V30 9 1 9 10
M  V30 10 3 10 11
M  V30 11 1 11 12
M  V30 12 2 12 13
M  V30 13 1 13 14
M  V30 14 2 14 15
M  V30 15 1 15 16
M  V30 16 2 16 17
M  V30 17 1 17 18
M  V30 18 1 18 19
M  V30 19 2 19 20
M  V30 20 1 20 21
M  V30 21 2 21 22
M  V30 22 1 22 23
M  V30 23 2 23 24
M  V30 24 1 24 25
M  V30 25 2 25 26
M  V30 26 1 26 27
M  V30 27 1 26 28
M  V30 28 2 28 29
M  V30 29 2 9 30
M  V30 30 1 30 5
M  V30 31 1 17 12
M  V30 32 1 29 19
M  V30 33 1 29 23
M  V30 34 1 1 31
M  V30 35 1 1 32
M  V30 36 1 1 33
M  V30 37 1 6 34
M  V30 38 1 7 35
M  V30 39 1 8 36
M  V30 40 1 13 37
M  V30 41 1 14 38
M  V30 42 1 15 39
M  V30 43 1 16 40
M  V30 44 1 18 41
M  V30 45 1 21 42
M  V30 46 1 24 43
M  V30 47 1 25 44
M  V30 48 1 30 45
M  V30 END BOND
M  V30 END CTAB
M  END
>  <Dataset>  (435) 
ChEMBL_Kinases

>  <Ligand_Instance>  (435) 
nan

>  <PDB_ID>  (435) 
nan

>  <Standardized_SMILES>  (435) 
COC(=O)c1cccc(C#Cc2ccccc2Nc2ncnc3ccc(Cl)nc23)c1

>  <Name>  (435) 
nan

>  <Pocket>  (435) 
nan

>  <ATP_Site>  (435) 
nan

>  <Peripheral>  (435) 
nan

>  <Num_H_Atoms_ProtBoundConf>  (435) 
nan

>  <Num_Resolved_Atoms>  (435) 
nan

>  <Num_Not_Resolved_Atoms>  (435) 
nan

$$$$
CHEMBL3950457
     RDKit          3D

  0  0  0  0  0  0  0  0  0  0999 V3000
M  V30 BEGIN CTAB
M  V30 COUNTS 55 56 0 0 0
M  V30 BEGIN ATOM
M  V30 1 C 2.591894 -2.705645 -2.702034 0
M  V30 2 C 2.185199 -2.721408 -1.285100 0 CFG=2
M  V30 3 C 2.944317 -3.553021 -0.406711 0
M  V30 4 C 3.690287 -2.944140 0.502137 0
M  V30 5 C 3.809675 -1.509638 0.674960 0
M  V30 6 O 4.588900 -1.728987 1.691763 0
M  V30 7 C 3.817265 -0.065366 0.700803 0 CFG=1
M  V30 8 O 3.286323 0.651589 -0.347020 0
M  V30 9 C 3.595726 0.558235 2.032347 0 CFG=1
M  V30 10 O 4.473896 1.745829 2.083847 0
M  V30 11 C 2.274917 1.178080 2.299522 0
M  V30 12 C 1.058950 0.391244 2.168168 0
M  V30 13 C 0.110685 0.905584 1.359222 0
M  V30 14 C -1.231700 0.451911 0.964732 0
M  V30 15 C -2.144873 1.383501 1.487601 0
M  V30 16 C -3.515827 1.284455 1.355594 0
M  V30 17 N -4.452401 2.213798 1.869699 0
M  V30 18 C -5.885408 2.094463 1.730857 0
M  V30 19 C -6.303036 0.834890 2.407454 0
M  V30 20 O -7.539518 0.585035 2.373684 0
M  V30 21 O -5.852097 -0.268604 3.119153 0
M  V30 22 C -4.067092 0.227378 0.680423 0
M  V30 23 C -3.213743 -0.707549 0.152390 0
M  V30 24 O -3.413000 -1.896176 -0.578859 0
M  V30 25 C -1.863978 -0.576017 0.300697 0
M  V30 26 C -0.896401 -1.517811 -0.263194 0
M  V30 27 O -0.998332 -2.254045 0.753013 0
M  V30 28 O -0.045710 -1.814919 -1.359101 0
M  V30 29 C 0.692406 -3.002412 -1.155116 0 CFG=1
M  V30 30 C 0.330203 -3.943341 -2.278351 0
M  V30 31 H 3.072129 -3.649163 -3.052159 0
M  V30 32 H 3.352994 -1.913833 -2.947819 0
M  V30 33 H 1.769871 -2.513147 -3.421452 0
M  V30 34 H 2.341298 -1.632479 -0.954773 0
M  V30 35 H 2.678571 -4.518478 -0.759891 0
M  V30 36 H 4.051813 -3.830073 0.915643 0
M  V30 37 H 4.985546 0.196849 0.515434 0
M  V30 38 H 3.091718 1.545782 -0.009581 0
M  V30 39 H 3.931063 -0.032504 2.884827 0
M  V30 40 H 4.572755 1.973590 3.050015 0
M  V30 41 H 2.303429 1.602162 3.373051 0
M  V30 42 H 2.204188 2.138707 1.702288 0
M  V30 43 H 0.974472 -0.540735 2.708596 0
M  V30 44 H 0.320126 1.865237 0.843664 0
M  V30 45 H -1.896992 2.297511 2.057479 0
M  V30 46 H -4.086382 3.043107 2.384825 0
M  V30 47 H -6.189352 2.041610 0.654593 0
M  V30 48 H -6.411103 2.944058 2.183254 0
M  V30 49 H -5.783565 -1.208401 2.760302 0
M  V30 50 H -5.089320 -0.037277 0.465446 0
M  V30 51 H -3.283833 -1.936578 -1.577873 0
M  V30 52 H 0.435808 -3.458687 -0.213463 0
M  V30 53 H -0.307886 -3.447045 -3.063334 0
M  V30 54 H -0.302987 -4.789579 -1.917070 0
M  V30 55 H 1.183197 -4.378481 -2.807335 0
M  V30 END ATOM
M  V30 BEGIN BOND
M  V30 1 1 1 2
M  V30 2 1 2 3
M  V30 3 2 3 4
M  V30 4 1 4 5
M  V30 5 2 5 6
M  V30 6 1 5 7
M  V30 7 1 7 8
M  V30 8 1 7 9
M  V30 9 1 9 10
M  V30 10 1 9 11
M  V30 11 1 11 12
M  V30 12 2 12 13
M  V30 13 1 13 14
M  V30 14 2 14 15
M  V30 15 1 15 16
M  V30 16 1 16 17
M  V30 17 1 17 18
M  V30 18 1 18 19
M  V30 19 2 19 20
M  V30 20 1 19 21
M  V30 21 2 16 22
M  V30 22 1 22 23
M  V30 23 1 23 24
M  V30 24 2 23 25
M  V30 25 1 25 26
M  V30 26 2 26 27
M  V30 27 1 26 28
M  V30 28 1 28 29
M  V30 29 1 29 30
M  V30 30 1 29 2
M  V30 31 1 25 14
M  V30 32 1 1 31
M  V30 33 1 1 32
M  V30 34 1 1 33
M  V30 35 1 2 34 CFG=1
M  V30 36 1 3 35
M  V30 37 1 4 36
M  V30 38 1 7 37 CFG=3
M  V30 39 1 8 38
M  V30 40 1 9 39 CFG=1
M  V30 41 1 10 40
M  V30 42 1 11 41
M  V30 43 1 11 42
M  V30 44 1 12 43
M  V30 45 1 13 44
M  V30 46 1 15 45
M  V30 47 1 17 46
M  V30 48 1 18 47
M  V30 49 1 18 48
M  V30 50 1 21 49
M  V30 51 1 22 50
M  V30 52 1 24 51
M  V30 53 1 29 52 CFG=1
M  V30 54 1 30 53
M  V30 55 1 30 54
M  V30 56 1 30 55
M  V30 END BOND
M  V30 END CTAB
M  END
>  <Dataset>  (436) 
ChEMBL_Kinases

>  <Ligand_Instance>  (436) 
nan

>  <PDB_ID>  (436) 
nan

>  <Standardized_SMILES>  (436) 
C[C@@H]1/C=C\C(=O)[C@@H](O)[C@@H](O)C/C=C/c2cc(NCC(=O)O)cc(O)c2C(=O)O[C@H]1C

>  <Name>  (436) 
nan

>  <Pocket>  (436) 
nan

>  <ATP_Site>  (436) 
nan

>  <Peripheral>  (436) 
nan

>  <Num_H_Atoms_ProtBoundConf>  (436) 
nan

>  <Num_Resolved_Atoms>  (436) 
nan

>  <Num_Not_Resolved_Atoms>  (436) 
nan

$$$$
CHEMBL3952937
     RDKit          3D

  0  0  0  0  0  0  0  0  0  0999 V3000
M  V30 BEGIN CTAB
M  V30 COUNTS 37 40 0 0 0
M  V30 BEGIN ATOM
M  V30 1 C -3.125780 -2.876905 -0.904998 0
M  V30 2 O -2.492054 -1.681205 -0.476768 0
M  V30 3 C -1.313476 -1.312926 -1.103062 0
M  V30 4 C -0.676899 -1.982304 -2.109960 0
M  V30 5 C 0.495725 -1.499093 -2.641934 0
M  V30 6 N 1.144820 -2.175310 -3.629885 0
M  V30 7 C 2.314362 -1.688775 -4.129272 0
M  V30 8 C 2.913249 -0.523003 -3.698332 0
M  V30 9 C 2.285404 0.200153 -2.690879 0
M  V30 10 C 1.124343 -0.340771 -2.237490 0
M  V30 11 C 0.430090 0.300974 -1.209637 0
M  V30 12 C -0.754072 -0.147105 -0.638052 0
M  V30 13 N -1.248589 0.708578 0.418881 0
M  V30 14 C -0.483503 0.185362 1.488461 0
M  V30 15 O 0.254598 -0.751576 1.080721 0
M  V30 16 C -0.464128 0.594513 2.902260 0
M  V30 17 C -1.250426 1.389172 3.710391 0
M  V30 18 N -0.691227 1.374969 4.953574 0
M  V30 19 N 0.406221 0.591656 4.899780 0
M  V30 20 C 1.171505 0.396349 6.026294 0
M  V30 21 C 2.244070 -0.457371 5.688379 0
M  V30 22 C 2.508076 -1.014822 4.466630 0
M  V30 23 N 1.632930 -0.667805 3.590559 0
M  V30 24 C 0.587890 0.089029 3.662066 0
M  V30 25 H -3.978725 -3.145467 -0.250620 0
M  V30 26 H -3.463246 -2.714149 -1.952835 0
M  V30 27 H -2.423013 -3.729608 -0.877479 0
M  V30 28 H -1.123974 -2.885900 -2.455505 0
M  V30 29 H 2.871812 -2.200832 -4.916677 0
M  V30 30 H 3.840871 -0.169638 -4.119556 0
M  V30 31 H 2.702346 1.108958 -2.315170 0
M  V30 32 H 0.889403 1.237352 -0.847003 0
M  V30 33 H -1.893476 1.488871 0.648969 0
M  V30 34 H -2.111872 1.850791 3.240853 0
M  V30 35 H 0.978669 0.827308 6.984969 0
M  V30 36 H 2.926053 -0.678021 6.538503 0
M  V30 37 H 3.369669 -1.657870 4.346796 0
M  V30 END ATOM
M  V30 BEGIN BOND
M  V30 1 1 1 2
M  V30 2 1 2 3
M  V30 3 2 3 4
M  V30 4 1 4 5
M  V30 5 2 5 6
M  V30 6 1 6 7
M  V30 7 2 7 8
M  V30 8 1 8 9
M  V30 9 2 9 10
M  V30 10 1 10 11
M  V30 11 2 11 12
M  V30 12 1 12 13
M  V30 13 1 13 14
M  V30 14 2 14 15
M  V30 15 1 14 16
M  V30 16 1 16 17
M  V30 17 2 17 18
M  V30 18 1 18 19
M  V30 19 1 19 20
M  V30 20 2 20 21
M  V30 21 1 21 22
M  V30 22 2 22 23
M  V30 23 1 23 24
M  V30 24 1 12 3
M  V30 25 2 24 16
M  V30 26 1 10 5
M  V30 27 1 24 19
M  V30 28 1 1 25
M  V30 29 1 1 26
M  V30 30 1 1 27
M  V30 31 1 4 28
M  V30 32 1 7 29
M  V30 33 1 8 30
M  V30 34 1 9 31
M  V30 35 1 11 32
M  V30 36 1 13 33
M  V30 37 1 17 34
M  V30 38 1 20 35
M  V30 39 1 21 36
M  V30 40 1 22 37
M  V30 END BOND
M  V30 END CTAB
M  END
>  <Dataset>  (437) 
ChEMBL_Kinases

>  <Ligand_Instance>  (437) 
nan

>  <PDB_ID>  (437) 
nan

>  <Standardized_SMILES>  (437) 
COc1cc2ncccc2cc1NC(=O)c1cnn2cccnc12

>  <Name>  (437) 
nan

>  <Pocket>  (437) 
nan

>  <ATP_Site>  (437) 
nan

>  <Peripheral>  (437) 
nan

>  <Num_H_Atoms_ProtBoundConf>  (437) 
nan

>  <Num_Resolved_Atoms>  (437) 
nan

>  <Num_Not_Resolved_Atoms>  (437) 
nan

$$$$
CHEMBL3952770
     RDKit          3D

  0  0  0  0  0  0  0  0  0  0999 V3000
M  V30 BEGIN CTAB
M  V30 COUNTS 57 61 0 0 0
M  V30 BEGIN ATOM
M  V30 1 O -0.929674 -2.117331 5.539938 0
M  V30 2 C -0.439811 -2.171970 4.386028 0
M  V30 3 N -0.019641 -3.379819 3.943398 0
M  V30 4 N 0.452943 -3.185604 2.713819 0
M  V30 5 C 0.329281 -1.876973 2.394914 0
M  V30 6 C 0.709864 -1.149529 1.135607 0 CFG=2
M  V30 7 C 2.135628 -0.707448 1.373988 0
M  V30 8 C 2.741122 0.037473 0.265747 0
M  V30 9 C 3.443016 -0.588343 -0.768891 0
M  V30 10 C 4.006231 0.145605 -1.806649 0
M  V30 11 C 3.860073 1.533407 -1.802331 0
M  V30 12 C 3.150245 2.070946 -0.739986 0
M  V30 13 N 2.998254 3.483488 -0.730354 0
M  V30 14 C 2.291856 4.169374 0.301584 0
M  V30 15 C 2.030781 5.528801 0.497292 0
M  V30 16 C 1.297793 5.648573 1.667465 0
M  V30 17 N 1.127335 4.414243 2.151508 0
M  V30 18 N 1.709103 3.532141 1.354892 0
M  V30 19 N 2.600272 1.377952 0.269394 0
M  V30 20 C -0.228575 -0.033295 0.833831 0
M  V30 21 C -1.057018 -0.288440 -0.425761 0
M  V30 22 C -1.709423 -1.625065 -0.280874 0 CFG=1
M  V30 23 S -2.967720 -1.900166 -1.503073 0 CHG=1 VAL=3
M  V30 24 O -2.357495 -1.833040 -3.051739 0 CHG=-1 VAL=1
M  V30 25 C -3.761633 -3.422510 -1.160460 0
M  V30 26 C -3.398516 -4.664755 -1.638182 0
M  V30 27 C -4.153670 -5.774370 -1.256263 0
M  V30 28 C -5.248544 -5.655928 -0.416499 0
M  V30 29 C -5.603001 -4.391213 0.058457 0
M  V30 30 Cl -7.003675 -4.279697 1.126142 0
M  V30 31 C -4.862161 -3.269893 -0.310801 0
M  V30 32 Cl -5.409221 -1.750216 0.350637 0
M  V30 33 C -0.648009 -2.684621 -0.308651 0
M  V30 34 C 0.711180 -2.125948 -0.015342 0
M  V30 35 O -0.215719 -1.279741 3.425908 0
M  V30 36 H 0.038407 -4.372617 4.271469 0
M  V30 37 H 2.232397 -0.098989 2.304020 0
M  V30 38 H 2.692920 -1.655198 1.613152 0
M  V30 39 H 3.555976 -1.667296 -0.771126 0
M  V30 40 H 4.555852 -0.318669 -2.621154 0
M  V30 41 H 4.268927 2.172811 -2.573564 0
M  V30 42 H 3.384306 4.117788 -1.463759 0
M  V30 43 H 2.383476 6.291902 -0.203578 0
M  V30 44 H 0.964674 6.600068 2.048654 0
M  V30 45 H 0.594500 4.255501 3.043426 0
M  V30 46 H -0.972782 0.046138 1.676988 0
M  V30 47 H 0.296401 0.913959 0.658614 0
M  V30 48 H -0.360657 -0.306037 -1.274429 0
M  V30 49 H -1.809019 0.527212 -0.499275 0
M  V30 50 H -2.180721 -1.649312 0.715267 0
M  V30 51 H -2.543639 -4.675212 -2.280282 0
M  V30 52 H -3.833278 -6.727574 -1.654115 0
M  V30 53 H -5.820887 -6.548411 -0.135569 0
M  V30 54 H -0.619843 -3.059344 -1.368931 0
M  V30 55 H -0.898555 -3.564556 0.294771 0
M  V30 56 H 1.392483 -2.971732 0.224175 0
M  V30 57 H 1.159603 -1.610273 -0.888356 0
M  V30 END ATOM
M  V30 BEGIN BOND
M  V30 1 2 1 2
M  V30 2 1 2 3
M  V30 3 1 3 4
M  V30 4 2 4 5
M  V30 5 1 5 6
M  V30 6 1 6 7 CFG=1
M  V30 7 1 7 8
M  V30 8 2 8 9
M  V30 9 1 9 10
M  V30 10 2 10 11
M  V30 11 1 11 12
M  V30 12 1 12 13
M  V30 13 1 13 14
M  V30 14 1 14 15
M  V30 15 2 15 16
M  V30 16 1 16 17
M  V30 17 1 17 18
M  V30 18 2 12 19
M  V30 19 1 6 20
M  V30 20 1 20 21
M  V30 21 1 21 22
M  V30 22 1 22 23
M  V30 23 1 23 24
M  V30 24 1 23 25
M  V30 25 2 25 26
M  V30 26 1 26 27
M  V30 27 2 27 28
M  V30 28 1 28 29
M  V30 29 1 29 30
M  V30 30 2 29 31
M  V30 31 1 31 32
M  V30 32 1 22 33
M  V30 33 1 33 34
M  V30 34 1 5 35
M  V30 35 1 35 2
M  V30 36 1 34 6
M  V30 37 1 19 8
M  V30 38 1 31 25
M  V30 39 2 18 14
M  V30 40 1 3 36
M  V30 41 1 7 37
M  V30 42 1 7 38
M  V30 43 1 9 39
M  V30 44 1 10 40
M  V30 45 1 11 41
M  V30 46 1 13 42
M  V30 47 1 15 43
M  V30 48 1 16 44
M  V30 49 1 17 45
M  V30 50 1 20 46
M  V30 51 1 20 47
M  V30 52 1 21 48
M  V30 53 1 21 49
M  V30 54 1 22 50 CFG=1
M  V30 55 1 26 51
M  V30 56 1 27 52
M  V30 57 1 28 53
M  V30 58 1 33 54
M  V30 59 1 33 55
M  V30 60 1 34 56
M  V30 61 1 34 57
M  V30 END BOND
M  V30 END CTAB
M  END
>  <Dataset>  (438) 
ChEMBL_Kinases

>  <Ligand_Instance>  (438) 
nan

>  <PDB_ID>  (438) 
nan

>  <Standardized_SMILES>  (438) 
O=c1[nH]nc([C@]2(Cc3cccc(Nc4cc[nH]n4)n3)CC[C@@H]([S+]([O-])c3cccc(Cl)c3Cl)CC2)o1

>  <Name>  (438) 
nan

>  <Pocket>  (438) 
nan

>  <ATP_Site>  (438) 
nan

>  <Peripheral>  (438) 
nan

>  <Num_H_Atoms_ProtBoundConf>  (438) 
nan

>  <Num_Resolved_Atoms>  (438) 
nan

>  <Num_Not_Resolved_Atoms>  (438) 
nan

$$$$
CHEMBL698
     RDKit          3D

  0  0  0  0  0  0  0  0  0  0999 V3000
M  V30 BEGIN CTAB
M  V30 COUNTS 43 43 0 0 0
M  V30 BEGIN ATOM
M  V30 1 C -1.264728 -4.108568 4.673325 0
M  V30 2 C -2.295945 -4.456616 3.644194 0
M  V30 3 C -1.871348 -4.078218 2.239243 0
M  V30 4 C -0.614951 -4.764837 1.816812 0
M  V30 5 N -0.166280 -4.430529 0.485518 0
M  V30 6 C 0.337997 -3.194549 0.016561 0
M  V30 7 C 0.530236 -2.069437 0.786580 0
M  V30 8 C 1.007148 -0.866680 0.336197 0
M  V30 9 C 1.327471 -0.755938 -1.000074 0
M  V30 10 C 1.840065 0.493151 -1.549015 0
M  V30 11 O 2.128490 0.578520 -2.773212 0
M  V30 12 O 2.006292 1.581933 -0.713460 0
M  V30 13 C 2.499169 2.839358 -1.157619 0
M  V30 14 C 2.526784 3.748228 0.060559 0
M  V30 15 N 1.195983 3.857424 0.566663 0
M  V30 16 C 1.076012 4.701294 1.737072 0
M  V30 17 C 0.217039 4.177847 -0.445488 0
M  V30 18 C 1.155491 -1.851231 -1.818670 0
M  V30 19 C 0.671927 -3.035015 -1.309972 0
M  V30 20 H -1.719224 -3.636279 5.589895 0
M  V30 21 H -0.714453 -5.005213 5.025892 0
M  V30 22 H -0.509469 -3.383265 4.310444 0
M  V30 23 H -3.213672 -3.875652 3.870525 0
M  V30 24 H -2.575088 -5.533125 3.646186 0
M  V30 25 H -2.722040 -4.445425 1.587199 0
M  V30 26 H -1.826505 -3.003103 2.110999 0
M  V30 27 H -0.788624 -5.854790 1.908957 0
M  V30 28 H 0.208901 -4.566484 2.571826 0
M  V30 29 H -0.224202 -5.214783 -0.229108 0
M  V30 30 H 0.308946 -2.097685 1.831945 0
M  V30 31 H 1.139844 -0.010026 0.984948 0
M  V30 32 H 1.811005 3.265461 -1.926057 0
M  V30 33 H 3.497972 2.742210 -1.640501 0
M  V30 34 H 2.897299 4.754205 -0.192661 0
M  V30 35 H 3.143246 3.236733 0.825242 0
M  V30 36 H 1.535546 4.209766 2.620944 0
M  V30 37 H -0.011436 4.792426 1.959104 0
M  V30 38 H 1.452206 5.726548 1.576259 0
M  V30 39 H -0.041947 3.263477 -1.026648 0
M  V30 40 H -0.672821 4.688197 -0.076445 0
M  V30 41 H 0.736710 4.860153 -1.159988 0
M  V30 42 H 1.402012 -1.784101 -2.873075 0
M  V30 43 H 0.553910 -3.874763 -2.002303 0
M  V30 END ATOM
M  V30 BEGIN BOND
M  V30 1 1 1 2
M  V30 2 1 2 3
M  V30 3 1 3 4
M  V30 4 1 4 5
M  V30 5 1 5 6
M  V30 6 2 6 7
M  V30 7 1 7 8
M  V30 8 2 8 9
M  V30 9 1 9 10
M  V30 10 2 10 11
M  V30 11 1 10 12
M  V30 12 1 12 13
M  V30 13 1 13 14
M  V30 14 1 14 15
M  V30 15 1 15 16
M  V30 16 1 15 17
M  V30 17 1 9 18
M  V30 18 2 18 19
M  V30 19 1 19 6
M  V30 20 1 1 20
M  V30 21 1 1 21
M  V30 22 1 1 22
M  V30 23 1 2 23
M  V30 24 1 2 24
M  V30 25 1 3 25
M  V30 26 1 3 26
M  V30 27 1 4 27
M  V30 28 1 4 28
M  V30 29 1 5 29
M  V30 30 1 7 30
M  V30 31 1 8 31
M  V30 32 1 13 32
M  V30 33 1 13 33
M  V30 34 1 14 34
M  V30 35 1 14 35
M  V30 36 1 16 36
M  V30 37 1 16 37
M  V30 38 1 16 38
M  V30 39 1 17 39
M  V30 40 1 17 40
M  V30 41 1 17 41
M  V30 42 1 18 42
M  V30 43 1 19 43
M  V30 END BOND
M  V30 END CTAB
M  END
>  <Dataset>  (439) 
ChEMBL_Kinases

>  <Ligand_Instance>  (439) 
nan

>  <PDB_ID>  (439) 
nan

>  <Standardized_SMILES>  (439) 
CCCCNc1ccc(C(=O)OCCN(C)C)cc1

>  <Name>  (439) 
TETRACAINE

>  <Pocket>  (439) 
nan

>  <ATP_Site>  (439) 
nan

>  <Peripheral>  (439) 
nan

>  <Num_H_Atoms_ProtBoundConf>  (439) 
nan

>  <Num_Resolved_Atoms>  (439) 
nan

>  <Num_Not_Resolved_Atoms>  (439) 
nan

$$$$
CHEMBL395277
     RDKit          3D

  0  0  0  0  0  0  0  0  0  0999 V3000
M  V30 BEGIN CTAB
M  V30 COUNTS 46 49 0 0 0
M  V30 BEGIN ATOM
M  V30 1 C -4.870905 -5.549638 -2.311111 0
M  V30 2 O -4.111159 -4.459859 -1.768411 0
M  V30 3 C -2.769252 -4.415644 -2.105875 0
M  V30 4 O -2.397693 -5.363377 -2.861309 0
M  V30 5 C -1.864746 -3.349394 -1.618194 0
M  V30 6 C -0.551495 -3.454419 -2.046015 0
M  V30 7 C 0.405331 -2.515391 -1.657350 0
M  V30 8 C -0.031922 -1.487233 -0.829892 0
M  V30 9 C 0.973614 -0.494694 -0.414933 0
M  V30 10 C 2.054263 -0.101925 -1.178270 0
M  V30 11 C 2.946523 0.846158 -0.686927 0
M  V30 12 C 2.775944 1.413259 0.564867 0
M  V30 13 C 1.671768 0.988753 1.303046 0
M  V30 14 C 0.772126 0.050396 0.839030 0
M  V30 15 N 1.350987 1.478475 2.618895 0
M  V30 16 C 2.220907 2.043144 3.623345 0
M  V30 17 C 1.681192 1.811778 4.882973 0
M  V30 18 C 2.397057 2.293571 5.981631 0
M  V30 19 C 3.600846 2.973511 5.765987 0
M  V30 20 C 4.092798 3.176180 4.487428 0
M  V30 21 C 3.403133 2.708502 3.374172 0
M  V30 22 N 4.041965 2.997813 2.136279 0
M  V30 23 C 3.832108 2.374953 0.859296 0
M  V30 24 O 4.627019 2.695819 -0.056605 0
M  V30 25 C -1.339833 -1.378713 -0.401138 0
M  V30 26 C -2.287411 -2.322641 -0.795834 0
M  V30 27 O -3.617644 -2.278620 -0.405548 0
M  V30 28 C -4.219063 -1.331395 0.410918 0
M  V30 29 H -4.955233 -5.412824 -3.403816 0
M  V30 30 H -4.276789 -6.498569 -2.169819 0
M  V30 31 H -5.824015 -5.700369 -1.804850 0
M  V30 32 H -0.214378 -4.270241 -2.700286 0
M  V30 33 H 1.419988 -2.622416 -2.005952 0
M  V30 34 H 2.155929 -0.569027 -2.156318 0
M  V30 35 H 3.787978 1.142914 -1.297679 0
M  V30 36 H -0.062771 -0.214493 1.497041 0
M  V30 37 H 0.337418 1.403698 2.856819 0
M  V30 38 H 0.734446 1.272272 4.975688 0
M  V30 39 H 1.975938 2.112425 6.960927 0
M  V30 40 H 4.124365 3.330666 6.643181 0
M  V30 41 H 5.040906 3.713438 4.329377 0
M  V30 42 H 4.752425 3.767430 2.188580 0
M  V30 43 H -1.636596 -0.562488 0.242210 0
M  V30 44 H -4.531177 -1.857777 1.360580 0
M  V30 45 H -3.600022 -0.497302 0.747685 0
M  V30 46 H -5.126575 -0.933176 -0.085922 0
M  V30 END ATOM
M  V30 BEGIN BOND
M  V30 1 1 1 2
M  V30 2 1 2 3
M  V30 3 2 3 4
M  V30 4 1 3 5
M  V30 5 2 5 6
M  V30 6 1 6 7
M  V30 7 2 7 8
M  V30 8 1 8 9
M  V30 9 2 9 10
M  V30 10 1 10 11
M  V30 11 2 11 12
M  V30 12 1 12 13
M  V30 13 2 13 14
M  V30 14 1 13 15
M  V30 15 1 15 16
M  V30 16 2 16 17
M  V30 17 1 17 18
M  V30 18 2 18 19
M  V30 19 1 19 20
M  V30 20 2 20 21
M  V30 21 1 21 22
M  V30 22 1 22 23
M  V30 23 2 23 24
M  V30 24 1 8 25
M  V30 25 2 25 26
M  V30 26 1 26 27
M  V30 27 1 27 28
M  V30 28 1 26 5
M  V30 29 1 14 9
M  V30 30 1 21 16
M  V30 31 1 23 12
M  V30 32 1 1 29
M  V30 33 1 1 30
M  V30 34 1 1 31
M  V30 35 1 6 32
M  V30 36 1 7 33
M  V30 37 1 10 34
M  V30 38 1 11 35
M  V30 39 1 14 36
M  V30 40 1 15 37
M  V30 41 1 17 38
M  V30 42 1 18 39
M  V30 43 1 19 40
M  V30 44 1 20 41
M  V30 45 1 22 42
M  V30 46 1 25 43
M  V30 47 1 28 44
M  V30 48 1 28 45
M  V30 49 1 28 46
M  V30 END BOND
M  V30 END CTAB
M  END
>  <Dataset>  (440) 
ChEMBL_Kinases

>  <Ligand_Instance>  (440) 
nan

>  <PDB_ID>  (440) 
nan

>  <Standardized_SMILES>  (440) 
COC(=O)c1ccc(-c2ccc3c(c2)Nc2ccccc2NC3=O)cc1OC

>  <Name>  (440) 
nan

>  <Pocket>  (440) 
nan

>  <ATP_Site>  (440) 
nan

>  <Peripheral>  (440) 
nan

>  <Num_H_Atoms_ProtBoundConf>  (440) 
nan

>  <Num_Resolved_Atoms>  (440) 
nan

>  <Num_Not_Resolved_Atoms>  (440) 
nan

$$$$
CHEMBL3952670
     RDKit          3D

  0  0  0  0  0  0  0  0  0  0999 V3000
M  V30 BEGIN CTAB
M  V30 COUNTS 67 72 0 0 0
M  V30 BEGIN ATOM
M  V30 1 O -1.127129 -2.003555 3.129522 0
M  V30 2 C -0.186377 -1.867811 3.899005 0
M  V30 3 N 1.061375 -1.630493 3.306562 0
M  V30 4 C 1.311295 -1.538210 1.907251 0
M  V30 5 N 1.329102 -0.563948 0.953799 0
M  V30 6 C 1.645504 -1.106096 -0.231012 0
M  V30 7 C 1.782377 -0.513777 -1.471449 0
M  V30 8 C 2.123174 -1.307845 -2.560722 0
M  V30 9 C 2.257315 -0.623645 -3.865196 0
M  V30 10 O 2.635852 -1.498867 -4.874690 0
M  V30 11 C 3.345184 0.401086 -3.732623 0
M  V30 12 C 4.673475 0.206470 -3.417318 0
M  V30 13 C 5.528394 1.302876 -3.335483 0
M  V30 14 C 5.028112 2.575696 -3.573152 0
M  V30 15 C 3.698687 2.776582 -3.889543 0
M  V30 16 C 2.844127 1.676340 -3.971060 0
M  V30 17 C 1.417693 1.543923 -4.283989 0
M  V30 18 O 0.714858 2.556198 -4.541999 0
M  V30 19 N 1.087318 0.141706 -4.224224 0
M  V30 20 C -0.262013 -0.283758 -4.512957 0
M  V30 21 C -1.141938 -0.332488 -3.326237 0
M  V30 22 C -1.289628 -1.471339 -2.539918 0
M  V30 23 C -2.079119 -1.602928 -1.430407 0
M  V30 24 C -2.788787 -0.479042 -1.078243 0
M  V30 25 C -2.692715 0.687937 -1.811046 0
M  V30 26 C -1.874604 0.769411 -2.932316 0
M  V30 27 C 2.309331 -2.649675 -2.356022 0
M  V30 28 C 2.175295 -3.251426 -1.122424 0
M  V30 29 C 1.832870 -2.471921 -0.011237 0
M  V30 30 N 1.620655 -2.705109 1.310078 0
M  V30 31 O -0.181588 -1.914319 5.232179 0
M  V30 32 C -1.144795 -2.098509 6.202358 0
M  V30 33 C -2.103675 -0.971293 6.300482 0
M  V30 34 C -3.141069 -1.225781 7.405404 0
M  V30 35 C -4.404113 -1.687635 6.719762 0
M  V30 36 N -5.035906 -0.568380 6.013606 0
M  V30 37 C -4.004531 0.351885 5.552937 0
M  V30 38 C -2.866760 -0.587459 5.078922 0
M  V30 39 H 1.982453 -1.488707 3.811478 0
M  V30 40 H 1.620506 0.558911 -1.567020 0
M  V30 41 H 1.874665 -2.000730 -5.220727 0
M  V30 42 H 5.064812 -0.790513 -3.231324 0
M  V30 43 H 6.566507 1.114023 -3.085329 0
M  V30 44 H 5.728987 3.388602 -3.497523 0
M  V30 45 H 3.320668 3.768302 -4.071989 0
M  V30 46 H -0.771974 0.390126 -5.244082 0
M  V30 47 H -0.272619 -1.289087 -5.003406 0
M  V30 48 H -0.692317 -2.320384 -2.886567 0
M  V30 49 H -2.119907 -2.537284 -0.891414 0
M  V30 50 H -3.442460 -0.504550 -0.202996 0
M  V30 51 H -3.288583 1.535452 -1.465364 0
M  V30 52 H -1.817279 1.699665 -3.490946 0
M  V30 53 H 2.570847 -3.222519 -3.225735 0
M  V30 54 H 2.325053 -4.314531 -0.972538 0
M  V30 55 H 1.727831 -3.706842 1.630903 0
M  V30 56 H -0.683604 -2.342129 7.186193 0
M  V30 57 H -1.779121 -3.016465 5.981181 0
M  V30 58 H -1.555242 -0.046717 6.684643 0
M  V30 59 H -2.809883 -2.051327 8.079829 0
M  V30 60 H -3.310559 -0.337713 8.012011 0
M  V30 61 H -5.118771 -1.992407 7.509293 0
M  V30 62 H -4.247173 -2.538485 6.054357 0
M  V30 63 H -5.463211 -0.976510 5.157528 0
M  V30 64 H -4.330110 1.035666 4.775517 0
M  V30 65 H -3.592762 0.893794 6.421359 0
M  V30 66 H -3.292263 -1.460037 4.580796 0
M  V30 67 H -2.280976 0.017375 4.358048 0
M  V30 END ATOM
M  V30 BEGIN BOND
M  V30 1 2 1 2
M  V30 2 1 2 3
M  V30 3 1 3 4
M  V30 4 2 4 5
M  V30 5 1 5 6
M  V30 6 2 6 7
M  V30 7 1 7 8
M  V30 8 1 8 9
M  V30 9 1 9 10
M  V30 10 1 9 11
M  V30 11 2 11 12
M  V30 12 1 12 13
M  V30 13 2 13 14
M  V30 14 1 14 15
M  V30 15 2 15 16
M  V30 16 1 16 17
M  V30 17 2 17 18
M  V30 18 1 17 19
M  V30 19 1 19 20
M  V30 20 1 20 21
M  V30 21 2 21 22
M  V30 22 1 22 23
M  V30 23 2 23 24
M  V30 24 1 24 25
M  V30 25 2 25 26
M  V30 26 2 8 27
M  V30 27 1 27 28
M  V30 28 2 28 29
M  V30 29 1 29 30
M  V30 30 1 2 31
M  V30 31 1 31 32
M  V30 32 1 32 33
M  V30 33 1 33 34
M  V30 34 1 34 35
M  V30 35 1 35 36
M  V30 36 1 36 37
M  V30 37 1 37 38
M  V30 38 1 30 4
M  V30 39 1 38 33
M  V30 40 1 29 6
M  V30 41 1 19 9
M  V30 42 1 26 21
M  V30 43 1 16 11
M  V30 44 1 3 39
M  V30 45 1 7 40
M  V30 46 1 10 41
M  V30 47 1 12 42
M  V30 48 1 13 43
M  V30 49 1 14 44
M  V30 50 1 15 45
M  V30 51 1 20 46
M  V30 52 1 20 47
M  V30 53 1 22 48
M  V30 54 1 23 49
M  V30 55 1 24 50
M  V30 56 1 25 51
M  V30 57 1 26 52
M  V30 58 1 27 53
M  V30 59 1 28 54
M  V30 60 1 30 55
M  V30 61 1 32 56
M  V30 62 1 32 57
M  V30 63 1 33 58
M  V30 64 1 34 59
M  V30 65 1 34 60
M  V30 66 1 35 61
M  V30 67 1 35 62
M  V30 68 1 36 63
M  V30 69 1 37 64
M  V30 70 1 37 65
M  V30 71 1 38 66
M  V30 72 1 38 67
M  V30 END BOND
M  V30 END CTAB
M  END
>  <Dataset>  (441) 
ChEMBL_Kinases

>  <Ligand_Instance>  (441) 
nan

>  <PDB_ID>  (441) 
nan

>  <Standardized_SMILES>  (441) 
O=C(Nc1nc2cc(C3(O)c4ccccc4C(=O)N3Cc3ccccc3)ccc2[nH]1)OCC1CCNCC1

>  <Name>  (441) 
nan

>  <Pocket>  (441) 
nan

>  <ATP_Site>  (441) 
nan

>  <Peripheral>  (441) 
nan

>  <Num_H_Atoms_ProtBoundConf>  (441) 
nan

>  <Num_Resolved_Atoms>  (441) 
nan

>  <Num_Not_Resolved_Atoms>  (441) 
nan

$$$$
CHEMBL3952506
     RDKit          3D

  0  0  0  0  0  0  0  0  0  0999 V3000
M  V30 BEGIN CTAB
M  V30 COUNTS 72 75 0 0 0
M  V30 BEGIN ATOM
M  V30 1 C 1.998517 -0.022065 3.580718 0
M  V30 2 C 2.258188 -0.287035 2.153805 0
M  V30 3 C 3.572605 -0.299270 1.728616 0
M  V30 4 C 3.794154 -0.560925 0.371283 0
M  V30 5 C 2.726490 -0.796510 -0.499643 0
M  V30 6 N 3.210463 -1.035075 -1.818065 0
M  V30 7 C 3.600030 -2.190722 -2.531963 0
M  V30 8 O 3.559680 -3.328611 -2.006391 0
M  V30 9 C 4.055697 -2.062747 -3.897943 0
M  V30 10 C 4.417742 -3.209733 -4.541902 0
M  V30 11 C 4.866772 -3.154939 -5.861029 0
M  V30 12 N 4.937607 -1.980727 -6.480129 0
M  V30 13 C 4.599767 -0.818310 -5.911662 0
M  V30 14 C 4.670959 0.509184 -6.583893 0
M  V30 15 C 3.401683 0.878212 -7.299390 0
M  V30 16 F 4.882630 1.497332 -5.616125 0
M  V30 17 F 5.754965 0.587805 -7.435384 0
M  V30 18 C 4.155985 -0.900502 -4.597837 0
M  V30 19 C 1.447040 -0.771856 -0.023402 0
M  V30 20 C 1.196330 -0.517646 1.304775 0
M  V30 21 C -0.208164 -0.506210 1.701626 0
M  V30 22 C -1.027971 -1.543865 1.310351 0
M  V30 23 C -2.349694 -1.501065 1.696352 0
M  V30 24 O -3.128492 -2.569003 1.276698 0
M  V30 25 C -4.492153 -2.590028 1.637081 0
M  V30 26 C -5.123505 -3.856372 1.061434 0
M  V30 27 O -4.975068 -3.806620 -0.322635 0
M  V30 28 P -5.622542 -5.185367 -1.067984 0
M  V30 29 O -6.568667 -4.817303 -2.164217 0
M  V30 30 O -6.452924 -6.055642 0.134101 0
M  V30 31 O -4.351768 -6.176804 -1.610397 0
M  V30 32 N -2.893843 -0.492042 2.442414 0
M  V30 33 C -2.109381 0.522646 2.828953 0
M  V30 34 N -2.733342 1.534469 3.605909 0
M  V30 35 C -4.049596 1.156551 4.158058 0
M  V30 36 C -4.135775 1.756105 5.534104 0
M  V30 37 O -2.897956 1.927686 6.151971 0
M  V30 38 C -2.152986 2.930850 5.526884 0
M  V30 39 C -2.432128 2.877500 4.017915 0 CFG=1
M  V30 40 C -1.297167 3.533410 3.279081 0
M  V30 41 C -0.787693 0.492095 2.450772 0
M  V30 42 H 2.807586 -0.503106 4.189734 0
M  V30 43 H 1.976622 1.060747 3.819642 0
M  V30 44 H 1.030224 -0.448952 3.899772 0
M  V30 45 H 4.375603 -0.114295 2.421717 0
M  V30 46 H 4.864104 -0.553661 0.109601 0
M  V30 47 H 3.217174 -0.060996 -2.189032 0
M  V30 48 H 4.376298 -4.196959 -4.074592 0
M  V30 49 H 5.164394 -4.038080 -6.410804 0
M  V30 50 H 3.192049 1.966270 -7.226362 0
M  V30 51 H 2.556109 0.298835 -6.871532 0
M  V30 52 H 3.466824 0.641918 -8.385004 0
M  V30 53 H 3.875454 0.023746 -4.112176 0
M  V30 54 H 0.705572 -0.970179 -0.802797 0
M  V30 55 H -0.630782 -2.355960 0.720703 0
M  V30 56 H -5.063330 -1.713826 1.267097 0
M  V30 57 H -4.573009 -2.625160 2.746075 0
M  V30 58 H -4.605626 -4.746717 1.472799 0
M  V30 59 H -6.193942 -3.869164 1.365178 0
M  V30 60 H -5.820960 -6.617910 0.666214 0
M  V30 61 H -3.797188 -5.703008 -2.277189 0
M  V30 62 H -4.216393 0.081477 4.165686 0
M  V30 63 H -4.787555 1.663279 3.492969 0
M  V30 64 H -4.584547 2.771829 5.449279 0
M  V30 65 H -4.731087 1.080273 6.177926 0
M  V30 66 H -1.081586 2.792432 5.694316 0
M  V30 67 H -2.425305 3.942844 5.898261 0
M  V30 68 H -3.377664 3.488289 3.904571 0
M  V30 69 H -1.437459 4.662301 3.315079 0
M  V30 70 H -0.333352 3.383424 3.799336 0
M  V30 71 H -1.240801 3.295824 2.216756 0
M  V30 72 H -0.141644 1.279503 2.744493 0
M  V30 END ATOM
M  V30 BEGIN BOND
M  V30 1 1 1 2
M  V30 2 2 2 3
M  V30 3 1 3 4
M  V30 4 2 4 5
M  V30 5 1 5 6
M  V30 6 1 6 7
M  V30 7 2 7 8
M  V30 8 1 7 9
M  V30 9 2 9 10
M  V30 10 1 10 11
M  V30 11 2 11 12
M  V30 12 1 12 13
M  V30 13 1 13 14
M  V30 14 1 14 15
M  V30 15 1 14 16
M  V30 16 1 14 17
M  V30 17 2 13 18
M  V30 18 1 5 19
M  V30 19 2 19 20
M  V30 20 1 20 21
M  V30 21 2 21 22
M  V30 22 1 22 23
M  V30 23 1 23 24
M  V30 24 1 24 25
M  V30 25 1 25 26
M  V30 26 1 26 27
M  V30 27 1 27 28
M  V30 28 2 28 29
M  V30 29 1 28 30
M  V30 30 1 28 31
M  V30 31 2 23 32
M  V30 32 1 32 33
M  V30 33 1 33 34
M  V30 34 1 34 35
M  V30 35 1 35 36
M  V30 36 1 36 37
M  V30 37 1 37 38
M  V30 38 1 38 39
M  V30 39 1 39 40
M  V30 40 2 33 41
M  V30 41 1 20 2
M  V30 42 1 41 21
M  V30 43 1 18 9
M  V30 44 1 39 34
M  V30 45 1 1 42
M  V30 46 1 1 43
M  V30 47 1 1 44
M  V30 48 1 3 45
M  V30 49 1 4 46
M  V30 50 1 6 47
M  V30 51 1 10 48
M  V30 52 1 11 49
M  V30 53 1 15 50
M  V30 54 1 15 51
M  V30 55 1 15 52
M  V30 56 1 18 53
M  V30 57 1 19 54
M  V30 58 1 22 55
M  V30 59 1 25 56
M  V30 60 1 25 57
M  V30 61 1 26 58
M  V30 62 1 26 59
M  V30 63 1 30 60
M  V30 64 1 31 61
M  V30 65 1 35 62
M  V30 66 1 35 63
M  V30 67 1 36 64
M  V30 68 1 36 65
M  V30 69 1 38 66
M  V30 70 1 38 67
M  V30 71 1 39 68 CFG=1
M  V30 72 1 40 69
M  V30 73 1 40 70
M  V30 74 1 40 71
M  V30 75 1 41 72
M  V30 END BOND
M  V30 END CTAB
M  END
>  <Dataset>  (442) 
ChEMBL_Kinases

>  <Ligand_Instance>  (442) 
nan

>  <PDB_ID>  (442) 
nan

>  <Standardized_SMILES>  (442) 
Cc1ccc(NC(=O)c2ccnc(C(C)(F)F)c2)cc1-c1cc(OCCOP(=O)(O)O)nc(N2CCOC[C@H]2C)c1

>  <Name>  (442) 
nan

>  <Pocket>  (442) 
nan

>  <ATP_Site>  (442) 
nan

>  <Peripheral>  (442) 
nan

>  <Num_H_Atoms_ProtBoundConf>  (442) 
nan

>  <Num_Resolved_Atoms>  (442) 
nan

>  <Num_Not_Resolved_Atoms>  (442) 
nan

$$$$
CHEMBL3952374
     RDKit          3D

  0  0  0  0  0  0  0  0  0  0999 V3000
M  V30 BEGIN CTAB
M  V30 COUNTS 41 44 0 0 0
M  V30 BEGIN ATOM
M  V30 1 N 2.678002 -3.269851 7.742924 0
M  V30 2 S 3.868073 -3.325104 6.497808 0
M  V30 3 O 5.168276 -2.856683 7.106728 0
M  V30 4 O 4.063828 -4.721007 6.028865 0
M  V30 5 C 3.484834 -2.214272 5.196831 0
M  V30 6 C 3.924479 -0.905566 5.185150 0
M  V30 7 C 3.600567 -0.055827 4.137380 0
M  V30 8 C 2.817234 -0.545297 3.085305 0
M  V30 9 N 2.330798 0.005708 1.934158 0
M  V30 10 C 1.629206 -0.936701 1.285437 0
M  V30 11 C 0.962248 -0.696347 0.007300 0
M  V30 12 C 1.068552 0.565059 -0.545362 0
M  V30 13 C 0.432133 0.802678 -1.769665 0
M  V30 14 C -0.301478 -0.175279 -2.452410 0
M  V30 15 S -1.047140 0.297096 -3.999796 0
M  V30 16 C -2.696603 0.940854 -3.768648 0
M  V30 17 C -3.306378 1.052851 -2.536066 0
M  V30 18 C -4.580127 1.549709 -2.354507 0
M  V30 19 C -5.257457 1.951461 -3.509955 0
M  V30 20 F -6.504934 2.437229 -3.324411 0
M  V30 21 C -4.653047 1.841147 -4.738067 0
M  V30 22 Cl -5.602150 2.376409 -6.104942 0
M  V30 23 C -3.366989 1.337675 -4.904889 0
M  V30 24 C -0.376751 -1.418352 -1.857461 0
M  V30 25 C 0.243522 -1.674993 -0.649658 0
M  V30 26 N 1.674558 -2.064279 2.019458 0
M  V30 27 C 2.397085 -1.865060 3.136708 0
M  V30 28 C 2.708035 -2.738390 4.176079 0
M  V30 29 H 2.136459 -2.389904 7.779644 0
M  V30 30 H 1.994549 -4.055162 7.640081 0
M  V30 31 H 4.529468 -0.534159 6.001576 0
M  V30 32 H 3.939967 0.972160 4.118071 0
M  V30 33 H 2.530638 0.995294 1.699008 0
M  V30 34 H 1.617025 1.385505 -0.086898 0
M  V30 35 H 0.524925 1.804689 -2.194427 0
M  V30 36 H -2.713992 0.718599 -1.681242 0
M  V30 37 H -4.948998 1.589003 -1.349834 0
M  V30 38 H -2.966617 1.285258 -5.906281 0
M  V30 39 H -0.951761 -2.141168 -2.418057 0
M  V30 40 H 0.158541 -2.665096 -0.218494 0
M  V30 41 H 2.344258 -3.755940 4.147642 0
M  V30 END ATOM
M  V30 BEGIN BOND
M  V30 1 1 1 2
M  V30 2 2 2 3
M  V30 3 2 2 4
M  V30 4 1 2 5
M  V30 5 2 5 6
M  V30 6 1 6 7
M  V30 7 2 7 8
M  V30 8 1 8 9
M  V30 9 1 9 10
M  V30 10 1 10 11
M  V30 11 2 11 12
M  V30 12 1 12 13
M  V30 13 2 13 14
M  V30 14 1 14 15
M  V30 15 1 15 16
M  V30 16 2 16 17
M  V30 17 1 17 18
M  V30 18 2 18 19
M  V30 19 1 19 20
M  V30 20 1 19 21
M  V30 21 1 21 22
M  V30 22 2 21 23
M  V30 23 1 14 24
M  V30 24 2 24 25
M  V30 25 2 10 26
M  V30 26 1 26 27
M  V30 27 2 27 28
M  V30 28 1 28 5
M  V30 29 1 27 8
M  V30 30 1 25 11
M  V30 31 1 23 16
M  V30 32 1 1 29
M  V30 33 1 1 30
M  V30 34 1 6 31
M  V30 35 1 7 32
M  V30 36 1 9 33
M  V30 37 1 12 34
M  V30 38 1 13 35
M  V30 39 1 17 36
M  V30 40 1 18 37
M  V30 41 1 23 38
M  V30 42 1 24 39
M  V30 43 1 25 40
M  V30 44 1 28 41
M  V30 END BOND
M  V30 END CTAB
M  END
>  <Dataset>  (443) 
ChEMBL_Kinases

>  <Ligand_Instance>  (443) 
nan

>  <PDB_ID>  (443) 
nan

>  <Standardized_SMILES>  (443) 
NS(=O)(=O)c1ccc2[nH]c(-c3ccc(Sc4ccc(F)c(Cl)c4)cc3)nc2c1

>  <Name>  (443) 
nan

>  <Pocket>  (443) 
nan

>  <ATP_Site>  (443) 
nan

>  <Peripheral>  (443) 
nan

>  <Num_H_Atoms_ProtBoundConf>  (443) 
nan

>  <Num_Resolved_Atoms>  (443) 
nan

>  <Num_Not_Resolved_Atoms>  (443) 
nan

$$$$
CHEMBL69710
     RDKit          3D

  0  0  0  0  0  0  0  0  0  0999 V3000
M  V30 BEGIN CTAB
M  V30 COUNTS 2 1 0 0 0
M  V30 BEGIN ATOM
M  V30 1 Cl 0.387789 -1.949645 3.774860 0
M  V30 2 H 1.243109 -3.003903 3.534911 0
M  V30 END ATOM
M  V30 BEGIN BOND
M  V30 1 1 1 2
M  V30 END BOND
M  V30 END CTAB
M  END
>  <Dataset>  (444) 
ChEMBL_Kinases

>  <Ligand_Instance>  (444) 
nan

>  <PDB_ID>  (444) 
nan

>  <Standardized_SMILES>  (444) 
Cl

>  <Name>  (444) 
CHLOROLITHIUM

>  <Pocket>  (444) 
nan

>  <ATP_Site>  (444) 
nan

>  <Peripheral>  (444) 
nan

>  <Num_H_Atoms_ProtBoundConf>  (444) 
nan

>  <Num_Resolved_Atoms>  (444) 
nan

>  <Num_Not_Resolved_Atoms>  (444) 
nan

$$$$
CHEMBL3951876
     RDKit          3D

  0  0  0  0  0  0  0  0  0  0999 V3000
M  V30 BEGIN CTAB
M  V30 COUNTS 59 63 0 0 0
M  V30 BEGIN ATOM
M  V30 1 F -4.135348 0.515189 0.300337 0
M  V30 2 C -4.627023 1.732416 0.567194 0
M  V30 3 C -3.798442 2.747574 0.146401 0
M  V30 4 O -2.603753 2.924638 -0.475626 0
M  V30 5 C -1.785366 1.895369 -0.918776 0 CFG=1
M  V30 6 C -1.752092 1.943016 -2.433177 0
M  V30 7 C -0.465237 1.408977 -2.953638 0
M  V30 8 C -0.032888 0.220607 -2.085055 0 CFG=2
M  V30 9 C 1.158102 -0.417249 -2.820674 0
M  V30 10 C 1.620139 -1.573716 -2.038216 0
M  V30 11 C 1.155396 -2.839635 -2.224537 0
M  V30 12 C 1.535850 -3.997254 -1.543160 0
M  V30 13 C 2.513550 -3.781659 -0.561768 0
M  V30 14 C 2.984046 -2.491198 -0.377850 0
M  V30 15 N 3.993034 -2.398221 0.642003 0
M  V30 16 C 5.125755 -1.628935 0.216281 0
M  V30 17 C 6.276213 -1.380579 0.947834 0
M  V30 18 C 7.167627 -0.615454 0.233841 0
M  V30 19 N 6.543058 -0.403047 -0.938449 0
M  V30 20 N 5.359851 -0.984953 -0.961173 0
M  V30 21 N 2.569433 -1.417129 -1.074177 0
M  V30 22 C -1.138471 -0.758950 -2.059300 0
M  V30 23 N -2.266157 -0.906344 -2.758065 0
M  V30 24 N -2.972228 -1.948730 -2.378132 0
M  V30 25 C -2.236540 -2.489392 -1.374771 0
M  V30 26 S -2.774210 -3.841342 -0.603234 0
M  V30 27 O -1.159815 -1.765952 -1.209223 0
M  V30 28 C 0.342403 0.719821 -0.723797 0
M  V30 29 C -0.393042 1.954149 -0.318767 0
M  V30 30 C -4.236231 4.067756 0.390147 0
M  V30 31 C -5.445006 4.407270 1.024872 0
M  V30 32 C -6.238349 3.341478 1.426326 0
M  V30 33 C -5.820280 2.063034 1.193956 0
M  V30 34 C -6.666146 0.915267 1.607399 0
M  V30 35 F -6.982562 0.224811 0.434858 0
M  V30 36 F -7.821320 1.331706 2.229419 0
M  V30 37 F -5.916771 0.037503 2.359511 0
M  V30 38 H -2.211796 0.918495 -0.656898 0
M  V30 39 H -1.916340 3.012490 -2.765929 0
M  V30 40 H -2.593182 1.396557 -2.907316 0
M  V30 41 H -0.616168 0.998835 -3.982042 0
M  V30 42 H 0.345207 2.177217 -2.932311 0
M  V30 43 H 1.960728 0.354225 -2.901435 0
M  V30 44 H 0.794729 -0.735783 -3.812862 0
M  V30 45 H 0.407827 -3.045018 -2.984340 0
M  V30 46 H 1.115668 -4.969109 -1.754237 0
M  V30 47 H 2.870892 -4.627207 0.018095 0
M  V30 48 H 4.014611 -2.791933 1.598987 0
M  V30 49 H 6.519313 -1.709702 1.952561 0
M  V30 50 H 8.146991 -0.225098 0.453675 0
M  V30 51 H 6.850861 0.125192 -1.783960 0
M  V30 52 H -3.886974 -2.176973 -2.853553 0
M  V30 53 H 0.211966 -0.052145 0.077055 0
M  V30 54 H 1.446289 0.942778 -0.713134 0
M  V30 55 H -0.522258 1.943981 0.781833 0
M  V30 56 H 0.115956 2.895315 -0.618586 0
M  V30 57 H -3.771666 5.045314 0.158206 0
M  V30 58 H -5.865529 5.369012 1.252795 0
M  V30 59 H -7.208378 3.476825 1.932349 0
M  V30 END ATOM
M  V30 BEGIN BOND
M  V30 1 1 1 2
M  V30 2 2 2 3
M  V30 3 1 3 4
M  V30 4 1 4 5
M  V30 5 1 5 6
M  V30 6 1 6 7
M  V30 7 1 7 8
M  V30 8 1 8 9 CFG=3
M  V30 9 1 9 10
M  V30 10 2 10 11
M  V30 11 1 11 12
M  V30 12 2 12 13
M  V30 13 1 13 14
M  V30 14 1 14 15
M  V30 15 1 15 16
M  V30 16 1 16 17
M  V30 17 2 17 18
M  V30 18 1 18 19
M  V30 19 1 19 20
M  V30 20 2 14 21
M  V30 21 1 8 22
M  V30 22 2 22 23
M  V30 23 1 23 24
M  V30 24 1 24 25
M  V30 25 2 25 26
M  V30 26 1 25 27
M  V30 27 1 8 28
M  V30 28 1 28 29
M  V30 29 1 3 30
M  V30 30 2 30 31
M  V30 31 1 31 32
M  V30 32 2 32 33
M  V30 33 1 33 34
M  V30 34 1 34 35
M  V30 35 1 34 36
M  V30 36 1 34 37
M  V30 37 1 33 2
M  V30 38 1 29 5
M  V30 39 1 21 10
M  V30 40 1 27 22
M  V30 41 2 20 16
M  V30 42 1 5 38 CFG=3
M  V30 43 1 6 39
M  V30 44 1 6 40
M  V30 45 1 7 41
M  V30 46 1 7 42
M  V30 47 1 9 43
M  V30 48 1 9 44
M  V30 49 1 11 45
M  V30 50 1 12 46
M  V30 51 1 13 47
M  V30 52 1 15 48
M  V30 53 1 17 49
M  V30 54 1 18 50
M  V30 55 1 19 51
M  V30 56 1 24 52
M  V30 57 1 28 53
M  V30 58 1 28 54
M  V30 59 1 29 55
M  V30 60 1 29 56
M  V30 61 1 30 57
M  V30 62 1 31 58
M  V30 63 1 32 59
M  V30 END BOND
M  V30 END CTAB
M  END
>  <Dataset>  (445) 
ChEMBL_Kinases

>  <Ligand_Instance>  (445) 
nan

>  <PDB_ID>  (445) 
nan

>  <Standardized_SMILES>  (445) 
Fc1c(O[C@H]2CC[C@](Cc3cccc(Nc4cc[nH]n4)n3)(c3n[nH]c(=S)o3)CC2)cccc1C(F)(F)F

>  <Name>  (445) 
nan

>  <Pocket>  (445) 
nan

>  <ATP_Site>  (445) 
nan

>  <Peripheral>  (445) 
nan

>  <Num_H_Atoms_ProtBoundConf>  (445) 
nan

>  <Num_Resolved_Atoms>  (445) 
nan

>  <Num_Not_Resolved_Atoms>  (445) 
nan

$$$$
CHEMBL3951780
     RDKit          3D

  0  0  0  0  0  0  0  0  0  0999 V3000
M  V30 BEGIN CTAB
M  V30 COUNTS 46 49 0 0 0
M  V30 BEGIN ATOM
M  V30 1 C -0.471543 -8.333575 -0.460406 0
M  V30 2 C -0.575360 -7.489980 -1.713668 0
M  V30 3 C 0.180966 -6.217657 -1.588534 0
M  V30 4 C 1.520612 -6.076814 -1.952230 0
M  V30 5 C 2.179409 -4.872731 -1.816640 0
M  V30 6 C 1.513027 -3.776896 -1.312671 0
M  V30 7 O 2.192638 -2.598789 -1.190526 0
M  V30 8 C 1.703517 -1.407169 -0.713308 0
M  V30 9 C 1.855081 -1.244661 0.649923 0
M  V30 10 C 1.415595 -0.101516 1.284568 0
M  V30 11 C 0.808840 0.922419 0.585623 0
M  V30 12 C 0.322773 2.156864 1.202533 0
M  V30 13 N 0.419252 2.423114 2.532213 0
M  V30 14 C -0.120344 3.639983 2.780872 0
M  V30 15 C -0.268086 4.360983 3.950417 0
M  V30 16 C -0.880129 5.587524 3.795920 0
M  V30 17 C -1.076068 6.413123 4.976106 0
M  V30 18 N -0.669315 6.025916 6.293347 0
M  V30 19 O -1.561396 7.524468 5.248275 0
M  V30 20 C -1.332904 6.115497 2.604087 0
M  V30 21 C -1.160820 5.350714 1.454869 0
M  V30 22 C -0.552951 4.115640 1.560322 0
M  V30 23 N -0.283161 3.210172 0.592314 0
M  V30 24 C 0.661224 0.750216 -0.781682 0
M  V30 25 C 1.098260 -0.393486 -1.432490 0
M  V30 26 C 0.177949 -3.840349 -0.928908 0
M  V30 27 C -0.423963 -5.073107 -1.089545 0
M  V30 28 H 0.141030 -9.230833 -0.614108 0
M  V30 29 H -0.028943 -7.734968 0.362310 0
M  V30 30 H -1.504181 -8.648907 -0.153032 0
M  V30 31 H -1.629684 -7.332415 -1.981749 0
M  V30 32 H -0.147462 -8.105248 -2.553948 0
M  V30 33 H 2.036846 -6.946224 -2.348324 0
M  V30 34 H 3.223080 -4.786145 -2.106392 0
M  V30 35 H 2.315110 -1.975485 1.309188 0
M  V30 36 H 1.513479 0.067845 2.348089 0
M  V30 37 H 0.065735 4.001462 4.913572 0
M  V30 38 H 0.361310 5.798787 6.197715 0
M  V30 39 H 0.293710 5.743671 6.522799 0
M  V30 40 H -1.805747 7.086781 2.552026 0
M  V30 41 H -1.499668 5.729848 0.517516 0
M  V30 42 H -0.493115 3.295713 -0.412721 0
M  V30 43 H 0.197126 1.511616 -1.378232 0
M  V30 44 H 1.004822 -0.571672 -2.494597 0
M  V30 45 H -0.356575 -3.002163 -0.535968 0
M  V30 46 H -1.471680 -5.118034 -0.787028 0
M  V30 END ATOM
M  V30 BEGIN BOND
M  V30 1 1 1 2
M  V30 2 1 2 3
M  V30 3 2 3 4
M  V30 4 1 4 5
M  V30 5 2 5 6
M  V30 6 1 6 7
M  V30 7 1 7 8
M  V30 8 2 8 9
M  V30 9 1 9 10
M  V30 10 2 10 11
M  V30 11 1 11 12
M  V30 12 2 12 13
M  V30 13 1 13 14
M  V30 14 2 14 15
M  V30 15 1 15 16
M  V30 16 1 16 17
M  V30 17 1 17 18
M  V30 18 2 17 19
M  V30 19 2 16 20
M  V30 20 1 20 21
M  V30 21 2 21 22
M  V30 22 1 22 23
M  V30 23 1 11 24
M  V30 24 2 24 25
M  V30 25 1 6 26
M  V30 26 2 26 27
M  V30 27 1 27 3
M  V30 28 1 25 8
M  V30 29 1 23 12
M  V30 30 1 22 14
M  V30 31 1 1 28
M  V30 32 1 1 29
M  V30 33 1 1 30
M  V30 34 1 2 31
M  V30 35 1 2 32
M  V30 36 1 4 33
M  V30 37 1 5 34
M  V30 38 1 9 35
M  V30 39 1 10 36
M  V30 40 1 15 37
M  V30 41 1 18 38
M  V30 42 1 18 39
M  V30 43 1 20 40
M  V30 44 1 21 41
M  V30 45 1 23 42
M  V30 46 1 24 43
M  V30 47 1 25 44
M  V30 48 1 26 45
M  V30 49 1 27 46
M  V30 END BOND
M  V30 END CTAB
M  END
>  <Dataset>  (446) 
ChEMBL_Kinases

>  <Ligand_Instance>  (446) 
nan

>  <PDB_ID>  (446) 
nan

>  <Standardized_SMILES>  (446) 
CCc1ccc(Oc2ccc(-c3nc4cc(C(N)=O)ccc4[nH]3)cc2)cc1

>  <Name>  (446) 
nan

>  <Pocket>  (446) 
nan

>  <ATP_Site>  (446) 
nan

>  <Peripheral>  (446) 
nan

>  <Num_H_Atoms_ProtBoundConf>  (446) 
nan

>  <Num_Resolved_Atoms>  (446) 
nan

>  <Num_Not_Resolved_Atoms>  (446) 
nan

$$$$
CHEMBL395163
     RDKit          3D

  0  0  0  0  0  0  0  0  0  0999 V3000
M  V30 BEGIN CTAB
M  V30 COUNTS 30 32 0 0 0
M  V30 BEGIN ATOM
M  V30 1 N -0.556819 -2.520362 4.985271 0
M  V30 2 C -0.136305 -3.511122 4.073561 0
M  V30 3 O -0.067518 -4.653485 4.539423 0
M  V30 4 C 0.190133 -3.199383 2.689584 0
M  V30 5 C 0.618628 -4.233546 1.871842 0
M  V30 6 C 0.939468 -3.993279 0.537824 0
M  V30 7 C 0.832020 -2.711692 0.014536 0
M  V30 8 C 0.401182 -1.721405 0.872423 0
M  V30 9 C 0.073106 -1.918404 2.202587 0
M  V30 10 C 0.351130 -0.455244 0.152498 0
M  V30 11 C -0.010929 0.762472 0.502943 0
M  V30 12 C -0.021322 1.975155 -0.297861 0
M  V30 13 C 1.088377 2.411749 -0.997966 0
M  V30 14 C 0.790790 3.555929 -1.679795 0
M  V30 15 C -0.538047 3.843551 -1.399652 0
M  V30 16 N -0.984820 2.878413 -0.572910 0
M  V30 17 C 0.781314 -0.745305 -1.207802 0
M  V30 18 O 0.914781 -0.019807 -2.222281 0
M  V30 19 N 1.078918 -2.151730 -1.283277 0
M  V30 20 H -1.577962 -2.421387 5.021709 0
M  V30 21 H -0.051611 -1.865829 5.630140 0
M  V30 22 H 0.719051 -5.265242 2.248913 0
M  V30 23 H 1.270845 -4.799532 -0.091570 0
M  V30 24 H -0.262292 -1.113709 2.843510 0
M  V30 25 H -0.348011 0.842142 1.550841 0
M  V30 26 H 2.127346 2.077281 -1.125325 0
M  V30 27 H 1.328620 4.227766 -2.335332 0
M  V30 28 H -1.211167 4.644442 -1.708157 0
M  V30 29 H -1.943928 2.744112 -0.133180 0
M  V30 30 H 1.407897 -2.679693 -2.099594 0
M  V30 END ATOM
M  V30 BEGIN BOND
M  V30 1 1 1 2
M  V30 2 2 2 3
M  V30 3 1 2 4
M  V30 4 2 4 5
M  V30 5 1 5 6
M  V30 6 2 6 7
M  V30 7 1 7 8
M  V30 8 2 8 9
M  V30 9 1 8 10
M  V30 10 2 10 11
M  V30 11 1 11 12
M  V30 12 2 12 13
M  V30 13 1 13 14
M  V30 14 2 14 15
M  V30 15 1 15 16
M  V30 16 1 10 17
M  V30 17 2 17 18
M  V30 18 1 17 19
M  V30 19 1 9 4
M  V30 20 1 16 12
M  V30 21 1 19 7
M  V30 22 1 1 20
M  V30 23 1 1 21
M  V30 24 1 5 22
M  V30 25 1 6 23
M  V30 26 1 9 24
M  V30 27 1 11 25
M  V30 28 1 13 26
M  V30 29 1 14 27
M  V30 30 1 15 28
M  V30 31 1 16 29
M  V30 32 1 19 30
M  V30 END BOND
M  V30 END CTAB
M  END
>  <Dataset>  (447) 
ChEMBL_Kinases

>  <Ligand_Instance>  (447) 
nan

>  <PDB_ID>  (447) 
nan

>  <Standardized_SMILES>  (447) 
NC(=O)c1ccc2c(c1)/C(=C/c1ccc[nH]1)C(=O)N2

>  <Name>  (447) 
nan

>  <Pocket>  (447) 
nan

>  <ATP_Site>  (447) 
nan

>  <Peripheral>  (447) 
nan

>  <Num_H_Atoms_ProtBoundConf>  (447) 
nan

>  <Num_Resolved_Atoms>  (447) 
nan

>  <Num_Not_Resolved_Atoms>  (447) 
nan

$$$$
CHEMBL3950927
     RDKit          3D

  0  0  0  0  0  0  0  0  0  0999 V3000
M  V30 BEGIN CTAB
M  V30 COUNTS 53 56 0 0 0
M  V30 BEGIN ATOM
M  V30 1 C 5.930917 -3.300054 2.930854 0
M  V30 2 N 4.758018 -4.101635 2.638135 0
M  V30 3 S 4.497317 -4.098239 0.926122 0
M  V30 4 O 5.718042 -4.658256 0.271635 0
M  V30 5 O 3.331150 -4.981420 0.580852 0
M  V30 6 C 4.205883 -2.442633 0.411733 0
M  V30 7 C 2.900642 -1.995305 0.398241 0
M  V30 8 C 2.694530 -0.696426 -0.008723 0
M  V30 9 C 3.656663 0.202180 -0.403664 0
M  V30 10 N 3.424647 1.535858 -0.823655 0
M  V30 11 C 2.192930 2.223362 -0.949993 0
M  V30 12 N 2.193869 3.498611 -1.374180 0
M  V30 13 C 1.084086 4.231027 -1.528797 0
M  V30 14 C -0.137079 3.664394 -1.242425 0
M  V30 15 C -0.183531 2.364547 -0.806129 0
M  V30 16 C -1.468212 1.749338 -0.499393 0
M  V30 17 C -2.663780 2.415883 -0.626658 0
M  V30 18 C -3.880418 1.811934 -0.330594 0
M  V30 19 C -3.944652 0.494777 0.111687 0
M  V30 20 O -5.205658 -0.017662 0.380241 0
M  V30 21 C -5.499766 -1.256462 0.862085 0
M  V30 22 C -6.266953 -2.101430 0.110603 0
M  V30 23 C -6.549751 -3.348846 0.622226 0
M  V30 24 C -6.122402 -3.845724 1.856291 0
M  V30 25 C -5.347696 -2.978395 2.603839 0
M  V30 26 C -5.067141 -1.729105 2.086282 0
M  V30 27 N -4.283639 -0.930491 2.924076 0 CHG=1 VAL=4
M  V30 28 O -3.516555 -0.144359 3.452898 0
M  V30 29 O -4.364737 -1.034387 4.291770 0 CHG=-1 VAL=1
M  V30 30 C -2.759058 -0.202465 0.249921 0
M  V30 31 C -1.581298 0.448220 -0.058580 0
M  V30 32 N 0.991768 1.741642 -0.693152 0
M  V30 33 C 4.934527 -0.306136 -0.367105 0
M  V30 34 C 5.219043 -1.592527 0.027708 0
M  V30 35 H 6.673537 -3.469982 2.112643 0
M  V30 36 H 5.698902 -2.218870 3.067053 0
M  V30 37 H 6.293846 -3.659130 3.922907 0
M  V30 38 H 3.927482 -3.653491 3.063630 0
M  V30 39 H 2.084897 -2.640174 0.694695 0
M  V30 40 H 1.661165 -0.384874 -0.004722 0
M  V30 41 H 4.300523 2.085438 -1.076123 0
M  V30 42 H 1.258517 5.251639 -1.882976 0
M  V30 43 H -0.973967 4.306188 -1.389014 0
M  V30 44 H -2.719038 3.420506 -0.956179 0
M  V30 45 H -4.811709 2.376374 -0.445016 0
M  V30 46 H -6.651622 -1.826380 -0.854496 0
M  V30 47 H -7.153188 -4.014712 0.031945 0
M  V30 48 H -6.406861 -4.843449 2.154421 0
M  V30 49 H -5.005049 -3.331414 3.554571 0
M  V30 50 H -2.800515 -1.224595 0.588950 0
M  V30 51 H -0.706844 -0.170963 0.079315 0
M  V30 52 H 5.782960 0.308544 -0.656549 0
M  V30 53 H 6.241322 -1.944455 0.038398 0
M  V30 END ATOM
M  V30 BEGIN BOND
M  V30 1 1 1 2
M  V30 2 1 2 3
M  V30 3 2 3 4
M  V30 4 2 3 5
M  V30 5 1 3 6
M  V30 6 2 6 7
M  V30 7 1 7 8
M  V30 8 2 8 9
M  V30 9 1 9 10
M  V30 10 1 10 11
M  V30 11 2 11 12
M  V30 12 1 12 13
M  V30 13 2 13 14
M  V30 14 1 14 15
M  V30 15 1 15 16
M  V30 16 2 16 17
M  V30 17 1 17 18
M  V30 18 2 18 19
M  V30 19 1 19 20
M  V30 20 1 20 21
M  V30 21 2 21 22
M  V30 22 1 22 23
M  V30 23 2 23 24
M  V30 24 1 24 25
M  V30 25 2 25 26
M  V30 26 1 26 27
M  V30 27 2 27 28
M  V30 28 1 27 29
M  V30 29 1 19 30
M  V30 30 2 30 31
M  V30 31 2 15 32
M  V30 32 1 9 33
M  V30 33 2 33 34
M  V30 34 1 34 6
M  V30 35 1 32 11
M  V30 36 1 31 16
M  V30 37 1 26 21
M  V30 38 1 1 35
M  V30 39 1 1 36
M  V30 40 1 1 37
M  V30 41 1 2 38
M  V30 42 1 7 39
M  V30 43 1 8 40
M  V30 44 1 10 41
M  V30 45 1 13 42
M  V30 46 1 14 43
M  V30 47 1 17 44
M  V30 48 1 18 45
M  V30 49 1 22 46
M  V30 50 1 23 47
M  V30 51 1 24 48
M  V30 52 1 25 49
M  V30 53 1 30 50
M  V30 54 1 31 51
M  V30 55 1 33 52
M  V30 56 1 34 53
M  V30 END BOND
M  V30 END CTAB
M  END
>  <Dataset>  (448) 
ChEMBL_Kinases

>  <Ligand_Instance>  (448) 
nan

>  <PDB_ID>  (448) 
nan

>  <Standardized_SMILES>  (448) 
CNS(=O)(=O)c1ccc(Nc2nccc(-c3ccc(Oc4ccccc4[N+](=O)[O-])cc3)n2)cc1

>  <Name>  (448) 
nan

>  <Pocket>  (448) 
nan

>  <ATP_Site>  (448) 
nan

>  <Peripheral>  (448) 
nan

>  <Num_H_Atoms_ProtBoundConf>  (448) 
nan

>  <Num_Resolved_Atoms>  (448) 
nan

>  <Num_Not_Resolved_Atoms>  (448) 
nan

$$$$
CHEMBL395157
     RDKit          3D

  0  0  0  0  0  0  0  0  0  0999 V3000
M  V30 BEGIN CTAB
M  V30 COUNTS 32 34 0 0 0
M  V30 BEGIN ATOM
M  V30 1 C -2.056600 -4.875650 1.624330 0
M  V30 2 O -0.666996 -4.807813 1.983706 0
M  V30 3 C 0.081084 -3.674313 1.690730 0
M  V30 4 C 1.416965 -3.626939 2.044107 0
M  V30 5 C 2.205901 -2.526325 1.777160 0
M  V30 6 C 1.678472 -1.408637 1.133728 0
M  V30 7 N 2.165705 -0.200027 0.734332 0
M  V30 8 C 1.187098 0.511965 0.144354 0
M  V30 9 C 0.023204 -0.253172 0.157462 0
M  V30 10 C 0.344673 -1.461778 0.783494 0
M  V30 11 C -0.443717 -2.566001 1.052195 0
M  V30 12 C -1.265811 0.233457 -0.419571 0
M  V30 13 C -1.174256 1.751427 -0.429116 0
M  V30 14 N -0.000064 2.093672 -1.167931 0
M  V30 15 C 1.225229 1.882858 -0.452865 0
M  V30 16 C 1.306237 2.942595 0.602435 0
M  V30 17 O 2.242551 3.097258 1.445272 0
M  V30 18 O 0.299517 3.913063 0.763477 0
M  V30 19 H -2.061355 -4.493342 0.560933 0
M  V30 20 H -2.674686 -4.154589 2.183021 0
M  V30 21 H -2.416762 -5.901419 1.590634 0
M  V30 22 H 1.904630 -4.466439 2.553036 0
M  V30 23 H 3.266411 -2.454277 2.042424 0
M  V30 24 H 3.155191 0.085983 0.884801 0
M  V30 25 H -1.466006 -2.552444 0.759699 0
M  V30 26 H -2.119430 -0.081155 0.199097 0
M  V30 27 H -1.408622 -0.168091 -1.456773 0
M  V30 28 H -1.171359 2.074694 0.628645 0
M  V30 29 H -2.054138 2.199059 -0.968905 0
M  V30 30 H -0.082417 3.090620 -1.452980 0
M  V30 31 H 2.061635 1.975685 -1.173222 0
M  V30 32 H 0.195604 4.475775 1.589666 0
M  V30 END ATOM
M  V30 BEGIN BOND
M  V30 1 1 1 2
M  V30 2 1 2 3
M  V30 3 2 3 4
M  V30 4 1 4 5
M  V30 5 2 5 6
M  V30 6 1 6 7
M  V30 7 1 7 8
M  V30 8 2 8 9
M  V30 9 1 9 10
M  V30 10 2 10 11
M  V30 11 1 9 12
M  V30 12 1 12 13
M  V30 13 1 13 14
M  V30 14 1 14 15
M  V30 15 1 15 16
M  V30 16 2 16 17
M  V30 17 1 16 18
M  V30 18 1 11 3
M  V30 19 1 10 6
M  V30 20 1 15 8
M  V30 21 1 1 19
M  V30 22 1 1 20
M  V30 23 1 1 21
M  V30 24 1 4 22
M  V30 25 1 5 23
M  V30 26 1 7 24
M  V30 27 1 11 25
M  V30 28 1 12 26
M  V30 29 1 12 27
M  V30 30 1 13 28
M  V30 31 1 13 29
M  V30 32 1 14 30
M  V30 33 1 15 31
M  V30 34 1 18 32
M  V30 END BOND
M  V30 END CTAB
M  END
>  <Dataset>  (449) 
ChEMBL_Kinases

>  <Ligand_Instance>  (449) 
nan

>  <PDB_ID>  (449) 
nan

>  <Standardized_SMILES>  (449) 
COc1ccc2[nH]c3c(c2c1)CCNC3C(=O)O

>  <Name>  (449) 
nan

>  <Pocket>  (449) 
nan

>  <ATP_Site>  (449) 
nan

>  <Peripheral>  (449) 
nan

>  <Num_H_Atoms_ProtBoundConf>  (449) 
nan

>  <Num_Resolved_Atoms>  (449) 
nan

>  <Num_Not_Resolved_Atoms>  (449) 
nan

$$$$
CHEMBL3951486
     RDKit          3D

  0  0  0  0  0  0  0  0  0  0999 V3000
M  V30 BEGIN CTAB
M  V30 COUNTS 55 59 0 0 0
M  V30 BEGIN ATOM
M  V30 1 O -0.234327 -0.661062 1.009980 0
M  V30 2 C 0.124181 -1.709172 0.364442 0
M  V30 3 C 1.362333 -2.484286 0.503090 0
M  V30 4 C 2.359284 -2.002402 1.475698 0
M  V30 5 C 2.911943 -0.649955 1.241930 0
M  V30 6 C 4.014902 -0.612414 0.372865 0
M  V30 7 N 4.712266 0.499086 0.004193 0
M  V30 8 C 4.333803 1.708418 0.505685 0
M  V30 9 N 4.792450 2.961068 0.350889 0
M  V30 10 C 4.005470 3.777107 1.111855 0
M  V30 11 C 3.044042 3.003127 1.745686 0
M  V30 12 C 2.040648 3.576662 2.635124 0
M  V30 13 C 2.339458 4.500274 3.618844 0
M  V30 14 C 1.406406 5.055290 4.469293 0
M  V30 15 C 0.099087 4.644244 4.305109 0
M  V30 16 C -0.257099 3.720518 3.334400 0
M  V30 17 C 0.722002 3.193452 2.505024 0
M  V30 18 C 3.252385 1.694116 1.361702 0
M  V30 19 C 2.554390 0.587183 1.731764 0
M  V30 20 N -0.900178 -2.086403 -0.597433 0
M  V30 21 C -1.953760 -1.122563 -0.457196 0
M  V30 22 C -3.078494 -1.402445 -1.412301 0
M  V30 23 C -3.743764 -2.689574 -1.288462 0
M  V30 24 C -4.906315 -2.872857 -0.517334 0
M  V30 25 N -5.313883 -4.153560 -0.519335 0
M  V30 26 C -4.471076 -4.880349 -1.272009 0
M  V30 27 C -4.381862 -6.208959 -1.646620 0
M  V30 28 C -3.363317 -6.666991 -2.478334 0
M  V30 29 C -2.431066 -5.754232 -2.927883 0
M  V30 30 C -2.534762 -4.443517 -2.546380 0
M  V30 31 C -3.537169 -3.979672 -1.723404 0
M  V30 32 H 1.051259 -3.513715 0.818688 0
M  V30 33 H 1.862015 -2.576093 -0.484053 0
M  V30 34 H 1.916501 -2.091732 2.502695 0
M  V30 35 H 3.204422 -2.742440 1.475370 0
M  V30 36 H 4.410390 -1.519578 -0.093149 0
M  V30 37 H 5.620975 3.180534 -0.269554 0
M  V30 38 H 4.232869 4.824572 1.106855 0
M  V30 39 H 3.371124 4.825287 3.748157 0
M  V30 40 H 1.664314 5.775958 5.232048 0
M  V30 41 H -0.703757 5.041106 4.943861 0
M  V30 42 H -1.284831 3.373849 3.177854 0
M  V30 43 H 0.438815 2.472526 1.747583 0
M  V30 44 H 1.726574 0.560413 2.396387 0
M  V30 45 H -0.600810 -2.928863 -1.112801 0
M  V30 46 H -2.345928 -1.089034 0.600742 0
M  V30 47 H -1.591254 -0.084270 -0.631072 0
M  V30 48 H -2.714964 -1.253997 -2.470526 0
M  V30 49 H -3.859239 -0.590048 -1.275361 0
M  V30 50 H -5.471101 -2.113013 0.047370 0
M  V30 51 H -6.138506 -4.555567 -0.032173 0
M  V30 52 H -5.111983 -6.910690 -1.291712 0
M  V30 53 H -3.276842 -7.714804 -2.784463 0
M  V30 54 H -1.632045 -6.085005 -3.574262 0
M  V30 55 H -1.790894 -3.766463 -2.932117 0
M  V30 END ATOM
M  V30 BEGIN BOND
M  V30 1 2 1 2
M  V30 2 1 2 3
M  V30 3 1 3 4
M  V30 4 1 4 5
M  V30 5 2 5 6
M  V30 6 1 6 7
M  V30 7 2 7 8
M  V30 8 1 8 9
M  V30 9 1 9 10
M  V30 10 2 10 11
M  V30 11 1 11 12
M  V30 12 2 12 13
M  V30 13 1 13 14
M  V30 14 2 14 15
M  V30 15 1 15 16
M  V30 16 2 16 17
M  V30 17 1 11 18
M  V30 18 2 18 19
M  V30 19 1 2 20
M  V30 20 1 20 21
M  V30 21 1 21 22
M  V30 22 1 22 23
M  V30 23 2 23 24
M  V30 24 1 24 25
M  V30 25 1 25 26
M  V30 26 2 26 27
M  V30 27 1 27 28
M  V30 28 2 28 29
M  V30 29 1 29 30
M  V30 30 2 30 31
M  V30 31 1 19 5
M  V30 32 1 31 23
M  V30 33 1 18 8
M  V30 34 1 31 26
M  V30 35 1 17 12
M  V30 36 1 3 32
M  V30 37 1 3 33
M  V30 38 1 4 34
M  V30 39 1 4 35
M  V30 40 1 6 36
M  V30 41 1 9 37
M  V30 42 1 10 38
M  V30 43 1 13 39
M  V30 44 1 14 40
M  V30 45 1 15 41
M  V30 46 1 16 42
M  V30 47 1 17 43
M  V30 48 1 19 44
M  V30 49 1 20 45
M  V30 50 1 21 46
M  V30 51 1 21 47
M  V30 52 1 22 48
M  V30 53 1 22 49
M  V30 54 1 24 50
M  V30 55 1 25 51
M  V30 56 1 27 52
M  V30 57 1 28 53
M  V30 58 1 29 54
M  V30 59 1 30 55
M  V30 END BOND
M  V30 END CTAB
M  END
>  <Dataset>  (450) 
ChEMBL_Kinases

>  <Ligand_Instance>  (450) 
nan

>  <PDB_ID>  (450) 
nan

>  <Standardized_SMILES>  (450) 
O=C(CCc1cnc2[nH]cc(-c3ccccc3)c2c1)NCCc1c[nH]c2ccccc12

>  <Name>  (450) 
nan

>  <Pocket>  (450) 
nan

>  <ATP_Site>  (450) 
nan

>  <Peripheral>  (450) 
nan

>  <Num_H_Atoms_ProtBoundConf>  (450) 
nan

>  <Num_Resolved_Atoms>  (450) 
nan

>  <Num_Not_Resolved_Atoms>  (450) 
nan

$$$$
CHEMBL3951443
     RDKit          3D

  0  0  0  0  0  0  0  0  0  0999 V3000
M  V30 BEGIN CTAB
M  V30 COUNTS 45 48 0 0 0
M  V30 BEGIN ATOM
M  V30 1 C 3.118219 -8.692705 -0.846047 0
M  V30 2 O 2.255557 -8.096755 -1.789571 0
M  V30 3 C 1.911857 -6.758875 -1.805604 0
M  V30 4 C 2.398462 -5.869133 -0.874962 0
M  V30 5 C 2.013860 -4.557319 -0.951608 0
M  V30 6 C 1.178131 -4.005621 -1.869165 0
M  V30 7 C 0.697920 -2.648996 -1.995061 0
M  V30 8 O 0.341075 -2.372946 -3.203857 0
M  V30 9 C 0.529102 -1.554740 -1.073466 0
M  V30 10 C 1.124995 -1.243004 0.118817 0
M  V30 11 C 0.886263 -0.190460 0.965530 0
M  V30 12 C -0.097447 0.679320 0.553075 0
M  V30 13 C -0.422562 1.830719 1.387125 0
M  V30 14 N -1.339234 2.793053 1.185277 0
M  V30 15 C -1.319264 3.676378 2.204002 0
M  V30 16 C -2.070117 4.816520 2.434255 0
M  V30 17 C -1.809712 5.535856 3.605027 0
M  V30 18 C -2.610792 6.733772 3.832915 0
M  V30 19 N -2.435422 7.549771 4.982798 0
M  V30 20 O -3.483575 7.056283 2.987988 0
M  V30 21 C -0.846504 5.144117 4.510860 0
M  V30 22 C -0.123607 3.990645 4.227384 0
M  V30 23 C -0.346424 3.249535 3.084958 0
M  V30 24 N 0.182665 2.120179 2.557942 0
M  V30 25 C -0.783428 0.495736 -0.624111 0
M  V30 26 C -0.451919 -0.596731 -1.384377 0
M  V30 27 C 0.725429 -4.968211 -2.779808 0
M  V30 28 C 1.061282 -6.298073 -2.773290 0
M  V30 29 H 3.969890 -8.044134 -0.556373 0
M  V30 30 H 3.509790 -9.659035 -1.260489 0
M  V30 31 H 2.501518 -8.963646 0.047686 0
M  V30 32 H 3.065426 -6.260393 -0.125273 0
M  V30 33 H 2.456423 -3.959017 -0.189904 0
M  V30 34 H 1.901032 -1.905685 0.453999 0
M  V30 35 H 1.424929 -0.060392 1.875160 0
M  V30 36 H -2.813801 5.088790 1.698817 0
M  V30 37 H -2.260474 7.389451 5.997342 0
M  V30 38 H -2.259806 7.319052 5.993403 0
M  V30 39 H -0.657955 5.707525 5.406561 0
M  V30 40 H 0.617158 3.695638 4.932123 0
M  V30 41 H 0.953997 1.623425 3.077875 0
M  V30 42 H -1.541340 1.202116 -0.901369 0
M  V30 43 H -1.048400 -0.668317 -2.309190 0
M  V30 44 H 0.039182 -4.697552 -3.592232 0
M  V30 45 H 0.686457 -6.999143 -3.495012 0
M  V30 END ATOM
M  V30 BEGIN BOND
M  V30 1 1 1 2
M  V30 2 1 2 3
M  V30 3 2 3 4
M  V30 4 1 4 5
M  V30 5 2 5 6
M  V30 6 1 6 7
M  V30 7 2 7 8
M  V30 8 1 7 9
M  V30 9 2 9 10
M  V30 10 1 10 11
M  V30 11 2 11 12
M  V30 12 1 12 13
M  V30 13 2 13 14
M  V30 14 1 14 15
M  V30 15 2 15 16
M  V30 16 1 16 17
M  V30 17 1 17 18
M  V30 18 1 18 19
M  V30 19 2 18 20
M  V30 20 2 17 21
M  V30 21 1 21 22
M  V30 22 2 22 23
M  V30 23 1 23 24
M  V30 24 1 12 25
M  V30 25 2 25 26
M  V30 26 1 6 27
M  V30 27 2 27 28
M  V30 28 1 28 3
M  V30 29 1 26 9
M  V30 30 1 24 13
M  V30 31 1 23 15
M  V30 32 1 1 29
M  V30 33 1 1 30
M  V30 34 1 1 31
M  V30 35 1 4 32
M  V30 36 1 5 33
M  V30 37 1 10 34
M  V30 38 1 11 35
M  V30 39 1 16 36
M  V30 40 1 19 37
M  V30 41 1 19 38
M  V30 42 1 21 39
M  V30 43 1 22 40
M  V30 44 1 24 41
M  V30 45 1 25 42
M  V30 46 1 26 43
M  V30 47 1 27 44
M  V30 48 1 28 45
M  V30 END BOND
M  V30 END CTAB
M  END
>  <Dataset>  (451) 
ChEMBL_Kinases

>  <Ligand_Instance>  (451) 
nan

>  <PDB_ID>  (451) 
nan

>  <Standardized_SMILES>  (451) 
COc1ccc(C(=O)c2ccc(-c3nc4cc(C(N)=O)ccc4[nH]3)cc2)cc1

>  <Name>  (451) 
nan

>  <Pocket>  (451) 
nan

>  <ATP_Site>  (451) 
nan

>  <Peripheral>  (451) 
nan

>  <Num_H_Atoms_ProtBoundConf>  (451) 
nan

>  <Num_Resolved_Atoms>  (451) 
nan

>  <Num_Not_Resolved_Atoms>  (451) 
nan

$$$$
CHEMBL3951396
     RDKit          3D

  0  0  0  0  0  0  0  0  0  0999 V3000
M  V30 BEGIN CTAB
M  V30 COUNTS 45 48 0 0 0
M  V30 BEGIN ATOM
M  V30 1 C -1.408058 -1.584012 5.783843 0
M  V30 2 C -0.218581 -1.043617 4.999927 0
M  V30 3 O 0.048112 -1.956043 3.962746 0
M  V30 4 C 1.083881 -1.781745 3.051746 0
M  V30 5 O 1.343568 -0.722405 3.668852 0
M  V30 6 C 1.508478 -2.636999 1.910899 0
M  V30 7 C 2.714540 -1.923749 1.338606 0
M  V30 8 O 3.973761 -1.944113 1.308408 0
M  V30 9 C 2.075652 -0.844815 0.560237 0
M  V30 10 C 2.474851 0.362480 0.159963 0
M  V30 11 C 1.754810 1.386139 -0.630849 0
M  V30 12 C 1.016370 1.356589 -1.800336 0
M  V30 13 N 0.585851 2.630387 -1.988124 0
M  V30 14 C 0.993011 3.465778 -1.027935 0
M  V30 15 N 0.736541 4.796555 -0.898684 0
M  V30 16 C 1.289592 5.369089 0.209714 0
M  V30 17 C 2.046504 4.712622 1.146082 0
M  V30 18 C 2.281321 3.346980 0.970417 0
M  V30 19 C 1.738961 2.704619 -0.148769 0
M  V30 20 O 0.770677 -1.254005 0.207776 0
M  V30 21 C 0.599683 -2.525857 0.741676 0
M  V30 22 N -0.157964 -3.491083 0.384557 0
M  V30 23 C -1.013966 -3.347212 -0.737096 0
M  V30 24 C -0.948223 -2.570124 -1.877015 0
M  V30 25 C -1.918897 -2.623242 -2.822996 0
M  V30 26 C -3.010093 -3.465948 -2.668298 0
M  V30 27 C -3.144298 -4.281439 -1.540518 0
M  V30 28 C -2.116238 -4.179821 -0.608027 0
M  V30 29 Cl -2.410231 -5.265671 0.767235 0
M  V30 30 H -0.968145 -2.244041 6.576151 0
M  V30 31 H -2.054030 -0.783518 6.188417 0
M  V30 32 H -1.990872 -2.267154 5.130489 0
M  V30 33 H -0.507039 -0.057469 4.584498 0
M  V30 34 H 0.646469 -0.869599 5.675605 0
M  V30 35 H 1.726652 -3.663013 2.209558 0
M  V30 36 H 3.483248 0.602949 0.475209 0
M  V30 37 H 0.943516 0.408218 -2.288087 0
M  V30 38 H 0.011568 2.731238 -2.849076 0
M  V30 39 H 1.121456 6.443883 0.379629 0
M  V30 40 H 2.468913 5.212078 2.014903 0
M  V30 41 H 2.872229 2.764465 1.672395 0
M  V30 42 H -0.035518 -1.955585 -1.867329 0
M  V30 43 H -1.784615 -1.975932 -3.689445 0
M  V30 44 H -3.777717 -3.496767 -3.435387 0
M  V30 45 H -4.016899 -4.912097 -1.481423 0
M  V30 END ATOM
M  V30 BEGIN BOND
M  V30 1 1 1 2
M  V30 2 1 2 3
M  V30 3 1 3 4
M  V30 4 2 4 5
M  V30 5 1 4 6
M  V30 6 1 6 7
M  V30 7 2 7 8
M  V30 8 1 7 9
M  V30 9 2 9 10
M  V30 10 1 10 11
M  V30 11 2 11 12
M  V30 12 1 12 13
M  V30 13 1 13 14
M  V30 14 2 14 15
M  V30 15 1 15 16
M  V30 16 2 16 17
M  V30 17 1 17 18
M  V30 18 2 18 19
M  V30 19 1 9 20
M  V30 20 1 20 21
M  V30 21 2 21 22
M  V30 22 1 22 23
M  V30 23 2 23 24
M  V30 24 1 24 25
M  V30 25 2 25 26
M  V30 26 1 26 27
M  V30 27 2 27 28
M  V30 28 1 28 29
M  V30 29 1 21 6
M  V30 30 1 28 23
M  V30 31 1 19 11
M  V30 32 1 19 14
M  V30 33 1 1 30
M  V30 34 1 1 31
M  V30 35 1 1 32
M  V30 36 1 2 33
M  V30 37 1 2 34
M  V30 38 1 6 35
M  V30 39 1 10 36
M  V30 40 1 12 37
M  V30 41 1 13 38
M  V30 42 1 16 39
M  V30 43 1 17 40
M  V30 44 1 18 41
M  V30 45 1 24 42
M  V30 46 1 25 43
M  V30 47 1 26 44
M  V30 48 1 27 45
M  V30 END BOND
M  V30 END CTAB
M  END
>  <Dataset>  (452) 
ChEMBL_Kinases

>  <Ligand_Instance>  (452) 
nan

>  <PDB_ID>  (452) 
nan

>  <Standardized_SMILES>  (452) 
CCOC(=O)C1C(=O)/C(=C/c2c[nH]c3ncccc23)O/C1=N\c1ccccc1Cl

>  <Name>  (452) 
nan

>  <Pocket>  (452) 
nan

>  <ATP_Site>  (452) 
nan

>  <Peripheral>  (452) 
nan

>  <Num_H_Atoms_ProtBoundConf>  (452) 
nan

>  <Num_Resolved_Atoms>  (452) 
nan

>  <Num_Not_Resolved_Atoms>  (452) 
nan

$$$$
CHEMBL395132
     RDKit          3D

  0  0  0  0  0  0  0  0  0  0999 V3000
M  V30 BEGIN CTAB
M  V30 COUNTS 35 37 0 0 0
M  V30 BEGIN ATOM
M  V30 1 C -2.010554 -4.555957 -0.020836 0
M  V30 2 O -0.925271 -3.739970 -0.397434 0
M  V30 3 C 0.287437 -3.803743 0.316487 0
M  V30 4 O 0.121248 -4.659138 1.223758 0
M  V30 5 C 1.299540 -2.850986 -0.257776 0
M  V30 6 N 2.534504 -2.923572 0.478288 0
M  V30 7 C 2.326454 -2.491748 1.827591 0
M  V30 8 C 1.969079 -1.046527 1.984806 0
M  V30 9 C 1.070468 -0.593290 0.905056 0
M  V30 10 C 0.778706 -1.462109 -0.127574 0
M  V30 11 N -0.058000 -0.764621 -0.948015 0
M  V30 12 C -0.289983 0.481449 -0.468795 0
M  V30 13 C -1.059101 1.515745 -0.959047 0
M  V30 14 C -1.112262 2.710368 -0.238954 0
M  V30 15 C -0.395556 2.814606 0.934891 0
M  V30 16 O -0.378112 3.962566 1.732412 0
M  V30 17 C -1.121887 5.104571 1.353527 0
M  V30 18 C 0.390311 1.777787 1.449245 0
M  V30 19 C 0.419314 0.607466 0.708254 0
M  V30 20 H -2.693490 -4.778783 -0.853583 0
M  V30 21 H -2.532444 -3.997015 0.805307 0
M  V30 22 H -1.678207 -5.518384 0.417469 0
M  V30 23 H 1.429360 -3.082484 -1.333499 0
M  V30 24 H 3.268767 -2.404025 -0.018736 0
M  V30 25 H 1.496676 -3.079396 2.261116 0
M  V30 26 H 3.207630 -2.733929 2.478145 0
M  V30 27 H 2.872277 -0.414621 1.983369 0
M  V30 28 H 1.465322 -0.945987 2.990095 0
M  V30 29 H -0.474202 -1.146409 -1.845327 0
M  V30 30 H -1.622335 1.446742 -1.872844 0
M  V30 31 H -1.691500 3.549546 -0.567749 0
M  V30 32 H -0.927877 5.353687 0.285514 0
M  V30 33 H -0.821707 5.966135 1.978567 0
M  V30 34 H -2.200048 4.973163 1.461454 0
M  V30 35 H 0.949604 1.857410 2.364111 0
M  V30 END ATOM
M  V30 BEGIN BOND
M  V30 1 1 1 2
M  V30 2 1 2 3
M  V30 3 2 3 4
M  V30 4 1 3 5
M  V30 5 1 5 6
M  V30 6 1 6 7
M  V30 7 1 7 8
M  V30 8 1 8 9
M  V30 9 2 9 10
M  V30 10 1 10 11
M  V30 11 1 11 12
M  V30 12 2 12 13
M  V30 13 1 13 14
M  V30 14 2 14 15
M  V30 15 1 15 16
M  V30 16 1 16 17
M  V30 17 1 15 18
M  V30 18 2 18 19
M  V30 19 1 10 5
M  V30 20 1 19 12
M  V30 21 1 19 9
M  V30 22 1 1 20
M  V30 23 1 1 21
M  V30 24 1 1 22
M  V30 25 1 5 23
M  V30 26 1 6 24
M  V30 27 1 7 25
M  V30 28 1 7 26
M  V30 29 1 8 27
M  V30 30 1 8 28
M  V30 31 1 11 29
M  V30 32 1 13 30
M  V30 33 1 14 31
M  V30 34 1 17 32
M  V30 35 1 17 33
M  V30 36 1 17 34
M  V30 37 1 18 35
M  V30 END BOND
M  V30 END CTAB
M  END
>  <Dataset>  (453) 
ChEMBL_Kinases

>  <Ligand_Instance>  (453) 
nan

>  <PDB_ID>  (453) 
nan

>  <Standardized_SMILES>  (453) 
COC(=O)C1NCCc2c1[nH]c1ccc(OC)cc21

>  <Name>  (453) 
nan

>  <Pocket>  (453) 
nan

>  <ATP_Site>  (453) 
nan

>  <Peripheral>  (453) 
nan

>  <Num_H_Atoms_ProtBoundConf>  (453) 
nan

>  <Num_Resolved_Atoms>  (453) 
nan

>  <Num_Not_Resolved_Atoms>  (453) 
nan

$$$$
CHEMBL679
     RDKit          3D

  0  0  0  0  0  0  0  0  0  0999 V3000
M  V30 BEGIN CTAB
M  V30 COUNTS 26 26 0 0 0
M  V30 BEGIN ATOM
M  V30 1 C 1.044892 0.750104 3.640519 0
M  V30 2 N 1.601889 -0.306359 2.853182 0
M  V30 3 C 2.124044 0.177347 1.614094 0
M  V30 4 C 1.056914 0.670206 0.660983 0 CFG=2
M  V30 5 O 0.304393 1.722363 1.186491 0
M  V30 6 C 0.191194 -0.425719 0.162944 0
M  V30 7 C 0.306311 -1.785217 0.348448 0
M  V30 8 C -0.596356 -2.675213 -0.192981 0
M  V30 9 C -1.658126 -2.179333 -0.951496 0
M  V30 10 O -2.527403 -3.137473 -1.464389 0
M  V30 11 C -1.805997 -0.822433 -1.158508 0
M  V30 12 O -2.880265 -0.373429 -1.921086 0
M  V30 13 C -0.871487 0.049115 -0.594280 0
M  V30 14 H 1.252237 0.529609 4.719620 0
M  V30 15 H -0.054209 0.737306 3.499926 0
M  V30 16 H 1.502484 1.719057 3.429143 0
M  V30 17 H 2.293432 -0.899624 3.346099 0
M  V30 18 H 2.940041 0.923415 1.737173 0
M  V30 19 H 2.612317 -0.679686 1.086332 0
M  V30 20 H 1.639370 1.148954 -0.181984 0
M  V30 21 H 0.747958 2.605384 1.032746 0
M  V30 22 H 1.150635 -2.072768 0.944413 0
M  V30 23 H -0.409583 -3.727395 0.016139 0
M  V30 24 H -2.343632 -3.565528 -2.364803 0
M  V30 25 H -2.761763 -0.224119 -2.908351 0
M  V30 26 H -1.083330 1.104506 -0.822229 0
M  V30 END ATOM
M  V30 BEGIN BOND
M  V30 1 1 1 2
M  V30 2 1 2 3
M  V30 3 1 3 4
M  V30 4 1 4 5
M  V30 5 1 4 6
M  V30 6 2 6 7
M  V30 7 1 7 8
M  V30 8 2 8 9
M  V30 9 1 9 10
M  V30 10 1 9 11
M  V30 11 1 11 12
M  V30 12 2 11 13
M  V30 13 1 13 6
M  V30 14 1 1 14
M  V30 15 1 1 15
M  V30 16 1 1 16
M  V30 17 1 2 17
M  V30 18 1 3 18
M  V30 19 1 3 19
M  V30 20 1 4 20 CFG=3
M  V30 21 1 5 21
M  V30 22 1 7 22
M  V30 23 1 8 23
M  V30 24 1 10 24
M  V30 25 1 12 25
M  V30 26 1 13 26
M  V30 END BOND
M  V30 END CTAB
M  END
>  <Dataset>  (454) 
ChEMBL_Kinases

>  <Ligand_Instance>  (454) 
nan

>  <PDB_ID>  (454) 
nan

>  <Standardized_SMILES>  (454) 
CNC[C@H](O)c1ccc(O)c(O)c1

>  <Name>  (454) 
EPINEPHRINE

>  <Pocket>  (454) 
nan

>  <ATP_Site>  (454) 
nan

>  <Peripheral>  (454) 
nan

>  <Num_H_Atoms_ProtBoundConf>  (454) 
nan

>  <Num_Resolved_Atoms>  (454) 
nan

>  <Num_Not_Resolved_Atoms>  (454) 
nan

$$$$
CHEMBL3951234
     RDKit          3D

  0  0  0  0  0  0  0  0  0  0999 V3000
M  V30 BEGIN CTAB
M  V30 COUNTS 58 62 0 0 0
M  V30 BEGIN ATOM
M  V30 1 O 3.816748 -1.290582 2.719283 0
M  V30 2 C 3.007565 -0.324468 2.514788 0
M  V30 3 C 2.490588 0.569966 3.543576 0
M  V30 4 C 2.727175 0.616654 4.900576 0
M  V30 5 C 2.092137 1.610628 5.654031 0
M  V30 6 C 1.243209 2.525066 5.034779 0
M  V30 7 C 1.009440 2.473776 3.675221 0
M  V30 8 C 1.641349 1.489624 2.945976 0
M  V30 9 C 1.553122 1.207032 1.486311 0
M  V30 10 O 1.919025 2.322950 0.735883 0
M  V30 11 C 0.173386 0.810630 1.104130 0
M  V30 12 C -0.829523 1.778883 0.978067 0
M  V30 13 C -2.131730 1.436661 0.625507 0
M  V30 14 C -2.473418 0.123077 0.388494 0
M  V30 15 N -3.615046 -0.482751 0.043017 0
M  V30 16 C -3.416078 -1.801208 -0.065064 0
M  V30 17 N -4.213762 -2.933601 -0.390245 0
M  V30 18 C -4.303798 -3.328218 -1.750299 0
M  V30 19 O -3.681143 -2.678052 -2.656164 0
M  V30 20 C -5.102737 -4.482641 -2.172112 0
M  V30 21 O -5.009768 -4.688372 -3.565821 0
M  V30 22 C -6.571998 -4.261697 -1.867705 0
M  V30 23 F -7.293010 -5.382532 -2.285589 0
M  V30 24 F -6.706104 -4.083498 -0.514604 0
M  V30 25 F -6.984650 -3.155213 -2.583943 0
M  V30 26 C -4.678992 -5.792882 -1.548175 0
M  V30 27 F -3.370606 -6.101688 -1.863979 0
M  V30 28 F -4.855530 -5.799031 -0.172567 0
M  V30 29 F -5.488824 -6.779361 -2.077554 0
M  V30 30 N -2.112879 -2.026584 0.220924 0
M  V30 31 C -1.495071 -0.866839 0.506173 0
M  V30 32 C -0.219823 -0.475060 0.858218 0
M  V30 33 N 2.441006 0.085054 1.255507 0
M  V30 34 C 2.793518 -0.600841 0.029921 0
M  V30 35 C 3.994173 0.016972 -0.611492 0
M  V30 36 C 3.911259 1.053386 -1.544006 0
M  V30 37 C 5.080974 1.528942 -2.054158 0
M  V30 38 C 6.327257 1.075807 -1.728896 0
M  V30 39 C 6.397720 0.050874 -0.805903 0
M  V30 40 C 5.241519 -0.473356 -0.252588 0
M  V30 41 H 3.395739 -0.107195 5.374357 0
M  V30 42 H 2.292067 1.629792 6.720357 0
M  V30 43 H 0.775841 3.274982 5.660815 0
M  V30 44 H 0.336544 3.226897 3.295907 0
M  V30 45 H 2.297346 2.982098 1.365903 0
M  V30 46 H -0.642934 2.814733 1.144861 0
M  V30 47 H -2.918251 2.177773 0.524513 0
M  V30 48 H -4.541452 -0.089112 -0.132751 0
M  V30 49 H -4.707618 -3.440390 0.375420 0
M  V30 50 H -5.329326 -5.611685 -3.733124 0
M  V30 51 H 0.498909 -1.278432 0.939225 0
M  V30 52 H 3.030945 -1.664105 0.198637 0
M  V30 53 H 2.002593 -0.540396 -0.755976 0
M  V30 54 H 2.917690 1.403230 -1.793212 0
M  V30 55 H 5.014773 2.332551 -2.777126 0
M  V30 56 H 7.229289 1.497301 -2.171484 0
M  V30 57 H 7.384855 -0.337257 -0.521718 0
M  V30 58 H 5.400920 -1.276147 0.463142 0
M  V30 END ATOM
M  V30 BEGIN BOND
M  V30 1 2 1 2
M  V30 2 1 2 3
M  V30 3 2 3 4
M  V30 4 1 4 5
M  V30 5 2 5 6
M  V30 6 1 6 7
M  V30 7 2 7 8
M  V30 8 1 8 9
M  V30 9 1 9 10
M  V30 10 1 9 11
M  V30 11 2 11 12
M  V30 12 1 12 13
M  V30 13 2 13 14
M  V30 14 1 14 15
M  V30 15 1 15 16
M  V30 16 1 16 17
M  V30 17 1 17 18
M  V30 18 2 18 19
M  V30 19 1 18 20
M  V30 20 1 20 21
M  V30 21 1 20 22
M  V30 22 1 22 23
M  V30 23 1 22 24
M  V30 24 1 22 25
M  V30 25 1 20 26
M  V30 26 1 26 27
M  V30 27 1 26 28
M  V30 28 1 26 29
M  V30 29 2 16 30
M  V30 30 1 30 31
M  V30 31 2 31 32
M  V30 32 1 9 33
M  V30 33 1 33 34
M  V30 34 1 34 35
M  V30 35 2 35 36
M  V30 36 1 36 37
M  V30 37 2 37 38
M  V30 38 1 38 39
M  V30 39 2 39 40
M  V30 40 1 33 2
M  V30 41 1 40 35
M  V30 42 1 8 3
M  V30 43 1 32 11
M  V30 44 1 31 14
M  V30 45 1 4 41
M  V30 46 1 5 42
M  V30 47 1 6 43
M  V30 48 1 7 44
M  V30 49 1 10 45
M  V30 50 1 12 46
M  V30 51 1 13 47
M  V30 52 1 15 48
M  V30 53 1 17 49
M  V30 54 1 21 50
M  V30 55 1 32 51
M  V30 56 1 34 52
M  V30 57 1 34 53
M  V30 58 1 36 54
M  V30 59 1 37 55
M  V30 60 1 38 56
M  V30 61 1 39 57
M  V30 62 1 40 58
M  V30 END BOND
M  V30 END CTAB
M  END
>  <Dataset>  (455) 
ChEMBL_Kinases

>  <Ligand_Instance>  (455) 
nan

>  <PDB_ID>  (455) 
nan

>  <Standardized_SMILES>  (455) 
O=C1c2ccccc2C(O)(c2ccc3[nH]c(NC(=O)C(O)(C(F)(F)F)C(F)(F)F)nc3c2)N1Cc1ccccc1

>  <Name>  (455) 
nan

>  <Pocket>  (455) 
nan

>  <ATP_Site>  (455) 
nan

>  <Peripheral>  (455) 
nan

>  <Num_H_Atoms_ProtBoundConf>  (455) 
nan

>  <Num_Resolved_Atoms>  (455) 
nan

>  <Num_Not_Resolved_Atoms>  (455) 
nan

$$$$
CHEMBL3951166
     RDKit          3D

  0  0  0  0  0  0  0  0  0  0999 V3000
M  V30 BEGIN CTAB
M  V30 COUNTS 34 36 0 0 0
M  V30 BEGIN ATOM
M  V30 1 C -0.496227 -2.948717 4.147442 0
M  V30 2 N 0.022497 -2.294019 2.935124 0
M  V30 3 C 1.247016 -2.682023 2.329456 0
M  V30 4 O 2.009223 -3.615258 2.769296 0
M  V30 5 C 1.585295 -1.903396 1.114748 0
M  V30 6 C 2.309864 -2.273776 0.061742 0
M  V30 7 C 2.427511 -1.218874 -0.949622 0
M  V30 8 C 2.743309 0.047887 -0.467942 0
M  V30 9 C 2.853105 1.123794 -1.346670 0
M  V30 10 N 2.652211 0.942834 -2.689906 0
M  V30 11 C 2.352236 -0.291957 -3.100361 0
M  V30 12 C 2.225759 -1.401600 -2.300455 0
M  V30 13 S 0.703436 -0.348828 1.464159 0
M  V30 14 C -0.667642 -1.226662 2.274771 0
M  V30 15 N -1.898305 -0.943111 2.232754 0
M  V30 16 C -2.370378 0.204542 1.491484 0
M  V30 17 C -2.236205 -0.064134 0.122578 0
M  V30 18 C -2.616360 0.863322 -0.826957 0
M  V30 19 C -3.136419 2.072314 -0.384254 0
M  V30 20 Br -3.695342 3.428472 -1.589692 0
M  V30 21 C -3.264307 2.327520 0.955674 0
M  V30 22 C -2.888308 1.410128 1.913601 0
M  V30 23 H -1.059370 -3.866511 3.817185 0
M  V30 24 H -1.102435 -2.291405 4.759102 0
M  V30 25 H 0.323479 -3.336120 4.775579 0
M  V30 26 H 2.722022 -3.276277 0.054827 0
M  V30 27 H 2.938901 0.316595 0.573282 0
M  V30 28 H 3.096640 2.136158 -1.028276 0
M  V30 29 H 2.187108 -0.456239 -4.174925 0
M  V30 30 H 1.980916 -2.395951 -2.650655 0
M  V30 31 H -1.847134 -0.961899 -0.339167 0
M  V30 32 H -2.538426 0.717695 -1.901885 0
M  V30 33 H -3.658880 3.243783 1.423658 0
M  V30 34 H -2.906398 1.418228 2.992550 0
M  V30 END ATOM
M  V30 BEGIN BOND
M  V30 1 1 1 2
M  V30 2 1 2 3
M  V30 3 2 3 4
M  V30 4 1 3 5
M  V30 5 2 5 6
M  V30 6 1 6 7
M  V30 7 2 7 8
M  V30 8 1 8 9
M  V30 9 2 9 10
M  V30 10 1 10 11
M  V30 11 2 11 12
M  V30 12 1 5 13
M  V30 13 1 13 14
M  V30 14 2 14 15
M  V30 15 1 15 16
M  V30 16 2 16 17
M  V30 17 1 17 18
M  V30 18 2 18 19
M  V30 19 1 19 20
M  V30 20 1 19 21
M  V30 21 2 21 22
M  V30 22 1 14 2
M  V30 23 1 22 16
M  V30 24 1 12 7
M  V30 25 1 1 23
M  V30 26 1 1 24
M  V30 27 1 1 25
M  V30 28 1 6 26
M  V30 29 1 8 27
M  V30 30 1 9 28
M  V30 31 1 11 29
M  V30 32 1 12 30
M  V30 33 1 17 31
M  V30 34 1 18 32
M  V30 35 1 21 33
M  V30 36 1 22 34
M  V30 END BOND
M  V30 END CTAB
M  END
>  <Dataset>  (456) 
ChEMBL_Kinases

>  <Ligand_Instance>  (456) 
nan

>  <PDB_ID>  (456) 
nan

>  <Standardized_SMILES>  (456) 
CN1C(=O)/C(=C/c2ccncc2)S/C1=N\c1ccc(Br)cc1

>  <Name>  (456) 
nan

>  <Pocket>  (456) 
nan

>  <ATP_Site>  (456) 
nan

>  <Peripheral>  (456) 
nan

>  <Num_H_Atoms_ProtBoundConf>  (456) 
nan

>  <Num_Resolved_Atoms>  (456) 
nan

>  <Num_Not_Resolved_Atoms>  (456) 
nan

$$$$
CHEMBL3951141
     RDKit          3D

  0  0  0  0  0  0  0  0  0  0999 V3000
M  V30 BEGIN CTAB
M  V30 COUNTS 52 55 0 0 0
M  V30 BEGIN ATOM
M  V30 1 C -0.547010 -1.563952 8.383956 0
M  V30 2 C -0.002905 -0.715423 7.288666 0
M  V30 3 O -0.566777 0.393622 7.098535 0
M  V30 4 N 1.100574 -1.240912 6.564486 0
M  V30 5 C 1.751357 -0.578006 5.489059 0
M  V30 6 C 2.817719 0.259894 5.718420 0
M  V30 7 C 3.445853 0.899901 4.679053 0
M  V30 8 C 3.059460 0.749876 3.364232 0
M  V30 9 N 3.726761 1.423621 2.309751 0
M  V30 10 C 3.477255 1.394491 0.916211 0
M  V30 11 N 4.246762 2.122852 0.090728 0
M  V30 12 C 4.101441 2.168204 -1.220974 0
M  V30 13 C 3.100150 1.427274 -1.806349 0
M  V30 14 C 2.283583 0.664656 -1.012919 0
M  V30 15 C 1.212934 -0.134142 -1.586413 0
M  V30 16 C 0.359898 -0.920101 -0.843763 0
M  V30 17 C -0.664689 -1.689162 -1.355301 0
M  V30 18 C -0.867024 -1.683480 -2.720264 0
M  V30 19 O -1.899973 -2.459552 -3.230108 0
M  V30 20 C -3.199951 -2.011749 -3.406595 0
M  V30 21 C -3.711894 -0.765819 -3.126849 0
M  V30 22 C -5.040308 -0.496347 -3.368617 0
M  V30 23 C -5.904737 -1.449828 -3.894532 0
M  V30 24 C -5.365765 -2.696385 -4.167772 0
M  V30 25 C -4.020068 -2.997052 -3.931901 0
M  V30 26 N -3.601862 -4.324437 -4.261516 0
M  V30 27 C -0.044026 -0.914898 -3.519399 0
M  V30 28 C 0.962075 -0.169533 -2.938302 0
M  V30 29 N 2.515571 0.688900 0.305591 0
M  V30 30 C 1.988316 -0.099855 3.198580 0
M  V30 31 C 1.316013 -0.770531 4.196074 0
M  V30 32 H -1.435279 -2.147902 8.067005 0
M  V30 33 H 0.193371 -2.295555 8.768317 0
M  V30 34 H -0.892066 -0.895223 9.225569 0
M  V30 35 H 1.503589 -2.174637 6.794373 0
M  V30 36 H 3.176804 0.425946 6.726809 0
M  V30 37 H 4.283970 1.551192 4.917589 0
M  V30 38 H 4.532036 2.037803 2.633186 0
M  V30 39 H 4.794649 2.798626 -1.758262 0
M  V30 40 H 3.021653 1.494892 -2.860893 0
M  V30 41 H 0.467136 -0.966779 0.229923 0
M  V30 42 H -1.303531 -2.288425 -0.713639 0
M  V30 43 H -2.998105 -0.061922 -2.719822 0
M  V30 44 H -5.418942 0.482788 -3.142893 0
M  V30 45 H -6.946894 -1.232539 -4.082279 0
M  V30 46 H -6.080631 -3.422854 -4.582433 0
M  V30 47 H -3.068598 -4.818644 -3.521890 0
M  V30 48 H -3.887843 -4.633373 -5.213729 0
M  V30 49 H -0.232177 -0.935509 -4.580942 0
M  V30 50 H 1.539219 0.387781 -3.645759 0
M  V30 51 H 1.600687 -0.292211 2.215275 0
M  V30 52 H 0.486561 -1.422123 4.016417 0
M  V30 END ATOM
M  V30 BEGIN BOND
M  V30 1 1 1 2
M  V30 2 2 2 3
M  V30 3 1 2 4
M  V30 4 1 4 5
M  V30 5 2 5 6
M  V30 6 1 6 7
M  V30 7 2 7 8
M  V30 8 1 8 9
M  V30 9 1 9 10
M  V30 10 2 10 11
M  V30 11 1 11 12
M  V30 12 2 12 13
M  V30 13 1 13 14
M  V30 14 1 14 15
M  V30 15 2 15 16
M  V30 16 1 16 17
M  V30 17 2 17 18
M  V30 18 1 18 19
M  V30 19 1 19 20
M  V30 20 2 20 21
M  V30 21 1 21 22
M  V30 22 2 22 23
M  V30 23 1 23 24
M  V30 24 2 24 25
M  V30 25 1 25 26
M  V30 26 1 18 27
M  V30 27 2 27 28
M  V30 28 2 14 29
M  V30 29 1 8 30
M  V30 30 2 30 31
M  V30 31 1 31 5
M  V30 32 1 29 10
M  V30 33 1 28 15
M  V30 34 1 25 20
M  V30 35 1 1 32
M  V30 36 1 1 33
M  V30 37 1 1 34
M  V30 38 1 4 35
M  V30 39 1 6 36
M  V30 40 1 7 37
M  V30 41 1 9 38
M  V30 42 1 12 39
M  V30 43 1 13 40
M  V30 44 1 16 41
M  V30 45 1 17 42
M  V30 46 1 21 43
M  V30 47 1 22 44
M  V30 48 1 23 45
M  V30 49 1 24 46
M  V30 50 1 26 47
M  V30 51 1 26 48
M  V30 52 1 27 49
M  V30 53 1 28 50
M  V30 54 1 30 51
M  V30 55 1 31 52
M  V30 END BOND
M  V30 END CTAB
M  END
>  <Dataset>  (457) 
ChEMBL_Kinases

>  <Ligand_Instance>  (457) 
nan

>  <PDB_ID>  (457) 
nan

>  <Standardized_SMILES>  (457) 
CC(=O)Nc1ccc(Nc2nccc(-c3ccc(Oc4ccccc4N)cc3)n2)cc1

>  <Name>  (457) 
nan

>  <Pocket>  (457) 
nan

>  <ATP_Site>  (457) 
nan

>  <Peripheral>  (457) 
nan

>  <Num_H_Atoms_ProtBoundConf>  (457) 
nan

>  <Num_Resolved_Atoms>  (457) 
nan

>  <Num_Not_Resolved_Atoms>  (457) 
nan

$$$$
CHEMBL3702133
     RDKit          3D

  0  0  0  0  0  0  0  0  0  0999 V3000
M  V30 BEGIN CTAB
M  V30 COUNTS 67 73 0 0 0
M  V30 BEGIN ATOM
M  V30 1 C 2.401585 -6.506871 4.613483 0
M  V30 2 C 3.163286 -5.398229 4.287691 0
M  V30 3 C 2.578782 -4.257053 3.768839 0
M  V30 4 C 3.112497 -3.043348 3.367128 0
M  V30 5 C 4.375096 -2.491459 3.322235 0
M  V30 6 N 4.587747 -1.225173 2.857009 0
M  V30 7 C 3.531621 -0.508002 2.433996 0
M  V30 8 N 3.477010 0.819312 1.927345 0
M  V30 9 C 2.689316 1.086247 0.745182 0
M  V30 10 C 2.504570 2.321210 0.163276 0
M  V30 11 C 1.751351 2.441180 -0.982695 0
M  V30 12 C 1.155860 1.367580 -1.597117 0
M  V30 13 N 0.377788 1.491967 -2.776386 0
M  V30 14 C -0.118931 2.726466 -3.345952 0
M  V30 15 C -1.639113 2.789116 -3.305113 0
M  V30 16 C -2.285945 1.447172 -3.142967 0
M  V30 17 C -2.600350 1.100388 -1.693538 0
M  V30 18 C -3.658273 0.015343 -1.872691 0
M  V30 19 C -4.193720 0.245979 -3.267776 0
M  V30 20 N -3.632089 1.533160 -3.693761 0
M  V30 21 C -1.538522 0.330828 -3.797321 0
M  V30 22 C -0.050049 0.412005 -3.634647 0
M  V30 23 C 1.356150 0.153953 -0.996884 0
M  V30 24 N 2.087067 0.034801 0.116155 0
M  V30 25 N 2.306898 -1.059311 2.483961 0
M  V30 26 C 2.036718 -2.298484 2.931679 0
M  V30 27 N 0.854647 -2.981032 3.040964 0
M  V30 28 C -0.466999 -2.494977 2.685962 0
M  V30 29 C -1.510509 -2.807089 3.729081 0
M  V30 30 C -2.310993 -1.539274 3.960666 0
M  V30 31 C -1.884845 -0.559609 2.912128 0
M  V30 32 C -0.457375 -0.984039 2.613990 0
M  V30 33 C 1.220168 -4.162168 3.550301 0
M  V30 34 C 0.495646 -5.285872 3.887492 0
M  V30 35 N 1.077845 -6.390586 4.391740 0
M  V30 36 H 2.817648 -7.421174 5.021008 0
M  V30 37 H 4.238839 -5.416916 4.437640 0
M  V30 38 H 5.214941 -3.074088 3.663091 0
M  V30 39 H 3.942471 1.693489 2.293326 0
M  V30 40 H 2.981884 3.146671 0.666302 0
M  V30 41 H 1.664120 3.437436 -1.361767 0
M  V30 42 H 0.242114 2.822611 -4.391132 0
M  V30 43 H 0.270703 3.625225 -2.815944 0
M  V30 44 H -1.996777 3.277100 -4.230003 0
M  V30 45 H -2.005200 3.438025 -2.457738 0
M  V30 46 H -2.994240 2.010301 -1.203706 0
M  V30 47 H -1.724004 0.651626 -1.191933 0
M  V30 48 H -4.453847 0.070018 -1.100338 0
M  V30 49 H -3.172667 -0.981843 -1.787371 0
M  V30 50 H -3.841732 -0.519637 -3.971333 0
M  V30 51 H -5.308696 0.336963 -3.220232 0
M  V30 52 H -4.183595 2.255729 -3.137863 0
M  V30 53 H -1.854715 0.248092 -4.867004 0
M  V30 54 H -1.907198 -0.628195 -3.337041 0
M  V30 55 H 0.381166 0.594077 -4.653860 0
M  V30 56 H 0.341866 -0.547509 -3.262981 0
M  V30 57 H 0.953426 -0.775318 -1.358948 0
M  V30 58 H -0.708282 -2.880041 1.686387 0
M  V30 59 H -1.029432 -3.149039 4.686735 0
M  V30 60 H -2.197797 -3.597236 3.357340 0
M  V30 61 H -2.086190 -1.105454 4.959406 0
M  V30 62 H -3.400369 -1.771146 3.930927 0
M  V30 63 H -2.514851 -0.638008 2.005756 0
M  V30 64 H -1.881857 0.497256 3.299923 0
M  V30 65 H -0.187116 -0.597970 1.610180 0
M  V30 66 H 0.192014 -0.514521 3.399729 0
M  V30 67 H -0.575801 -5.310869 3.752762 0
M  V30 END ATOM
M  V30 BEGIN BOND
M  V30 1 2 1 2
M  V30 2 1 2 3
M  V30 3 1 3 4
M  V30 4 2 4 5
M  V30 5 1 5 6
M  V30 6 2 6 7
M  V30 7 1 7 8
M  V30 8 1 8 9
M  V30 9 2 9 10
M  V30 10 1 10 11
M  V30 11 2 11 12
M  V30 12 1 12 13
M  V30 13 1 13 14
M  V30 14 1 14 15
M  V30 15 1 15 16
M  V30 16 1 16 17
M  V30 17 1 17 18
M  V30 18 1 18 19
M  V30 19 1 19 20
M  V30 20 1 16 21
M  V30 21 1 21 22
M  V30 22 1 12 23
M  V30 23 2 23 24
M  V30 24 1 7 25
M  V30 25 2 25 26
M  V30 26 1 26 27
M  V30 27 1 27 28
M  V30 28 1 28 29
M  V30 29 1 29 30
M  V30 30 1 30 31
M  V30 31 1 31 32
M  V30 32 1 27 33
M  V30 33 1 33 34
M  V30 34 2 34 35
M  V30 35 1 35 1
M  V30 36 2 33 3
M  V30 37 1 26 4
M  V30 38 1 32 28
M  V30 39 1 24 9
M  V30 40 1 22 13
M  V30 41 1 20 16
M  V30 42 1 1 36
M  V30 43 1 2 37
M  V30 44 1 5 38
M  V30 45 1 8 39
M  V30 46 1 10 40
M  V30 47 1 11 41
M  V30 48 1 14 42
M  V30 49 1 14 43
M  V30 50 1 15 44
M  V30 51 1 15 45
M  V30 52 1 17 46
M  V30 53 1 17 47
M  V30 54 1 18 48
M  V30 55 1 18 49
M  V30 56 1 19 50
M  V30 57 1 19 51
M  V30 58 1 20 52
M  V30 59 1 21 53
M  V30 60 1 21 54
M  V30 61 1 22 55
M  V30 62 1 22 56
M  V30 63 1 23 57
M  V30 64 1 28 58
M  V30 65 1 29 59
M  V30 66 1 29 60
M  V30 67 1 30 61
M  V30 68 1 30 62
M  V30 69 1 31 63
M  V30 70 1 31 64
M  V30 71 1 32 65
M  V30 72 1 32 66
M  V30 73 1 34 67
M  V30 END BOND
M  V30 END CTAB
M  END
>  <Dataset>  (458) 
ChEMBL_Kinases

>  <Ligand_Instance>  (458) 
nan

>  <PDB_ID>  (458) 
nan

>  <Standardized_SMILES>  (458) 
c1cc2c3cnc(Nc4ccc(N5CCC6(CCCN6)CC5)cn4)nc3n(C3CCCC3)c2cn1

>  <Name>  (458) 
nan

>  <Pocket>  (458) 
nan

>  <ATP_Site>  (458) 
nan

>  <Peripheral>  (458) 
nan

>  <Num_H_Atoms_ProtBoundConf>  (458) 
nan

>  <Num_Resolved_Atoms>  (458) 
nan

>  <Num_Not_Resolved_Atoms>  (458) 
nan

$$$$
CHEMBL69151
     RDKit          3D

  0  0  0  0  0  0  0  0  0  0999 V3000
M  V30 BEGIN CTAB
M  V30 COUNTS 23 25 0 0 0
M  V30 BEGIN ATOM
M  V30 1 C 0.033982 -1.069546 4.951792 0
M  V30 2 C 1.041312 -2.049294 5.124074 0
M  V30 3 S 1.783681 -2.147735 3.383818 0
M  V30 4 C 0.720721 -0.947792 2.704717 0
M  V30 5 C 0.785669 -0.539231 1.303371 0
M  V30 6 C 1.732800 -1.140179 0.506593 0
M  V30 7 N 1.764128 -0.733729 -0.796261 0
M  V30 8 C 0.923684 0.195626 -1.275227 0
M  V30 9 C 0.951123 0.612718 -2.599236 0
M  V30 10 C 0.037664 1.585348 -3.007595 0
M  V30 11 C -0.888827 2.147326 -2.150711 0
M  V30 12 C -0.943710 1.754533 -0.824224 0
M  V30 13 C -0.022654 0.792001 -0.466926 0
M  V30 14 N -0.063479 0.393638 0.837742 0
M  V30 15 C -0.095084 -0.532821 3.698501 0
M  V30 16 H -0.567948 -0.804595 5.808512 0
M  V30 17 H 1.278953 -2.575006 6.046781 0
M  V30 18 H 2.439795 -1.887682 0.806855 0
M  V30 19 H 1.653524 0.197300 -3.280689 0
M  V30 20 H 0.020597 1.947279 -4.044490 0
M  V30 21 H -1.595734 2.906057 -2.484804 0
M  V30 22 H -1.639225 2.152255 -0.108649 0
M  V30 23 H -0.836324 0.220367 3.475171 0
M  V30 END ATOM
M  V30 BEGIN BOND
M  V30 1 2 1 2
M  V30 2 1 2 3
M  V30 3 1 3 4
M  V30 4 1 4 5
M  V30 5 2 5 6
M  V30 6 1 6 7
M  V30 7 2 7 8
M  V30 8 1 8 9
M  V30 9 2 9 10
M  V30 10 1 10 11
M  V30 11 2 11 12
M  V30 12 1 12 13
M  V30 13 2 13 14
M  V30 14 2 4 15
M  V30 15 1 15 1
M  V30 16 1 14 5
M  V30 17 1 13 8
M  V30 18 1 1 16
M  V30 19 1 2 17
M  V30 20 1 6 18
M  V30 21 1 9 19
M  V30 22 1 10 20
M  V30 23 1 11 21
M  V30 24 1 12 22
M  V30 25 1 15 23
M  V30 END BOND
M  V30 END CTAB
M  END
>  <Dataset>  (459) 
ChEMBL_Kinases

>  <Ligand_Instance>  (459) 
nan

>  <PDB_ID>  (459) 
nan

>  <Standardized_SMILES>  (459) 
c1csc(-c2cnc3ccccc3n2)c1

>  <Name>  (459) 
nan

>  <Pocket>  (459) 
nan

>  <ATP_Site>  (459) 
nan

>  <Peripheral>  (459) 
nan

>  <Num_H_Atoms_ProtBoundConf>  (459) 
nan

>  <Num_Resolved_Atoms>  (459) 
nan

>  <Num_Not_Resolved_Atoms>  (459) 
nan

$$$$
CHEMBL3947241
     RDKit          3D

  0  0  0  0  0  0  0  0  0  0999 V3000
M  V30 BEGIN CTAB
M  V30 COUNTS 73 77 0 0 0
M  V30 BEGIN ATOM
M  V30 1 C 2.855381 2.402180 6.440736 0
M  V30 2 C 3.754202 1.589006 5.601519 0
M  V30 3 C 4.744991 0.820005 6.224745 0
M  V30 4 C 5.535337 0.093246 5.359346 0
M  V30 5 C 5.350580 0.130943 3.974926 0
M  V30 6 C 4.358907 0.906446 3.419447 0
M  V30 7 C 4.204439 0.918347 1.960165 0
M  V30 8 O 4.965217 0.213978 1.233247 0
M  V30 9 N 3.174871 1.752895 1.483897 0
M  V30 10 C 2.665968 2.079464 0.197622 0
M  V30 11 N 3.142748 3.096106 -0.537178 0
M  V30 12 N 2.507022 3.203490 -1.691868 0
M  V30 13 C 1.566083 2.217507 -1.730778 0
M  V30 14 C 1.660631 1.518093 -0.562036 0
M  V30 15 C 0.654647 0.452937 -0.584703 0
M  V30 16 N -0.303118 0.859530 -1.618159 0
M  V30 17 C -1.681299 0.672419 -1.859178 0
M  V30 18 O -2.355373 1.122372 -2.831615 0
M  V30 19 N -2.646812 -0.049924 -1.095639 0
M  V30 20 C -4.018885 -0.074770 -1.562656 0
M  V30 21 C -4.457629 -1.487905 -1.972551 0
M  V30 22 N -3.462307 -2.360815 -1.319666 0
M  V30 23 C -3.818455 -3.737541 -1.447571 0
M  V30 24 C -2.814519 -4.763307 -1.107707 0
M  V30 25 C -1.557385 -4.680192 -1.970459 0
M  V30 26 C -0.486137 -5.576752 -1.355380 0
M  V30 27 O -1.106279 -6.665800 -0.700289 0
M  V30 28 C -1.592929 -6.217064 0.498029 0
M  V30 29 C -2.431950 -4.957285 0.326763 0
M  V30 30 C -3.535886 -1.879871 0.081068 0
M  V30 31 C -2.454414 -0.816304 0.149503 0 CFG=2
M  V30 32 C -2.600798 0.048575 1.375435 0
M  V30 33 C 0.483932 1.625512 -2.558994 0
M  V30 34 C -0.313515 2.769487 -3.127544 0
M  V30 35 C 1.062273 0.752628 -3.657515 0
M  V30 36 N 3.610215 1.597637 4.270795 0
M  V30 37 H 2.015526 1.782640 6.776751 0
M  V30 38 H 2.383659 3.225399 5.830338 0
M  V30 39 H 3.347089 2.815163 7.345240 0
M  V30 40 H 4.901998 0.778877 7.291318 0
M  V30 41 H 6.342422 -0.543625 5.742865 0
M  V30 42 H 5.994644 -0.455401 3.341133 0
M  V30 43 H 2.567665 2.322116 2.122227 0
M  V30 44 H 2.696461 3.906769 -2.421183 0
M  V30 45 H 0.095689 0.374858 0.375164 0
M  V30 46 H 1.155016 -0.494268 -0.863823 0
M  V30 47 H -4.717628 0.339701 -0.791852 0
M  V30 48 H -4.142654 0.595699 -2.434031 0
M  V30 49 H -5.471219 -1.715959 -1.642916 0
M  V30 50 H -4.356799 -1.559917 -3.066257 0
M  V30 51 H -4.775179 -3.978523 -0.919669 0
M  V30 52 H -4.079811 -3.890771 -2.541714 0
M  V30 53 H -3.272102 -5.758301 -1.420683 0
M  V30 54 H -1.193868 -3.650155 -2.075816 0
M  V30 55 H -1.780006 -5.082148 -2.968425 0
M  V30 56 H 0.244765 -5.949407 -2.071342 0
M  V30 57 H 0.001755 -4.980824 -0.559120 0
M  V30 58 H -0.726401 -5.983335 1.143200 0
M  V30 59 H -2.176380 -6.981702 1.054323 0
M  V30 60 H -3.293743 -5.038866 0.994225 0
M  V30 61 H -1.773720 -4.143976 0.711162 0
M  V30 62 H -3.479353 -2.658236 0.822517 0
M  V30 63 H -4.551157 -1.410842 0.233359 0
M  V30 64 H -1.502338 -1.388224 0.124047 0
M  V30 65 H -2.745629 1.106255 1.109015 0
M  V30 66 H -1.694142 -0.119080 2.014144 0
M  V30 67 H -3.458393 -0.358204 1.959787 0
M  V30 68 H -0.827432 2.400957 -4.039029 0
M  V30 69 H -1.105122 3.041209 -2.398913 0
M  V30 70 H 0.334378 3.638388 -3.378399 0
M  V30 71 H 0.222267 0.413654 -4.298433 0
M  V30 72 H 1.763254 1.383203 -4.236160 0
M  V30 73 H 1.637465 -0.064021 -3.205677 0
M  V30 END ATOM
M  V30 BEGIN BOND
M  V30 1 1 1 2
M  V30 2 2 2 3
M  V30 3 1 3 4
M  V30 4 2 4 5
M  V30 5 1 5 6
M  V30 6 1 6 7
M  V30 7 2 7 8
M  V30 8 1 7 9
M  V30 9 1 9 10
M  V30 10 2 10 11
M  V30 11 1 11 12
M  V30 12 1 12 13
M  V30 13 2 13 14
M  V30 14 1 14 15
M  V30 15 1 15 16
M  V30 16 1 16 17
M  V30 17 2 17 18
M  V30 18 1 17 19
M  V30 19 1 19 20
M  V30 20 1 20 21
M  V30 21 1 21 22
M  V30 22 1 22 23
M  V30 23 1 23 24
M  V30 24 1 24 25
M  V30 25 1 25 26
M  V30 26 1 26 27
M  V30 27 1 27 28
M  V30 28 1 28 29
M  V30 29 1 22 30
M  V30 30 1 30 31
M  V30 31 1 31 32
M  V30 32 1 16 33
M  V30 33 1 33 34
M  V30 34 1 33 35
M  V30 35 2 6 36
M  V30 36 1 36 2
M  V30 37 1 14 10
M  V30 38 1 31 19
M  V30 39 1 33 13
M  V30 40 1 29 24
M  V30 41 1 1 37
M  V30 42 1 1 38
M  V30 43 1 1 39
M  V30 44 1 3 40
M  V30 45 1 4 41
M  V30 46 1 5 42
M  V30 47 1 9 43
M  V30 48 1 12 44
M  V30 49 1 15 45
M  V30 50 1 15 46
M  V30 51 1 20 47
M  V30 52 1 20 48
M  V30 53 1 21 49
M  V30 54 1 21 50
M  V30 55 1 23 51
M  V30 56 1 23 52
M  V30 57 1 24 53
M  V30 58 1 25 54
M  V30 59 1 25 55
M  V30 60 1 26 56
M  V30 61 1 26 57
M  V30 62 1 28 58
M  V30 63 1 28 59
M  V30 64 1 29 60
M  V30 65 1 29 61
M  V30 66 1 30 62
M  V30 67 1 30 63
M  V30 68 1 31 64 CFG=3
M  V30 69 1 32 65
M  V30 70 1 32 66
M  V30 71 1 32 67
M  V30 72 1 34 68
M  V30 73 1 34 69
M  V30 74 1 34 70
M  V30 75 1 35 71
M  V30 76 1 35 72
M  V30 77 1 35 73
M  V30 END BOND
M  V30 END CTAB
M  END
>  <Dataset>  (460) 
ChEMBL_Kinases

>  <Ligand_Instance>  (460) 
nan

>  <PDB_ID>  (460) 
nan

>  <Standardized_SMILES>  (460) 
Cc1cccc(C(=O)Nc2n[nH]c3c2CN(C(=O)N2CCN(CC4CCOCC4)C[C@@H]2C)C3(C)C)n1

>  <Name>  (460) 
nan

>  <Pocket>  (460) 
nan

>  <ATP_Site>  (460) 
nan

>  <Peripheral>  (460) 
nan

>  <Num_H_Atoms_ProtBoundConf>  (460) 
nan

>  <Num_Resolved_Atoms>  (460) 
nan

>  <Num_Not_Resolved_Atoms>  (460) 
nan

$$$$
CHEMBL3947140
     RDKit          3D

  0  0  0  0  0  0  0  0  0  0999 V3000
M  V30 BEGIN CTAB
M  V30 COUNTS 41 44 0 0 0
M  V30 BEGIN ATOM
M  V30 1 C -0.706471 -3.860946 0.458065 0
M  V30 2 C 0.541550 -3.789226 1.277537 0
M  V30 3 N 1.090544 -4.775362 1.992327 0
M  V30 4 N 2.197182 -4.320240 2.589697 0
M  V30 5 C 2.383986 -3.024144 2.268388 0
M  V30 6 C 3.347645 -2.126651 2.616933 0
M  V30 7 C 3.350695 -0.805293 2.162783 0
M  V30 8 C 2.289153 -0.525777 1.341238 0
M  V30 9 C 2.109946 0.772670 0.730771 0
M  V30 10 O 3.216096 1.416218 0.627524 0
M  V30 11 N 1.066361 1.566241 0.201683 0
M  V30 12 C 1.386938 2.878768 -0.355409 0
M  V30 13 C 0.781388 2.660113 -1.763608 0
M  V30 14 C -0.242214 1.517126 -1.566470 0
M  V30 15 C -0.367470 1.635074 -0.067727 0 CFG=1
M  V30 16 C -1.194558 0.661767 0.601968 0
M  V30 17 C -1.043480 0.611327 1.985384 0
M  V30 18 C -1.791073 -0.291854 2.725571 0
M  V30 19 C -2.692768 -1.147807 2.084934 0
M  V30 20 Cl -3.685696 -2.324885 2.883608 0
M  V30 21 C -2.813568 -1.066045 0.716791 0
M  V30 22 C -2.084581 -0.181849 -0.030419 0
M  V30 23 N 1.318035 -1.411767 0.985385 0
M  V30 24 C 1.345021 -2.676149 1.440152 0
M  V30 25 H -1.581990 -3.654380 1.136792 0
M  V30 26 H -0.678276 -3.163112 -0.378558 0
M  V30 27 H -0.782843 -4.901880 0.060649 0
M  V30 28 H 2.783746 -4.915912 3.192589 0
M  V30 29 H 4.149300 -2.433803 3.273029 0
M  V30 30 H 4.080662 -0.045886 2.404350 0
M  V30 31 H 0.769450 3.650412 0.158554 0
M  V30 32 H 2.447174 3.108897 -0.386514 0
M  V30 33 H 0.234737 3.551705 -2.109380 0
M  V30 34 H 1.615516 2.345244 -2.411003 0
M  V30 35 H 0.341455 0.586911 -1.756029 0
M  V30 36 H -1.147280 1.642359 -2.138090 0
M  V30 37 H -0.737805 2.683793 0.168774 0
M  V30 38 H -0.384232 1.218650 2.605326 0
M  V30 39 H -1.778511 -0.441436 3.801831 0
M  V30 40 H -3.477630 -1.681688 0.130783 0
M  V30 41 H -2.103298 -0.037234 -1.105125 0
M  V30 END ATOM
M  V30 BEGIN BOND
M  V30 1 1 1 2
M  V30 2 2 2 3
M  V30 3 1 3 4
M  V30 4 1 4 5
M  V30 5 2 5 6
M  V30 6 1 6 7
M  V30 7 2 7 8
M  V30 8 1 8 9
M  V30 9 2 9 10
M  V30 10 1 9 11
M  V30 11 1 11 12
M  V30 12 1 12 13
M  V30 13 1 13 14
M  V30 14 1 14 15
M  V30 15 1 15 16
M  V30 16 2 16 17
M  V30 17 1 17 18
M  V30 18 2 18 19
M  V30 19 1 19 20
M  V30 20 1 19 21
M  V30 21 2 21 22
M  V30 22 1 8 23
M  V30 23 2 23 24
M  V30 24 1 24 2
M  V30 25 1 24 5
M  V30 26 1 15 11
M  V30 27 1 22 16
M  V30 28 1 1 25
M  V30 29 1 1 26
M  V30 30 1 1 27
M  V30 31 1 4 28
M  V30 32 1 6 29
M  V30 33 1 7 30
M  V30 34 1 12 31
M  V30 35 1 12 32
M  V30 36 1 13 33
M  V30 37 1 13 34
M  V30 38 1 14 35
M  V30 39 1 14 36
M  V30 40 1 15 37 CFG=3
M  V30 41 1 17 38
M  V30 42 1 18 39
M  V30 43 1 21 40
M  V30 44 1 22 41
M  V30 END BOND
M  V30 END CTAB
M  END
>  <Dataset>  (461) 
ChEMBL_Kinases

>  <Ligand_Instance>  (461) 
nan

>  <PDB_ID>  (461) 
nan

>  <Standardized_SMILES>  (461) 
Cc1n[nH]c2ccc(C(=O)N3CCC[C@H]3c3ccc(Cl)cc3)nc12

>  <Name>  (461) 
nan

>  <Pocket>  (461) 
nan

>  <ATP_Site>  (461) 
nan

>  <Peripheral>  (461) 
nan

>  <Num_H_Atoms_ProtBoundConf>  (461) 
nan

>  <Num_Resolved_Atoms>  (461) 
nan

>  <Num_Not_Resolved_Atoms>  (461) 
nan

$$$$
CHEMBL4875513
     RDKit          3D

  0  0  0  0  0  0  0  0  0  0999 V3000
M  V30 BEGIN CTAB
M  V30 COUNTS 44 47 0 0 0
M  V30 BEGIN ATOM
M  V30 1 O 5.119281 0.102906 2.958668 0
M  V30 2 C 3.917549 -0.244152 2.834048 0
M  V30 3 O 3.189497 -0.520671 3.983668 0
M  V30 4 C 3.702783 -0.439055 5.300583 0
M  V30 5 C 2.630937 -0.811043 6.298300 0
M  V30 6 O 1.517732 -0.009309 6.266935 0
M  V30 7 C 3.270773 -0.362983 1.531256 0
M  V30 8 C 3.924290 -0.094902 0.353116 0
M  V30 9 C 3.212407 -0.231995 -0.838969 0
M  V30 10 C 1.894717 -0.621522 -0.882735 0
M  V30 11 C 1.247682 -0.888879 0.303189 0
M  V30 12 C 1.949664 -0.753383 1.476468 0
M  V30 13 N -0.054557 -1.269045 0.291731 0
M  V30 14 C -0.740547 -1.392968 -0.858712 0
M  V30 15 N -2.064834 -1.798839 -0.638107 0
M  V30 16 C -2.888538 -0.714186 -0.220651 0
M  V30 17 C -2.459710 0.589985 -0.142367 0
M  V30 18 C -3.232058 1.670057 0.278636 0
M  V30 19 C -4.530810 1.403503 0.644941 0
M  V30 20 C -5.041251 0.115626 0.594951 0
M  V30 21 Cl -6.707813 -0.210023 1.070510 0
M  V30 22 C -4.210277 -0.898656 0.166196 0
M  V30 23 C -0.096122 -1.126394 -2.046080 0
M  V30 24 C -0.858241 -1.273985 -3.175552 0
M  V30 25 C -0.174950 -0.995923 -4.356100 0
M  V30 26 N 1.113328 -0.618088 -4.380690 0
M  V30 27 C 1.852972 -0.476004 -3.271111 0
M  V30 28 C 1.223139 -0.739362 -2.077739 0
M  V30 29 H 4.027643 0.598532 5.543451 0
M  V30 30 H 4.539418 -1.153342 5.396822 0
M  V30 31 H 3.040641 -0.857340 7.318182 0
M  V30 32 H 2.259172 -1.856308 6.087292 0
M  V30 33 H 0.867185 -0.268595 5.565752 0
M  V30 34 H 4.975208 0.216116 0.384161 0
M  V30 35 H 3.804439 -0.001729 -1.706124 0
M  V30 36 H 1.389293 -0.978376 2.369850 0
M  V30 37 H -2.521672 -2.730259 -0.727794 0
M  V30 38 H -1.431584 0.828056 -0.429876 0
M  V30 39 H -2.777915 2.672542 0.300505 0
M  V30 40 H -5.144347 2.219766 0.974329 0
M  V30 41 H -4.620909 -1.912467 0.129356 0
M  V30 42 H -1.896209 -1.580749 -3.128678 0
M  V30 43 H -0.698770 -1.088025 -5.294188 0
M  V30 44 H 2.879246 -0.169353 -3.369834 0
M  V30 END ATOM
M  V30 BEGIN BOND
M  V30 1 2 1 2
M  V30 2 1 2 3
M  V30 3 1 3 4
M  V30 4 1 4 5
M  V30 5 1 5 6
M  V30 6 1 2 7
M  V30 7 2 7 8
M  V30 8 1 8 9
M  V30 9 2 9 10
M  V30 10 1 10 11
M  V30 11 2 11 12
M  V30 12 1 11 13
M  V30 13 2 13 14
M  V30 14 1 14 15
M  V30 15 1 15 16
M  V30 16 2 16 17
M  V30 17 1 17 18
M  V30 18 2 18 19
M  V30 19 1 19 20
M  V30 20 1 20 21
M  V30 21 2 20 22
M  V30 22 1 14 23
M  V30 23 2 23 24
M  V30 24 1 24 25
M  V30 25 2 25 26
M  V30 26 1 26 27
M  V30 27 2 27 28
M  V30 28 1 12 7
M  V30 29 1 22 16
M  V30 30 1 28 23
M  V30 31 1 28 10
M  V30 32 1 4 29
M  V30 33 1 4 30
M  V30 34 1 5 31
M  V30 35 1 5 32
M  V30 36 1 6 33
M  V30 37 1 8 34
M  V30 38 1 9 35
M  V30 39 1 12 36
M  V30 40 1 15 37
M  V30 41 1 17 38
M  V30 42 1 18 39
M  V30 43 1 19 40
M  V30 44 1 22 41
M  V30 45 1 24 42
M  V30 46 1 25 43
M  V30 47 1 27 44
M  V30 END BOND
M  V30 END CTAB
M  END
>  <Dataset>  (462) 
ChEMBL_Kinases

>  <Ligand_Instance>  (462) 
nan

>  <PDB_ID>  (462) 
nan

>  <Standardized_SMILES>  (462) 
O=C(OCCO)c1ccc2c(c1)nc(Nc1cccc(Cl)c1)c1ccncc12

>  <Name>  (462) 
nan

>  <Pocket>  (462) 
nan

>  <ATP_Site>  (462) 
nan

>  <Peripheral>  (462) 
nan

>  <Num_H_Atoms_ProtBoundConf>  (462) 
nan

>  <Num_Resolved_Atoms>  (462) 
nan

>  <Num_Not_Resolved_Atoms>  (462) 
nan

$$$$
CHEMBL3947096
     RDKit          3D

  0  0  0  0  0  0  0  0  0  0999 V3000
M  V30 BEGIN CTAB
M  V30 COUNTS 48 52 0 0 0
M  V30 BEGIN ATOM
M  V30 1 N 1.384058 -7.547642 -3.474310 0
M  V30 2 C 2.578038 -6.794745 -3.438754 0
M  V30 3 O 3.231805 -7.735848 -3.892250 0
M  V30 4 C 2.623393 -5.429617 -2.970740 0
M  V30 5 C 3.863863 -4.836846 -3.008217 0
M  V30 6 C 3.922391 -3.512501 -2.555752 0
M  V30 7 C 2.765640 -2.884997 -2.107234 0
M  V30 8 N 2.605352 -1.634591 -1.638222 0
M  V30 9 C 1.297620 -1.518258 -1.339460 0
M  V30 10 C 0.654340 -0.325405 -0.795670 0
M  V30 11 C 1.347457 0.823757 -0.528641 0
M  V30 12 C 0.755456 1.980125 -0.009074 0
M  V30 13 C -0.602677 1.937782 0.240396 0
M  V30 14 C -1.385495 3.077525 0.792484 0
M  V30 15 C -1.409196 2.992849 2.279718 0
M  V30 16 C -0.491451 3.564406 3.149503 0
M  V30 17 C -0.635312 3.406776 4.516773 0
M  V30 18 C -1.695638 2.677630 5.034946 0
M  V30 19 C -1.846236 2.516194 6.415533 0
M  V30 20 C -2.907160 1.787090 6.948270 0
M  V30 21 C -3.805311 1.228970 6.065037 0
M  V30 22 C -3.702372 1.358275 4.694061 0
M  V30 23 C -2.633412 2.090489 4.213305 0
M  V30 24 C -2.464512 2.264917 2.842662 0
M  V30 25 C -1.341553 0.797987 -0.014698 0
M  V30 26 C -0.698753 -0.312138 -0.527914 0
M  V30 27 N 0.671207 -2.671381 -1.619148 0
M  V30 28 C 1.550401 -3.564314 -2.105070 0
M  V30 29 C 1.444685 -4.871029 -2.542010 0
M  V30 30 H 0.704880 -7.657401 -2.674267 0
M  V30 31 H 0.684758 -8.158131 -3.933012 0
M  V30 32 H 4.734932 -5.382539 -3.371828 0
M  V30 33 H 4.870614 -3.007730 -2.566516 0
M  V30 34 H 3.284313 -0.853723 -1.499309 0
M  V30 35 H 2.422792 0.884154 -0.717062 0
M  V30 36 H 1.292840 2.891855 0.205156 0
M  V30 37 H -0.887439 4.016306 0.481752 0
M  V30 38 H -2.434811 3.067894 0.427308 0
M  V30 39 H 0.308554 4.118199 2.687144 0
M  V30 40 H 0.087708 3.857414 5.185071 0
M  V30 41 H -1.066374 3.008454 7.005952 0
M  V30 42 H -2.942682 1.716453 8.018146 0
M  V30 43 H -4.617844 0.668659 6.521719 0
M  V30 44 H -4.423331 0.908978 4.014506 0
M  V30 45 H -3.203767 1.802406 2.206017 0
M  V30 46 H -2.425401 0.731073 0.171927 0
M  V30 47 H -1.230515 -1.246576 -0.751834 0
M  V30 48 H 0.508170 -5.398418 -2.541669 0
M  V30 END ATOM
M  V30 BEGIN BOND
M  V30 1 1 1 2
M  V30 2 2 2 3
M  V30 3 1 2 4
M  V30 4 2 4 5
M  V30 5 1 5 6
M  V30 6 2 6 7
M  V30 7 1 7 8
M  V30 8 1 8 9
M  V30 9 1 9 10
M  V30 10 2 10 11
M  V30 11 1 11 12
M  V30 12 2 12 13
M  V30 13 1 13 14
M  V30 14 1 14 15
M  V30 15 2 15 16
M  V30 16 1 16 17
M  V30 17 2 17 18
M  V30 18 1 18 19
M  V30 19 2 19 20
M  V30 20 1 20 21
M  V30 21 2 21 22
M  V30 22 1 22 23
M  V30 23 2 23 24
M  V30 24 1 13 25
M  V30 25 2 25 26
M  V30 26 2 9 27
M  V30 27 1 27 28
M  V30 28 2 28 29
M  V30 29 1 29 4
M  V30 30 1 28 7
M  V30 31 1 26 10
M  V30 32 1 24 15
M  V30 33 1 23 18
M  V30 34 1 1 30
M  V30 35 1 1 31
M  V30 36 1 5 32
M  V30 37 1 6 33
M  V30 38 1 8 34
M  V30 39 1 11 35
M  V30 40 1 12 36
M  V30 41 1 14 37
M  V30 42 1 14 38
M  V30 43 1 16 39
M  V30 44 1 17 40
M  V30 45 1 19 41
M  V30 46 1 20 42
M  V30 47 1 21 43
M  V30 48 1 22 44
M  V30 49 1 24 45
M  V30 50 1 25 46
M  V30 51 1 26 47
M  V30 52 1 29 48
M  V30 END BOND
M  V30 END CTAB
M  END
>  <Dataset>  (463) 
ChEMBL_Kinases

>  <Ligand_Instance>  (463) 
nan

>  <PDB_ID>  (463) 
nan

>  <Standardized_SMILES>  (463) 
NC(=O)c1ccc2[nH]c(-c3ccc(Cc4ccc5ccccc5c4)cc3)nc2c1

>  <Name>  (463) 
nan

>  <Pocket>  (463) 
nan

>  <ATP_Site>  (463) 
nan

>  <Peripheral>  (463) 
nan

>  <Num_H_Atoms_ProtBoundConf>  (463) 
nan

>  <Num_Resolved_Atoms>  (463) 
nan

>  <Num_Not_Resolved_Atoms>  (463) 
nan

$$$$
CHEMBL3946903
     RDKit          3D

  0  0  0  0  0  0  0  0  0  0999 V3000
M  V30 BEGIN CTAB
M  V30 COUNTS 62 66 0 0 0
M  V30 BEGIN ATOM
M  V30 1 C 3.631205 0.451564 9.483776 0
M  V30 2 N 3.089894 0.386984 8.156767 0
M  V30 3 C 3.680964 1.186342 7.147029 0
M  V30 4 N 4.716203 1.975820 7.435639 0
M  V30 5 C 5.289750 2.742563 6.487076 0
M  V30 6 C 4.786474 2.704244 5.183742 0
M  V30 7 C 3.714077 1.884589 4.890719 0
M  V30 8 C 3.180964 1.837520 3.532772 0
M  V30 9 C 2.106743 1.045830 3.142823 0
M  V30 10 C 1.941338 1.312352 1.776777 0
M  V30 11 C 1.031601 0.813948 0.868054 0
M  V30 12 C 1.000186 1.182434 -0.460188 0
M  V30 13 C 0.054538 0.676876 -1.451491 0
M  V30 14 O 0.085354 1.057675 -2.650477 0
M  V30 15 N -0.936479 -0.259476 -1.118464 0
M  V30 16 C -1.957642 -0.880485 -1.938819 0 CFG=1
M  V30 17 C -1.633672 -2.354448 -2.026050 0
M  V30 18 N -2.588564 -3.113494 -2.807212 0
M  V30 19 C -3.806652 -3.555006 -2.237406 0
M  V30 20 C -4.034036 -3.383254 -0.899510 0
M  V30 21 C -5.197045 -3.748922 -0.256678 0
M  V30 22 C -6.231328 -4.331589 -0.962292 0
M  V30 23 C -6.044285 -4.526455 -2.323886 0
M  V30 24 C -4.852299 -4.131409 -2.885398 0
M  V30 25 C -2.188634 -3.372628 -4.169320 0
M  V30 26 N -2.883015 -4.066784 -5.069692 0
M  V30 27 C -2.498649 -4.295739 -6.320950 0
M  V30 28 C -1.306875 -3.804422 -6.773053 0
M  V30 29 C -0.581099 -3.087465 -5.856502 0
M  V30 30 N -1.020137 -2.893512 -4.620150 0
M  V30 31 C -3.333674 -0.576838 -1.541730 0
M  V30 32 O -2.697141 0.108827 -0.674241 0
M  V30 33 O -4.294435 0.032609 -0.759608 0
M  V30 34 C 1.944042 2.102250 -0.871525 0
M  V30 35 C 2.867904 2.612922 0.036026 0
M  V30 36 C 2.889743 2.236721 1.363159 0
M  V30 37 N 3.612264 2.521769 2.457237 0
M  V30 38 N 3.195299 1.149014 5.890294 0
M  V30 39 H 3.084386 -0.224604 10.179728 0
M  V30 40 H 3.609571 1.500410 9.861224 0
M  V30 41 H 4.689008 0.109920 9.520042 0
M  V30 42 H 2.280495 -0.234357 7.941059 0
M  V30 43 H 6.129902 3.396554 6.676156 0
M  V30 44 H 5.198495 3.296702 4.362040 0
M  V30 45 H 1.508059 0.365612 3.728240 0
M  V30 46 H 0.315022 0.106221 1.212913 0
M  V30 47 H -1.024007 -0.630331 -0.124977 0
M  V30 48 H -1.872094 -0.520347 -3.005479 0
M  V30 49 H -0.603688 -2.440657 -2.458784 0
M  V30 50 H -1.541303 -2.738847 -0.993404 0
M  V30 51 H -3.340899 -2.972973 -0.185586 0
M  V30 52 H -5.408858 -3.627149 0.795580 0
M  V30 53 H -7.160158 -4.633927 -0.499250 0
M  V30 54 H -6.851986 -4.983071 -2.879450 0
M  V30 55 H -4.816615 -4.323932 -3.937788 0
M  V30 56 H -3.127009 -4.874391 -6.995112 0
M  V30 57 H -0.915231 -3.936922 -7.761116 0
M  V30 58 H 0.385631 -2.627787 -6.051430 0
M  V30 59 H -5.063254 0.569906 -1.151996 0
M  V30 60 H 1.981894 2.436089 -1.887384 0
M  V30 61 H 3.605783 3.325510 -0.263186 0
M  V30 62 H 4.402792 3.199207 2.424422 0
M  V30 END ATOM
M  V30 BEGIN BOND
M  V30 1 1 1 2
M  V30 2 1 2 3
M  V30 3 2 3 4
M  V30 4 1 4 5
M  V30 5 2 5 6
M  V30 6 1 6 7
M  V30 7 1 7 8
M  V30 8 2 8 9
M  V30 9 1 9 10
M  V30 10 2 10 11
M  V30 11 1 11 12
M  V30 12 1 12 13
M  V30 13 2 13 14
M  V30 14 1 13 15
M  V30 15 1 15 16
M  V30 16 1 16 17
M  V30 17 1 17 18
M  V30 18 1 18 19
M  V30 19 2 19 20
M  V30 20 1 20 21
M  V30 21 2 21 22
M  V30 22 1 22 23
M  V30 23 2 23 24
M  V30 24 1 18 25
M  V30 25 2 25 26
M  V30 26 1 26 27
M  V30 27 2 27 28
M  V30 28 1 28 29
M  V30 29 2 29 30
M  V30 30 1 16 31
M  V30 31 2 31 32
M  V30 32 1 31 33
M  V30 33 2 12 34
M  V30 34 1 34 35
M  V30 35 2 35 36
M  V30 36 1 36 37
M  V30 37 2 7 38
M  V30 38 1 38 3
M  V30 39 1 37 8
M  V30 40 1 36 10
M  V30 41 1 24 19
M  V30 42 1 30 25
M  V30 43 1 1 39
M  V30 44 1 1 40
M  V30 45 1 1 41
M  V30 46 1 2 42
M  V30 47 1 5 43
M  V30 48 1 6 44
M  V30 49 1 9 45
M  V30 50 1 11 46
M  V30 51 1 15 47
M  V30 52 1 16 48 CFG=3
M  V30 53 1 17 49
M  V30 54 1 17 50
M  V30 55 1 20 51
M  V30 56 1 21 52
M  V30 57 1 22 53
M  V30 58 1 23 54
M  V30 59 1 24 55
M  V30 60 1 27 56
M  V30 61 1 28 57
M  V30 62 1 29 58
M  V30 63 1 33 59
M  V30 64 1 34 60
M  V30 65 1 35 61
M  V30 66 1 37 62
M  V30 END BOND
M  V30 END CTAB
M  END
>  <Dataset>  (464) 
ChEMBL_Kinases

>  <Ligand_Instance>  (464) 
nan

>  <PDB_ID>  (464) 
nan

>  <Standardized_SMILES>  (464) 
CNc1nccc(-c2cc3cc(C(=O)N[C@@H](CN(c4ccccc4)c4ncccn4)C(=O)O)ccc3[nH]2)n1

>  <Name>  (464) 
nan

>  <Pocket>  (464) 
nan

>  <ATP_Site>  (464) 
nan

>  <Peripheral>  (464) 
nan

>  <Num_H_Atoms_ProtBoundConf>  (464) 
nan

>  <Num_Resolved_Atoms>  (464) 
nan

>  <Num_Not_Resolved_Atoms>  (464) 
nan

$$$$
CHEMBL394683
     RDKit          3D

  0  0  0  0  0  0  0  0  0  0999 V3000
M  V30 BEGIN CTAB
M  V30 COUNTS 32 34 0 0 0
M  V30 BEGIN ATOM
M  V30 1 O -0.501927 -1.934047 1.944220 0
M  V30 2 C 0.503421 -2.399901 1.364978 0
M  V30 3 N 1.410528 -3.438524 1.693668 0
M  V30 4 C 2.404978 -3.563228 0.657928 0
M  V30 5 C 3.469584 -4.455406 0.593746 0
M  V30 6 C 4.298235 -4.377128 -0.520168 0
M  V30 7 C 4.098366 -3.463072 -1.536058 0
M  V30 8 C 3.025761 -2.601547 -1.419958 0
M  V30 9 C 2.154513 -2.627123 -0.326888 0
M  V30 10 C 0.972759 -1.893351 0.097645 0
M  V30 11 N 0.469967 -0.938972 -0.605950 0
M  V30 12 N -0.659880 -0.202113 -0.248678 0
M  V30 13 C -0.608166 0.786585 0.732340 0
M  V30 14 O 0.557411 0.883687 1.200022 0
M  V30 15 C -1.647663 1.656982 1.248791 0
M  V30 16 C -1.322542 2.561783 2.235456 0
M  V30 17 C -2.231975 3.424213 2.785754 0
M  V30 18 C -3.536602 3.445980 2.389532 0
M  V30 19 C -3.902324 2.555287 1.403639 0
M  V30 20 C -2.967984 1.703418 0.871613 0
M  V30 21 O -3.399313 0.837918 -0.110696 0
M  V30 22 H 1.326953 -4.009345 2.581112 0
M  V30 23 H 3.686172 -5.196076 1.350601 0
M  V30 24 H 5.167724 -5.033447 -0.672189 0
M  V30 25 H 4.763826 -3.417629 -2.406617 0
M  V30 26 H 2.813543 -1.862556 -2.179813 0
M  V30 27 H -1.581609 -0.370072 -0.707458 0
M  V30 28 H -0.303362 2.607648 2.606309 0
M  V30 29 H -1.914431 4.109151 3.555517 0
M  V30 30 H -4.294444 4.097821 2.782909 0
M  V30 31 H -4.925274 2.540229 1.061627 0
M  V30 32 H -3.628360 1.228539 -1.015559 0
M  V30 END ATOM
M  V30 BEGIN BOND
M  V30 1 2 1 2
M  V30 2 1 2 3
M  V30 3 1 3 4
M  V30 4 2 4 5
M  V30 5 1 5 6
M  V30 6 2 6 7
M  V30 7 1 7 8
M  V30 8 2 8 9
M  V30 9 1 9 10
M  V30 10 2 10 11
M  V30 11 1 11 12
M  V30 12 1 12 13
M  V30 13 2 13 14
M  V30 14 1 13 15
M  V30 15 2 15 16
M  V30 16 1 16 17
M  V30 17 2 17 18
M  V30 18 1 18 19
M  V30 19 2 19 20
M  V30 20 1 20 21
M  V30 21 1 10 2
M  V30 22 1 20 15
M  V30 23 1 9 4
M  V30 24 1 3 22
M  V30 25 1 5 23
M  V30 26 1 6 24
M  V30 27 1 7 25
M  V30 28 1 8 26
M  V30 29 1 12 27
M  V30 30 1 16 28
M  V30 31 1 17 29
M  V30 32 1 18 30
M  V30 33 1 19 31
M  V30 34 1 21 32
M  V30 END BOND
M  V30 END CTAB
M  END
>  <Dataset>  (465) 
ChEMBL_Kinases

>  <Ligand_Instance>  (465) 
nan

>  <PDB_ID>  (465) 
nan

>  <Standardized_SMILES>  (465) 
O=C1Nc2ccccc2/C1=N/NC(=O)c1ccccc1O

>  <Name>  (465) 
nan

>  <Pocket>  (465) 
nan

>  <ATP_Site>  (465) 
nan

>  <Peripheral>  (465) 
nan

>  <Num_H_Atoms_ProtBoundConf>  (465) 
nan

>  <Num_Resolved_Atoms>  (465) 
nan

>  <Num_Not_Resolved_Atoms>  (465) 
nan

$$$$
CHEMBL3946793
     RDKit          3D

  0  0  0  0  0  0  0  0  0  0999 V3000
M  V30 BEGIN CTAB
M  V30 COUNTS 41 44 0 0 0
M  V30 BEGIN ATOM
M  V30 1 O -0.442075 -7.706781 3.844624 0
M  V30 2 C -0.440747 -6.328552 4.031588 0
M  V30 3 C 0.808451 -5.728799 4.226601 0
M  V30 4 C 0.904570 -4.362541 4.420573 0
M  V30 5 C -0.277811 -3.636429 4.411388 0
M  V30 6 O -0.198074 -2.259904 4.605261 0
M  V30 7 C -0.050376 -1.442484 3.489858 0
M  V30 8 C 1.152617 -1.050115 2.939759 0
M  V30 9 C 1.215634 -0.235172 1.828832 0
M  V30 10 C 0.020969 0.173548 1.287588 0
M  V30 11 C -0.279893 0.977459 0.196424 0
M  V30 12 C 0.647267 1.637259 -0.714387 0
M  V30 13 C 0.230457 2.377986 -1.717977 0
M  V30 14 C 1.113427 3.057844 -2.655535 0
M  V30 15 C 2.478602 3.014485 -2.614179 0
M  V30 16 C 3.277869 3.686276 -3.539671 0
M  V30 17 C 2.692175 4.428273 -4.542833 0
M  V30 18 C 1.315879 4.492701 -4.612744 0
M  V30 19 C 0.567774 3.811050 -3.674485 0
M  V30 20 N -1.625793 1.058323 0.103751 0
M  V30 21 N -2.190136 0.356407 1.067215 0
M  V30 22 C -1.199639 -0.203073 1.816463 0
M  V30 23 C -1.259246 -1.027436 2.940178 0
M  V30 24 C -1.531118 -4.217133 4.218583 0
M  V30 25 C -1.603745 -5.584388 4.026616 0
M  V30 26 H -0.925012 -8.107675 3.040360 0
M  V30 27 H 1.716145 -6.311477 4.230228 0
M  V30 28 H 1.852962 -3.887056 4.571360 0
M  V30 29 H 2.054658 -1.417799 3.428902 0
M  V30 30 H 2.159316 0.069985 1.400898 0
M  V30 31 H 1.707856 1.506671 -0.550280 0
M  V30 32 H -0.827549 2.456837 -1.811643 0
M  V30 33 H 2.963558 2.444371 -1.843862 0
M  V30 34 H 4.361536 3.616993 -3.459347 0
M  V30 35 H 3.269904 4.967868 -5.285369 0
M  V30 36 H 0.848964 5.070883 -5.394291 0
M  V30 37 H -0.518604 3.906479 -3.790379 0
M  V30 38 H -3.214058 0.247377 1.229025 0
M  V30 39 H -2.241697 -1.289283 3.309617 0
M  V30 40 H -2.428544 -3.598600 4.220753 0
M  V30 41 H -2.553636 -6.060432 3.875620 0
M  V30 END ATOM
M  V30 BEGIN BOND
M  V30 1 1 1 2
M  V30 2 2 2 3
M  V30 3 1 3 4
M  V30 4 2 4 5
M  V30 5 1 5 6
M  V30 6 1 6 7
M  V30 7 2 7 8
M  V30 8 1 8 9
M  V30 9 2 9 10
M  V30 10 1 10 11
M  V30 11 1 11 12
M  V30 12 2 12 13
M  V30 13 1 13 14
M  V30 14 2 14 15
M  V30 15 1 15 16
M  V30 16 2 16 17
M  V30 17 1 17 18
M  V30 18 2 18 19
M  V30 19 2 11 20
M  V30 20 1 20 21
M  V30 21 1 21 22
M  V30 22 2 22 23
M  V30 23 1 5 24
M  V30 24 2 24 25
M  V30 25 1 25 2
M  V30 26 1 23 7
M  V30 27 1 22 10
M  V30 28 1 19 14
M  V30 29 1 1 26
M  V30 30 1 3 27
M  V30 31 1 4 28
M  V30 32 1 8 29
M  V30 33 1 9 30
M  V30 34 1 12 31
M  V30 35 1 13 32
M  V30 36 1 15 33
M  V30 37 1 16 34
M  V30 38 1 17 35
M  V30 39 1 18 36
M  V30 40 1 19 37
M  V30 41 1 21 38
M  V30 42 1 23 39
M  V30 43 1 24 40
M  V30 44 1 25 41
M  V30 END BOND
M  V30 END CTAB
M  END
>  <Dataset>  (466) 
ChEMBL_Kinases

>  <Ligand_Instance>  (466) 
nan

>  <PDB_ID>  (466) 
nan

>  <Standardized_SMILES>  (466) 
Oc1ccc(Oc2ccc3c(/C=C/c4ccccc4)n[nH]c3c2)cc1

>  <Name>  (466) 
nan

>  <Pocket>  (466) 
nan

>  <ATP_Site>  (466) 
nan

>  <Peripheral>  (466) 
nan

>  <Num_H_Atoms_ProtBoundConf>  (466) 
nan

>  <Num_Resolved_Atoms>  (466) 
nan

>  <Num_Not_Resolved_Atoms>  (466) 
nan

$$$$
CHEMBL3946558
     RDKit          3D

  0  0  0  0  0  0  0  0  0  0999 V3000
M  V30 BEGIN CTAB
M  V30 COUNTS 49 53 0 0 0
M  V30 BEGIN ATOM
M  V30 1 O 1.800710 -4.449192 3.387750 0
M  V30 2 C 2.247516 -3.744355 2.434493 0
M  V30 3 C 3.402662 -3.961689 1.492611 0
M  V30 4 O 3.014818 -3.593855 0.170303 0
M  V30 5 C 2.338973 -2.422409 -0.104353 0
M  V30 6 C 2.378657 -1.779410 -1.326727 0
M  V30 7 C 1.683653 -0.606283 -1.554309 0
M  V30 8 C 0.927676 -0.056715 -0.537775 0
M  V30 9 C 0.123929 1.203262 -0.616243 0
M  V30 10 O 0.201274 1.767896 -1.879003 0
M  V30 11 C 0.652610 2.137777 0.430319 0
M  V30 12 C 1.944602 2.618395 0.416348 0
M  V30 13 C 2.351909 3.466493 1.424984 0
M  V30 14 C 1.489037 3.828330 2.427356 0
M  V30 15 C 0.193069 3.324759 2.409796 0
M  V30 16 C -0.251232 2.474618 1.418255 0
M  V30 17 C -1.472316 1.766436 1.046773 0
M  V30 18 O -2.515917 1.854759 1.748508 0
M  V30 19 N -1.241641 1.024016 -0.170658 0
M  V30 20 C -2.335794 0.261898 -0.740061 0
M  V30 21 C -2.388322 -1.129308 -0.225509 0
M  V30 22 C -1.748429 -2.204131 -0.809906 0
M  V30 23 C -1.802176 -3.494353 -0.325972 0
M  V30 24 C -2.547432 -3.739228 0.826061 0
M  V30 25 C -3.187738 -2.680468 1.416074 0
M  V30 26 N -3.941989 -2.938312 2.585092 0 CHG=1 VAL=4
M  V30 27 O -4.047851 -4.064342 3.092593 0
M  V30 28 O -4.621925 -1.942704 3.251982 0 CHG=-1 VAL=1
M  V30 29 C -3.133757 -1.389848 0.931693 0
M  V30 30 C 0.893307 -0.712968 0.693819 0
M  V30 31 C 1.579967 -1.885251 0.941727 0
M  V30 32 N 1.514208 -2.523617 2.224073 0
M  V30 33 H 4.270989 -3.340877 1.785704 0
M  V30 34 H 3.671156 -5.019904 1.538810 0
M  V30 35 H 2.962221 -2.198728 -2.119815 0
M  V30 36 H 1.676124 -0.065800 -2.475246 0
M  V30 37 H 0.285745 2.752796 -1.734346 0
M  V30 38 H 2.703629 2.398882 -0.321724 0
M  V30 39 H 3.345885 3.900343 1.507455 0
M  V30 40 H 1.736096 4.486065 3.247783 0
M  V30 41 H -0.551693 3.563916 3.168529 0
M  V30 42 H -3.322135 0.702156 -0.524644 0
M  V30 43 H -2.253540 0.279903 -1.857641 0
M  V30 44 H -1.193722 -1.915915 -1.700773 0
M  V30 45 H -1.268845 -4.277068 -0.848685 0
M  V30 46 H -2.550442 -4.760440 1.152069 0
M  V30 47 H -3.667680 -0.624731 1.460497 0
M  V30 48 H 0.313901 -0.316830 1.516640 0
M  V30 49 H 0.933152 -2.081421 2.970890 0
M  V30 END ATOM
M  V30 BEGIN BOND
M  V30 1 2 1 2
M  V30 2 1 2 3
M  V30 3 1 3 4
M  V30 4 1 4 5
M  V30 5 2 5 6
M  V30 6 1 6 7
M  V30 7 2 7 8
M  V30 8 1 8 9
M  V30 9 1 9 10
M  V30 10 1 9 11
M  V30 11 2 11 12
M  V30 12 1 12 13
M  V30 13 2 13 14
M  V30 14 1 14 15
M  V30 15 2 15 16
M  V30 16 1 16 17
M  V30 17 2 17 18
M  V30 18 1 17 19
M  V30 19 1 19 20
M  V30 20 1 20 21
M  V30 21 2 21 22
M  V30 22 1 22 23
M  V30 23 2 23 24
M  V30 24 1 24 25
M  V30 25 1 25 26
M  V30 26 2 26 27
M  V30 27 1 26 28
M  V30 28 2 25 29
M  V30 29 1 8 30
M  V30 30 2 30 31
M  V30 31 1 31 32
M  V30 32 1 32 2
M  V30 33 1 31 5
M  V30 34 1 19 9
M  V30 35 1 29 21
M  V30 36 1 16 11
M  V30 37 1 3 33
M  V30 38 1 3 34
M  V30 39 1 6 35
M  V30 40 1 7 36
M  V30 41 1 10 37
M  V30 42 1 12 38
M  V30 43 1 13 39
M  V30 44 1 14 40
M  V30 45 1 15 41
M  V30 46 1 20 42
M  V30 47 1 20 43
M  V30 48 1 22 44
M  V30 49 1 23 45
M  V30 50 1 24 46
M  V30 51 1 29 47
M  V30 52 1 30 48
M  V30 53 1 32 49
M  V30 END BOND
M  V30 END CTAB
M  END
>  <Dataset>  (467) 
ChEMBL_Kinases

>  <Ligand_Instance>  (467) 
nan

>  <PDB_ID>  (467) 
nan

>  <Standardized_SMILES>  (467) 
O=C1COc2ccc(C3(O)c4ccccc4C(=O)N3Cc3cccc([N+](=O)[O-])c3)cc2N1

>  <Name>  (467) 
nan

>  <Pocket>  (467) 
nan

>  <ATP_Site>  (467) 
nan

>  <Peripheral>  (467) 
nan

>  <Num_H_Atoms_ProtBoundConf>  (467) 
nan

>  <Num_Resolved_Atoms>  (467) 
nan

>  <Num_Not_Resolved_Atoms>  (467) 
nan

$$$$
CHEMBL3946523
     RDKit          3D

  0  0  0  0  0  0  0  0  0  0999 V3000
M  V30 BEGIN CTAB
M  V30 COUNTS 49 52 0 0 0
M  V30 BEGIN ATOM
M  V30 1 C 0.081714 0.195246 2.667912 0
M  V30 2 C 1.078571 -0.672665 3.395353 0
M  V30 3 C 0.373367 -1.017027 4.738401 0
M  V30 4 C 2.193127 0.261547 3.827675 0
M  V30 5 O 1.383984 -1.773116 2.810064 0
M  V30 6 C 1.955341 -2.185336 1.722478 0
M  V30 7 C 1.376970 -1.805493 0.386157 0 CFG=2
M  V30 8 N 1.328328 -0.432655 0.072397 0
M  V30 9 C 0.505646 0.363097 -0.746089 0
M  V30 10 C 1.096928 1.586491 -1.262212 0
M  V30 11 C 2.064182 2.385935 -0.689788 0
M  V30 12 C 2.511174 3.515149 -1.322048 0
M  V30 13 C 2.039017 3.928500 -2.549955 0
M  V30 14 Br 2.737596 5.517129 -3.330147 0
M  V30 15 C 1.079088 3.146984 -3.132010 0
M  V30 16 C 0.611376 1.998401 -2.509381 0
M  V30 17 N -0.717350 0.119651 -1.085968 0
M  V30 18 C -1.583685 -0.964250 -0.766345 0
M  V30 19 N -2.910598 -1.049206 -0.973177 0
M  V30 20 C -3.381134 -2.240351 -0.531805 0
M  V30 21 C -4.672537 -2.776967 -0.531374 0
M  V30 22 C -4.856837 -4.039266 -0.005155 0
M  V30 23 C -3.753509 -4.729626 0.504291 0
M  V30 24 C -2.498558 -4.133114 0.470560 0
M  V30 25 N -2.312180 -2.905420 -0.040002 0
M  V30 26 C -1.224752 -2.145678 -0.176545 0
M  V30 27 C 0.104418 -2.560794 0.251407 0
M  V30 28 O 0.303667 -3.756232 0.585535 0
M  V30 29 H 0.564269 1.081522 2.192909 0
M  V30 30 H -0.630467 0.685558 3.413002 0
M  V30 31 H -0.590087 -0.378745 2.018048 0
M  V30 32 H -0.074651 -0.078515 5.097726 0
M  V30 33 H -0.364824 -1.826589 4.581792 0
M  V30 34 H 1.179805 -1.291960 5.458931 0
M  V30 35 H 2.829343 0.606138 3.017749 0
M  V30 36 H 1.681822 1.160278 4.243847 0
M  V30 37 H 2.785429 -0.158361 4.671255 0
M  V30 38 H 1.859177 -3.336757 1.709549 0
M  V30 39 H 3.089769 -2.111351 1.689658 0
M  V30 40 H 2.086826 -2.275956 -0.373496 0
M  V30 41 H 2.094337 0.057461 0.587291 0
M  V30 42 H 2.412608 2.042244 0.262524 0
M  V30 43 H 3.276357 4.048271 -0.752014 0
M  V30 44 H 0.703527 3.467777 -4.099234 0
M  V30 45 H -0.156185 1.467919 -3.086223 0
M  V30 46 H -5.505341 -2.208565 -0.936874 0
M  V30 47 H -5.868406 -4.426931 -0.019342 0
M  V30 48 H -3.948417 -5.713719 0.905134 0
M  V30 49 H -1.745346 -4.748103 0.883137 0
M  V30 END ATOM
M  V30 BEGIN BOND
M  V30 1 1 1 2
M  V30 2 1 2 3
M  V30 3 1 2 4
M  V30 4 1 2 5
M  V30 5 1 5 6
M  V30 6 1 6 7
M  V30 7 1 7 8
M  V30 8 1 8 9
M  V30 9 1 9 10
M  V30 10 2 10 11
M  V30 11 1 11 12
M  V30 12 2 12 13
M  V30 13 1 13 14
M  V30 14 1 13 15
M  V30 15 2 15 16
M  V30 16 2 9 17
M  V30 17 1 17 18
M  V30 18 1 18 19
M  V30 19 2 19 20
M  V30 20 1 20 21
M  V30 21 2 21 22
M  V30 22 1 22 23
M  V30 23 2 23 24
M  V30 24 1 24 25
M  V30 25 1 25 26
M  V30 26 1 26 27
M  V30 27 2 27 28
M  V30 28 1 27 7
M  V30 29 1 16 10
M  V30 30 2 26 18
M  V30 31 1 25 20
M  V30 32 1 1 29
M  V30 33 1 1 30
M  V30 34 1 1 31
M  V30 35 1 3 32
M  V30 36 1 3 33
M  V30 37 1 3 34
M  V30 38 1 4 35
M  V30 39 1 4 36
M  V30 40 1 4 37
M  V30 41 1 6 38
M  V30 42 1 6 39
M  V30 43 1 7 40 CFG=3
M  V30 44 1 8 41
M  V30 45 1 11 42
M  V30 46 1 12 43
M  V30 47 1 15 44
M  V30 48 1 16 45
M  V30 49 1 21 46
M  V30 50 1 22 47
M  V30 51 1 23 48
M  V30 52 1 24 49
M  V30 END BOND
M  V30 END CTAB
M  END
>  <Dataset>  (468) 
ChEMBL_Kinases

>  <Ligand_Instance>  (468) 
nan

>  <PDB_ID>  (468) 
nan

>  <Standardized_SMILES>  (468) 
CC(C)(C)OC[C@@H]1NC(c2ccc(Br)cc2)=Nc2nc3ccccn3c2C1=O

>  <Name>  (468) 
nan

>  <Pocket>  (468) 
nan

>  <ATP_Site>  (468) 
nan

>  <Peripheral>  (468) 
nan

>  <Num_H_Atoms_ProtBoundConf>  (468) 
nan

>  <Num_Resolved_Atoms>  (468) 
nan

>  <Num_Not_Resolved_Atoms>  (468) 
nan

$$$$
CHEMBL3946440
     RDKit          3D

  0  0  0  0  0  0  0  0  0  0999 V3000
M  V30 BEGIN CTAB
M  V30 COUNTS 48 52 0 0 0
M  V30 BEGIN ATOM
M  V30 1 C 0.314537 -6.651591 4.580708 0
M  V30 2 O 1.334149 -5.674134 4.321008 0
M  V30 3 C 1.235461 -4.741997 3.329460 0
M  V30 4 O 0.136730 -4.872757 2.695807 0
M  V30 5 N 2.212255 -3.757394 3.032889 0
M  V30 6 C 1.866067 -2.896819 1.939701 0
M  V30 7 N 1.184146 -1.742821 2.126009 0
M  V30 8 C 0.997254 -1.136250 0.923232 0
M  V30 9 C 0.391691 0.034343 0.459356 0
M  V30 10 C 0.426445 0.291384 -0.913589 0
M  V30 11 C -0.269204 1.583502 -1.220455 0
M  V30 12 O -0.205181 1.883529 -2.579196 0
M  V30 13 C 0.402385 2.714941 -0.504972 0
M  V30 14 C 1.722049 3.069000 -0.709499 0
M  V30 15 C 2.294320 4.117461 -0.012567 0
M  V30 16 C 1.484451 4.796347 0.899664 0
M  V30 17 C 0.159234 4.430210 1.095486 0
M  V30 18 C -0.398830 3.385107 0.395678 0
M  V30 19 C -1.681607 2.703743 0.286887 0
M  V30 20 O -2.665360 3.086905 1.005562 0
M  V30 21 N -1.602896 1.641253 -0.684456 0
M  V30 22 C -2.779517 0.871338 -0.946875 0
M  V30 23 C -2.922961 -0.330666 -0.070599 0
M  V30 24 N -3.363443 -0.607677 0.925336 0
M  V30 25 C -3.380039 -1.790939 1.527284 0
M  V30 26 C -2.792040 -2.823249 0.872640 0
M  V30 27 S -2.214367 -1.994928 -0.657254 0
M  V30 28 C 1.032349 -0.564818 -1.809593 0
M  V30 29 C 1.629549 -1.719993 -1.349085 0
M  V30 30 C 1.608203 -1.996389 0.005800 0
M  V30 31 N 2.134464 -3.065047 0.631268 0
M  V30 32 H 0.308386 -7.368658 3.736998 0
M  V30 33 H -0.649087 -6.073293 4.469051 0
M  V30 34 H 0.425332 -7.097426 5.567865 0
M  V30 35 H 3.062323 -3.772140 3.638067 0
M  V30 36 H -0.049317 0.632893 1.216848 0
M  V30 37 H -0.469124 2.833373 -2.663410 0
M  V30 38 H 2.416054 2.594425 -1.397162 0
M  V30 39 H 3.321686 4.455753 -0.116680 0
M  V30 40 H 1.913703 5.615895 1.451683 0
M  V30 41 H -0.490587 4.944927 1.801107 0
M  V30 42 H -3.719921 1.448139 -0.840145 0
M  V30 43 H -2.750314 0.569735 -2.025868 0
M  V30 44 H -3.857721 -1.898585 2.514550 0
M  V30 45 H -2.717384 -3.836544 1.214121 0
M  V30 46 H 0.974509 -0.225835 -2.834167 0
M  V30 47 H 2.088440 -2.354554 -2.087799 0
M  V30 48 H 2.646753 -3.876911 0.254032 0
M  V30 END ATOM
M  V30 BEGIN BOND
M  V30 1 1 1 2
M  V30 2 1 2 3
M  V30 3 2 3 4
M  V30 4 1 3 5
M  V30 5 1 5 6
M  V30 6 2 6 7
M  V30 7 1 7 8
M  V30 8 2 8 9
M  V30 9 1 9 10
M  V30 10 1 10 11
M  V30 11 1 11 12
M  V30 12 1 11 13
M  V30 13 2 13 14
M  V30 14 1 14 15
M  V30 15 2 15 16
M  V30 16 1 16 17
M  V30 17 2 17 18
M  V30 18 1 18 19
M  V30 19 2 19 20
M  V30 20 1 19 21
M  V30 21 1 21 22
M  V30 22 1 22 23
M  V30 23 2 23 24
M  V30 24 1 24 25
M  V30 25 2 25 26
M  V30 26 1 26 27
M  V30 27 2 10 28
M  V30 28 1 28 29
M  V30 29 2 29 30
M  V30 30 1 30 31
M  V30 31 1 31 6
M  V30 32 1 30 8
M  V30 33 1 21 11
M  V30 34 1 27 23
M  V30 35 1 18 13
M  V30 36 1 1 32
M  V30 37 1 1 33
M  V30 38 1 1 34
M  V30 39 1 5 35
M  V30 40 1 9 36
M  V30 41 1 12 37
M  V30 42 1 14 38
M  V30 43 1 15 39
M  V30 44 1 16 40
M  V30 45 1 17 41
M  V30 46 1 22 42
M  V30 47 1 22 43
M  V30 48 1 25 44
M  V30 49 1 26 45
M  V30 50 1 28 46
M  V30 51 1 29 47
M  V30 52 1 31 48
M  V30 END BOND
M  V30 END CTAB
M  END
>  <Dataset>  (469) 
ChEMBL_Kinases

>  <Ligand_Instance>  (469) 
nan

>  <PDB_ID>  (469) 
nan

>  <Standardized_SMILES>  (469) 
COC(=O)Nc1nc2cc(C3(O)c4ccccc4C(=O)N3Cc3nccs3)ccc2[nH]1

>  <Name>  (469) 
nan

>  <Pocket>  (469) 
nan

>  <ATP_Site>  (469) 
nan

>  <Peripheral>  (469) 
nan

>  <Num_H_Atoms_ProtBoundConf>  (469) 
nan

>  <Num_Resolved_Atoms>  (469) 
nan

>  <Num_Not_Resolved_Atoms>  (469) 
nan

$$$$
CHEMBL3946400
     RDKit          3D

  0  0  0  0  0  0  0  0  0  0999 V3000
M  V30 BEGIN CTAB
M  V30 COUNTS 58 62 0 0 0
M  V30 BEGIN ATOM
M  V30 1 C 1.991614 0.077313 5.440728 0
M  V30 2 C 1.491839 0.146098 4.040689 0
M  V30 3 N 0.946960 1.261157 3.528421 0
M  V30 4 N 0.630695 0.943957 2.290695 0
M  V30 5 C 0.962827 -0.328686 2.024716 0
M  V30 6 C 0.805885 -1.127206 0.785317 0 CFG=2
M  V30 7 C 2.063612 -0.941426 -0.039227 0
M  V30 8 C 2.319172 0.460049 -0.416466 0
M  V30 9 C 3.480422 0.583446 -1.170078 0
M  V30 10 C 3.907944 1.825099 -1.631495 0
M  V30 11 C 3.192293 2.954618 -1.352472 0
M  V30 12 C 2.042284 2.769104 -0.596414 0
M  V30 13 N 1.222447 3.879219 -0.248484 0
M  V30 14 C 0.015406 3.966701 0.501528 0
M  V30 15 C -1.337383 3.896842 0.168336 0
M  V30 16 C -2.032278 4.053526 1.343099 0
M  V30 17 N -1.112997 4.206824 2.309118 0
M  V30 18 N 0.109699 4.157028 1.820910 0
M  V30 19 N 1.639428 1.564258 -0.156254 0
M  V30 20 C -0.330247 -0.660782 -0.064550 0
M  V30 21 C -1.655641 -1.270765 0.183077 0
M  V30 22 C -1.630848 -2.748645 0.474728 0 CFG=1
M  V30 23 O -1.510390 -3.546436 -0.638773 0
M  V30 24 C -2.313176 -4.475280 -1.203001 0
M  V30 25 C -1.683484 -4.988430 -2.347890 0
M  V30 26 C -2.285286 -5.974017 -3.140705 0
M  V30 27 C -3.524090 -6.456980 -2.796408 0
M  V30 28 C -4.149560 -5.972516 -1.691472 0
M  V30 29 Cl -5.733964 -6.518569 -1.159614 0
M  V30 30 C -3.554679 -5.003447 -0.914406 0
M  V30 31 F -4.093796 -4.459579 0.199448 0
M  V30 32 C -0.601167 -3.034126 1.550184 0
M  V30 33 C 0.763932 -2.584091 1.150480 0
M  V30 34 O 1.498637 -0.788888 3.148906 0
M  V30 35 H 2.961207 0.647372 5.535004 0
M  V30 36 H 2.296704 -0.981810 5.687239 0
M  V30 37 H 1.274157 0.500545 6.152952 0
M  V30 38 H 1.984923 -1.530606 -0.986658 0
M  V30 39 H 2.960692 -1.341575 0.487305 0
M  V30 40 H 4.147375 -0.226338 -1.467479 0
M  V30 41 H 4.807063 1.955268 -2.220341 0
M  V30 42 H 3.494135 3.949390 -1.696396 0
M  V30 43 H 1.496396 4.834672 -0.568604 0
M  V30 44 H -1.628407 3.745840 -0.853773 0
M  V30 45 H -3.116261 4.039767 1.371373 0
M  V30 46 H -1.415565 4.344796 3.308150 0
M  V30 47 H -0.084563 -0.772508 -1.140205 0
M  V30 48 H -0.445639 0.448846 0.105729 0
M  V30 49 H -2.184536 -0.720764 1.000682 0
M  V30 50 H -2.282283 -1.127364 -0.723670 0
M  V30 51 H -2.601614 -2.955811 0.964931 0
M  V30 52 H -0.707476 -4.722281 -2.765395 0
M  V30 53 H -1.849072 -6.404111 -4.029208 0
M  V30 54 H -4.038015 -7.223790 -3.377828 0
M  V30 55 H -0.904572 -2.410939 2.434084 0
M  V30 56 H -0.598738 -4.077389 1.856747 0
M  V30 57 H 1.417420 -2.694363 2.063035 0
M  V30 58 H 1.225169 -3.180071 0.356918 0
M  V30 END ATOM
M  V30 BEGIN BOND
M  V30 1 1 1 2
M  V30 2 2 2 3
M  V30 3 1 3 4
M  V30 4 2 4 5
M  V30 5 1 5 6
M  V30 6 1 6 7 CFG=3
M  V30 7 1 7 8
M  V30 8 2 8 9
M  V30 9 1 9 10
M  V30 10 2 10 11
M  V30 11 1 11 12
M  V30 12 1 12 13
M  V30 13 1 13 14
M  V30 14 1 14 15
M  V30 15 2 15 16
M  V30 16 1 16 17
M  V30 17 1 17 18
M  V30 18 2 12 19
M  V30 19 1 6 20
M  V30 20 1 20 21
M  V30 21 1 21 22
M  V30 22 1 22 23
M  V30 23 1 23 24
M  V30 24 2 24 25
M  V30 25 1 25 26
M  V30 26 2 26 27
M  V30 27 1 27 28
M  V30 28 1 28 29
M  V30 29 2 28 30
M  V30 30 1 30 31
M  V30 31 1 22 32
M  V30 32 1 32 33
M  V30 33 1 5 34
M  V30 34 1 34 2
M  V30 35 1 33 6
M  V30 36 1 19 8
M  V30 37 1 30 24
M  V30 38 2 18 14
M  V30 39 1 1 35
M  V30 40 1 1 36
M  V30 41 1 1 37
M  V30 42 1 7 38
M  V30 43 1 7 39
M  V30 44 1 9 40
M  V30 45 1 10 41
M  V30 46 1 11 42
M  V30 47 1 13 43
M  V30 48 1 15 44
M  V30 49 1 16 45
M  V30 50 1 17 46
M  V30 51 1 20 47
M  V30 52 1 20 48
M  V30 53 1 21 49
M  V30 54 1 21 50
M  V30 55 1 22 51 CFG=1
M  V30 56 1 25 52
M  V30 57 1 26 53
M  V30 58 1 27 54
M  V30 59 1 32 55
M  V30 60 1 32 56
M  V30 61 1 33 57
M  V30 62 1 33 58
M  V30 END BOND
M  V30 END CTAB
M  END
>  <Dataset>  (470) 
ChEMBL_Kinases

>  <Ligand_Instance>  (470) 
nan

>  <PDB_ID>  (470) 
nan

>  <Standardized_SMILES>  (470) 
Cc1nnc([C@]2(Cc3cccc(Nc4cc[nH]n4)n3)CC[C@@H](Oc3cccc(Cl)c3F)CC2)o1

>  <Name>  (470) 
nan

>  <Pocket>  (470) 
nan

>  <ATP_Site>  (470) 
nan

>  <Peripheral>  (470) 
nan

>  <Num_H_Atoms_ProtBoundConf>  (470) 
nan

>  <Num_Resolved_Atoms>  (470) 
nan

>  <Num_Not_Resolved_Atoms>  (470) 
nan

$$$$
CHEMBL3949857
     RDKit          3D

  0  0  0  0  0  0  0  0  0  0999 V3000
M  V30 BEGIN CTAB
M  V30 COUNTS 47 51 0 0 0
M  V30 BEGIN ATOM
M  V30 1 O -1.882989 -2.893699 4.987604 0
M  V30 2 C -1.214713 -2.952386 3.913046 0
M  V30 3 C -0.691158 -4.215893 3.351003 0
M  V30 4 O 0.493197 -4.061782 2.631925 0
M  V30 5 C 0.819381 -2.943446 1.871163 0
M  V30 6 C 1.803980 -2.976244 0.896788 0
M  V30 7 C 2.096945 -1.837633 0.161451 0
M  V30 8 C 1.373460 -0.682786 0.438760 0
M  V30 9 C 1.622574 0.590936 -0.294843 0
M  V30 10 O 2.610452 0.481143 -1.246568 0
M  V30 11 C 1.913905 1.626384 0.742647 0
M  V30 12 C 3.054609 1.604448 1.521347 0
M  V30 13 C 3.269332 2.588240 2.486594 0
M  V30 14 C 2.330477 3.564741 2.639874 0
M  V30 15 C 1.205260 3.557687 1.847518 0
M  V30 16 C 0.962205 2.609729 0.891794 0
M  V30 17 C -0.034743 2.258771 -0.112848 0
M  V30 18 O -1.081978 2.981615 -0.248175 0
M  V30 19 N 0.365613 1.070134 -0.830022 0
M  V30 20 C -0.496839 0.599648 -1.896266 0
M  V30 21 C -1.494131 -0.354733 -1.356693 0
M  V30 22 C -2.727698 0.055893 -0.859994 0
M  V30 23 C -3.671040 -0.816590 -0.359395 0
M  V30 24 C -3.406425 -2.175034 -0.336609 0
M  V30 25 C -2.200218 -2.639719 -0.815885 0
M  V30 26 I -1.711051 -4.692431 -0.820272 0
M  V30 27 C -1.286383 -1.735698 -1.306813 0
M  V30 28 C 0.377364 -0.622626 1.414024 0
M  V30 29 C 0.099968 -1.770957 2.137509 0
M  V30 30 N -0.918005 -1.775963 3.159599 0
M  V30 31 H -1.491716 -4.657614 2.725194 0
M  V30 32 H -0.500774 -4.928892 4.186180 0
M  V30 33 H 2.342932 -3.904447 0.716360 0
M  V30 34 H 2.855413 -1.828662 -0.602005 0
M  V30 35 H 3.486976 0.369364 -0.839766 0
M  V30 36 H 3.853436 0.868866 1.469814 0
M  V30 37 H 4.152930 2.608122 3.120252 0
M  V30 38 H 2.456770 4.347834 3.377378 0
M  V30 39 H 0.432221 4.328093 1.945945 0
M  V30 40 H -0.976293 1.442550 -2.451991 0
M  V30 41 H 0.111155 0.062470 -2.678356 0
M  V30 42 H -2.989513 1.099376 -0.852156 0
M  V30 43 H -4.628200 -0.524362 0.028789 0
M  V30 44 H -4.084295 -2.930328 0.036195 0
M  V30 45 H -0.358151 -2.102217 -1.674857 0
M  V30 46 H -0.183132 0.260785 1.633209 0
M  V30 47 H -1.471021 -0.896959 3.373149 0
M  V30 END ATOM
M  V30 BEGIN BOND
M  V30 1 2 1 2
M  V30 2 1 2 3
M  V30 3 1 3 4
M  V30 4 1 4 5
M  V30 5 2 5 6
M  V30 6 1 6 7
M  V30 7 2 7 8
M  V30 8 1 8 9
M  V30 9 1 9 10
M  V30 10 1 9 11
M  V30 11 2 11 12
M  V30 12 1 12 13
M  V30 13 2 13 14
M  V30 14 1 14 15
M  V30 15 2 15 16
M  V30 16 1 16 17
M  V30 17 2 17 18
M  V30 18 1 17 19
M  V30 19 1 19 20
M  V30 20 1 20 21
M  V30 21 2 21 22
M  V30 22 1 22 23
M  V30 23 2 23 24
M  V30 24 1 24 25
M  V30 25 1 25 26
M  V30 26 2 25 27
M  V30 27 1 8 28
M  V30 28 2 28 29
M  V30 29 1 29 30
M  V30 30 1 30 2
M  V30 31 1 29 5
M  V30 32 1 19 9
M  V30 33 1 27 21
M  V30 34 1 16 11
M  V30 35 1 3 31
M  V30 36 1 3 32
M  V30 37 1 6 33
M  V30 38 1 7 34
M  V30 39 1 10 35
M  V30 40 1 12 36
M  V30 41 1 13 37
M  V30 42 1 14 38
M  V30 43 1 15 39
M  V30 44 1 20 40
M  V30 45 1 20 41
M  V30 46 1 22 42
M  V30 47 1 23 43
M  V30 48 1 24 44
M  V30 49 1 27 45
M  V30 50 1 28 46
M  V30 51 1 30 47
M  V30 END BOND
M  V30 END CTAB
M  END
>  <Dataset>  (471) 
ChEMBL_Kinases

>  <Ligand_Instance>  (471) 
nan

>  <PDB_ID>  (471) 
nan

>  <Standardized_SMILES>  (471) 
O=C1COc2ccc(C3(O)c4ccccc4C(=O)N3Cc3cccc(I)c3)cc2N1

>  <Name>  (471) 
nan

>  <Pocket>  (471) 
nan

>  <ATP_Site>  (471) 
nan

>  <Peripheral>  (471) 
nan

>  <Num_H_Atoms_ProtBoundConf>  (471) 
nan

>  <Num_Resolved_Atoms>  (471) 
nan

>  <Num_Not_Resolved_Atoms>  (471) 
nan

$$$$
CHEMBL394608
     RDKit          3D

  0  0  0  0  0  0  0  0  0  0999 V3000
M  V30 BEGIN CTAB
M  V30 COUNTS 41 45 0 0 0
M  V30 BEGIN ATOM
M  V30 1 C -1.206207 -3.797367 -3.494788 0
M  V30 2 C -0.566277 -2.716456 -2.714872 0
M  V30 3 C 0.152355 -1.747244 -3.416833 0
M  V30 4 C 0.740315 -0.750063 -2.673811 0
M  V30 5 C 0.639510 -0.684314 -1.274104 0
M  V30 6 N 1.154633 0.221367 -0.414757 0
M  V30 7 C 0.777767 -0.151537 0.817182 0
M  V30 8 C 1.001932 0.355895 2.076220 0
M  V30 9 C 1.762430 1.498390 2.138605 0
M  V30 10 O 2.337510 2.239956 1.116569 0
M  V30 11 S 1.519551 3.579583 0.425819 0
M  V30 12 O 1.551281 4.751819 1.367694 0
M  V30 13 O 0.095951 3.266325 0.135691 0
M  V30 14 O 2.322858 3.981060 -0.984546 0
M  V30 15 C 2.066910 2.098719 3.368310 0
M  V30 16 C 1.579343 1.514932 4.545684 0
M  V30 17 C 0.810667 0.354117 4.400252 0
M  V30 18 O 0.394335 -0.118544 5.603271 0
M  V30 19 C 0.508005 -0.240387 3.214663 0
M  V30 20 C -0.236324 -1.373032 3.114437 0
M  V30 21 C -0.481689 -1.905176 1.869284 0
M  V30 22 C 0.019791 -1.299595 0.755626 0
M  V30 23 C -0.066948 -1.634767 -0.569082 0
M  V30 24 C -0.633282 -2.604784 -1.346069 0
M  V30 25 C -1.279176 -3.070622 2.108619 0
M  V30 26 O -1.781601 -3.923251 1.358351 0
M  V30 27 N -1.523956 -3.255389 3.497202 0
M  V30 28 C -0.855915 -2.164235 4.169571 0
M  V30 29 O -0.916957 -2.090987 5.422713 0
M  V30 30 H -2.240053 -3.473023 -3.737789 0
M  V30 31 H -0.649384 -3.999020 -4.426323 0
M  V30 32 H -1.327688 -4.727807 -2.888497 0
M  V30 33 H 0.239552 -1.782432 -4.487643 0
M  V30 34 H 1.294858 -0.009262 -3.261222 0
M  V30 35 H 1.722191 0.999373 -0.750946 0
M  V30 36 H 3.211700 3.596703 -1.068996 0
M  V30 37 H 2.669997 3.012467 3.509458 0
M  V30 38 H 1.817894 1.985263 5.507454 0
M  V30 39 H 0.203119 0.371926 6.446592 0
M  V30 40 H -1.199564 -3.385856 -0.903629 0
M  V30 41 H -2.076596 -4.018799 3.999722 0
M  V30 END ATOM
M  V30 BEGIN BOND
M  V30 1 1 1 2
M  V30 2 2 2 3
M  V30 3 1 3 4
M  V30 4 2 4 5
M  V30 5 1 5 6
M  V30 6 1 6 7
M  V30 7 2 7 8
M  V30 8 1 8 9
M  V30 9 1 9 10
M  V30 10 1 10 11
M  V30 11 2 11 12
M  V30 12 2 11 13
M  V30 13 1 11 14
M  V30 14 2 9 15
M  V30 15 1 15 16
M  V30 16 2 16 17
M  V30 17 1 17 18
M  V30 18 1 17 19
M  V30 19 2 19 20
M  V30 20 1 20 21
M  V30 21 2 21 22
M  V30 22 1 22 23
M  V30 23 2 23 24
M  V30 24 1 21 25
M  V30 25 2 25 26
M  V30 26 1 25 27
M  V30 27 1 27 28
M  V30 28 2 28 29
M  V30 29 1 24 2
M  V30 30 1 23 5
M  V30 31 1 22 7
M  V30 32 1 19 8
M  V30 33 1 28 20
M  V30 34 1 1 30
M  V30 35 1 1 31
M  V30 36 1 1 32
M  V30 37 1 3 33
M  V30 38 1 4 34
M  V30 39 1 6 35
M  V30 40 1 14 36
M  V30 41 1 15 37
M  V30 42 1 16 38
M  V30 43 1 18 39
M  V30 44 1 24 40
M  V30 45 1 27 41
M  V30 END BOND
M  V30 END CTAB
M  END
>  <Dataset>  (472) 
ChEMBL_Kinases

>  <Ligand_Instance>  (472) 
nan

>  <PDB_ID>  (472) 
nan

>  <Standardized_SMILES>  (472) 
Cc1ccc2[nH]c3c4c(OS(=O)(=O)O)ccc(O)c4c4c(c3c2c1)C(=O)NC4=O

>  <Name>  (472) 
nan

>  <Pocket>  (472) 
nan

>  <ATP_Site>  (472) 
nan

>  <Peripheral>  (472) 
nan

>  <Num_H_Atoms_ProtBoundConf>  (472) 
nan

>  <Num_Resolved_Atoms>  (472) 
nan

>  <Num_Not_Resolved_Atoms>  (472) 
nan

$$$$
CHEMBL3946005
     RDKit          3D

  0  0  0  0  0  0  0  0  0  0999 V3000
M  V30 BEGIN CTAB
M  V30 COUNTS 51 54 0 0 0
M  V30 BEGIN ATOM
M  V30 1 O 5.317809 -4.969617 1.472333 0
M  V30 2 C 5.116050 -4.050700 2.276203 0
M  V30 3 O 5.415760 -4.156294 3.625509 0
M  V30 4 C 4.542630 -2.787903 1.836882 0
M  V30 5 C 4.235817 -2.617060 0.582383 0
M  V30 6 C 3.661388 -1.456348 -0.068353 0
M  V30 7 O 3.356471 -1.264909 -1.271300 0
M  V30 8 N 3.378065 -0.327450 0.734148 0
M  V30 9 C 2.839767 0.978387 0.564780 0
M  V30 10 C 3.608212 2.099107 0.269154 0
M  V30 11 C 3.075239 3.355506 0.108060 0
M  V30 12 C 1.707783 3.468093 0.254814 0
M  V30 13 C 0.864165 2.412505 0.547896 0
M  V30 14 C -0.576682 2.596806 0.690734 0
M  V30 15 N -1.092883 3.617345 1.397300 0
M  V30 16 N -2.424668 3.578463 1.385654 0
M  V30 17 C -2.775901 2.502152 0.650595 0
M  V30 18 C -3.994993 1.933129 0.273652 0
M  V30 19 C -3.976624 0.781695 -0.517174 0
M  V30 20 C -2.816491 0.171732 -0.949104 0
M  V30 21 N -2.969204 -0.987809 -1.743569 0
M  V30 22 S -2.009764 -2.369867 -1.431782 0
M  V30 23 O -2.316299 -3.441021 -2.462280 0
M  V30 24 O -0.565306 -1.977290 -1.525791 0
M  V30 25 C -2.327088 -2.977614 0.188913 0
M  V30 26 C -3.326126 -3.921163 0.387658 0
M  V30 27 C -3.582906 -4.401450 1.640812 0
M  V30 28 C -2.815746 -3.915099 2.692445 0
M  V30 29 C -1.806583 -2.965935 2.511629 0
M  V30 30 C -1.561396 -2.492625 1.240698 0
M  V30 31 C -1.625382 0.744291 -0.569416 0
M  V30 32 C -1.635596 1.867304 0.201804 0
M  V30 33 C 1.492415 1.172068 0.694479 0
M  V30 34 H 5.634766 -5.058385 4.043346 0
M  V30 35 H 4.342452 -1.958513 2.468165 0
M  V30 36 H 4.400535 -3.403282 -0.146594 0
M  V30 37 H 3.534958 -0.224499 1.759918 0
M  V30 38 H 4.672970 1.921776 0.171029 0
M  V30 39 H 3.693877 4.214153 -0.122091 0
M  V30 40 H 1.295778 4.474711 0.123907 0
M  V30 41 H -3.093614 4.249692 1.854098 0
M  V30 42 H -4.902760 2.403850 0.607128 0
M  V30 43 H -4.988698 0.423843 -0.751453 0
M  V30 44 H -3.683463 -0.947693 -2.509539 0
M  V30 45 H -3.891734 -4.259280 -0.491111 0
M  V30 46 H -4.354651 -5.135405 1.819994 0
M  V30 47 H -2.972350 -4.258980 3.714305 0
M  V30 48 H -1.215745 -2.595403 3.341953 0
M  V30 49 H -0.776168 -1.759675 1.128258 0
M  V30 50 H -0.726767 0.274745 -0.901984 0
M  V30 51 H 0.866384 0.313207 0.925565 0
M  V30 END ATOM
M  V30 BEGIN BOND
M  V30 1 2 1 2
M  V30 2 1 2 3
M  V30 3 1 2 4
M  V30 4 2 4 5
M  V30 5 1 5 6
M  V30 6 2 6 7
M  V30 7 1 6 8
M  V30 8 1 8 9
M  V30 9 2 9 10
M  V30 10 1 10 11
M  V30 11 2 11 12
M  V30 12 1 12 13
M  V30 13 1 13 14
M  V30 14 2 14 15
M  V30 15 1 15 16
M  V30 16 1 16 17
M  V30 17 2 17 18
M  V30 18 1 18 19
M  V30 19 2 19 20
M  V30 20 1 20 21
M  V30 21 1 21 22
M  V30 22 2 22 23
M  V30 23 2 22 24
M  V30 24 1 22 25
M  V30 25 2 25 26
M  V30 26 1 26 27
M  V30 27 2 27 28
M  V30 28 1 28 29
M  V30 29 2 29 30
M  V30 30 1 20 31
M  V30 31 2 31 32
M  V30 32 2 13 33
M  V30 33 1 33 9
M  V30 34 1 32 14
M  V30 35 1 32 17
M  V30 36 1 30 25
M  V30 37 1 3 34
M  V30 38 1 4 35
M  V30 39 1 5 36
M  V30 40 1 8 37
M  V30 41 1 10 38
M  V30 42 1 11 39
M  V30 43 1 12 40
M  V30 44 1 16 41
M  V30 45 1 18 42
M  V30 46 1 19 43
M  V30 47 1 21 44
M  V30 48 1 26 45
M  V30 49 1 27 46
M  V30 50 1 28 47
M  V30 51 1 29 48
M  V30 52 1 30 49
M  V30 53 1 31 50
M  V30 54 1 33 51
M  V30 END BOND
M  V30 END CTAB
M  END
>  <Dataset>  (473) 
ChEMBL_Kinases

>  <Ligand_Instance>  (473) 
nan

>  <PDB_ID>  (473) 
nan

>  <Standardized_SMILES>  (473) 
O=C(O)/C=C/C(=O)Nc1cccc(-c2n[nH]c3ccc(NS(=O)(=O)c4ccccc4)cc23)c1

>  <Name>  (473) 
nan

>  <Pocket>  (473) 
nan

>  <ATP_Site>  (473) 
nan

>  <Peripheral>  (473) 
nan

>  <Num_H_Atoms_ProtBoundConf>  (473) 
nan

>  <Num_Resolved_Atoms>  (473) 
nan

>  <Num_Not_Resolved_Atoms>  (473) 
nan

$$$$
CHEMBL394599
     RDKit          3D

  0  0  0  0  0  0  0  0  0  0999 V3000
M  V30 BEGIN CTAB
M  V30 COUNTS 59 63 0 0 0
M  V30 BEGIN ATOM
M  V30 1 C 1.439976 -3.674604 5.983985 0
M  V30 2 O 0.731089 -3.044444 4.950964 0
M  V30 3 C 1.201575 -1.969454 4.229074 0
M  V30 4 N 2.400624 -1.407771 4.442237 0
M  V30 5 C 2.829323 -0.359649 3.719786 0
M  V30 6 N 3.963281 0.355009 3.748573 0
M  V30 7 C 3.987947 1.331122 2.843838 0
M  V30 8 C 2.788315 1.294177 2.135602 0
M  V30 9 C 2.452095 2.197111 1.075801 0
M  V30 10 O 3.370077 3.057434 0.834450 0
M  V30 11 C 1.408364 2.483399 0.158243 0
M  V30 12 O 0.280253 1.901974 0.000523 0
M  V30 13 N 1.422810 3.526050 -0.808990 0
M  V30 14 C 2.528054 4.461745 -0.991009 0
M  V30 15 C 0.337262 3.773172 -1.725750 0
M  V30 16 C 2.113075 0.241894 2.709179 0
M  V30 17 C 0.881413 -0.321438 2.477383 0
M  V30 18 C 0.452178 -1.395483 3.223935 0
M  V30 19 C -0.872441 -1.951406 2.927594 0
M  V30 20 O -2.036655 -1.686777 3.380273 0
M  V30 21 N -0.992765 -2.977363 1.977148 0
M  V30 22 C -2.285711 -3.553113 1.656521 0
M  V30 23 C -2.649555 -2.976189 0.285335 0
M  V30 24 C -1.417177 -2.874272 -0.564646 0
M  V30 25 C -0.113257 -3.130145 -0.187730 0
M  V30 26 C 0.699907 -2.915165 -1.266976 0
M  V30 27 N -0.118976 -2.540743 -2.253661 0
M  V30 28 N -1.388648 -2.510222 -1.853500 0
M  V30 29 C -2.382874 -2.125113 -2.807627 0
M  V30 30 C -3.544564 -2.813938 -3.084853 0
M  V30 31 C -4.440127 -2.357376 -4.024967 0
M  V30 32 C -4.202262 -1.176590 -4.732963 0
M  V30 33 C -3.042039 -0.451787 -4.483189 0
M  V30 34 C -2.177129 -0.953878 -3.530271 0
M  V30 35 Cl -0.716825 -0.024193 -3.228705 0
M  V30 36 C 0.130198 -3.561611 1.229046 0
M  V30 37 H 1.301500 -4.781283 5.840726 0
M  V30 38 H 1.018716 -3.461906 7.000830 0
M  V30 39 H 2.513115 -3.460310 6.018227 0
M  V30 40 H 4.738301 0.145973 4.425635 0
M  V30 41 H 4.848406 1.987497 2.758157 0
M  V30 42 H 3.461220 3.970664 -1.263569 0
M  V30 43 H 2.608614 5.032968 -0.024110 0
M  V30 44 H 2.265587 5.265894 -1.732157 0
M  V30 45 H -0.592371 3.234797 -1.481540 0
M  V30 46 H 0.632272 3.608956 -2.782997 0
M  V30 47 H 0.094393 4.860876 -1.660270 0
M  V30 48 H 0.262885 0.069933 1.725573 0
M  V30 49 H -2.176752 -4.654640 1.612482 0
M  V30 50 H -3.010591 -3.228980 2.430176 0
M  V30 51 H -3.391168 -3.667538 -0.147317 0
M  V30 52 H -3.066075 -1.966156 0.487358 0
M  V30 53 H 1.778965 -3.033063 -1.284378 0
M  V30 54 H -3.705603 -3.721365 -2.526082 0
M  V30 55 H -5.347375 -2.899644 -4.238299 0
M  V30 56 H -4.873058 -0.778618 -5.478318 0
M  V30 57 H -2.817888 0.467258 -5.007922 0
M  V30 58 H -0.013063 -4.654731 1.276021 0
M  V30 59 H 1.102026 -3.221878 1.616668 0
M  V30 END ATOM
M  V30 BEGIN BOND
M  V30 1 1 1 2
M  V30 2 1 2 3
M  V30 3 2 3 4
M  V30 4 1 4 5
M  V30 5 1 5 6
M  V30 6 1 6 7
M  V30 7 2 7 8
M  V30 8 1 8 9
M  V30 9 2 9 10
M  V30 10 1 9 11
M  V30 11 2 11 12
M  V30 12 1 11 13
M  V30 13 1 13 14
M  V30 14 1 13 15
M  V30 15 1 8 16
M  V30 16 1 16 17
M  V30 17 2 17 18
M  V30 18 1 18 19
M  V30 19 2 19 20
M  V30 20 1 19 21
M  V30 21 1 21 22
M  V30 22 1 22 23
M  V30 23 1 23 24
M  V30 24 2 24 25
M  V30 25 1 25 26
M  V30 26 2 26 27
M  V30 27 1 27 28
M  V30 28 1 28 29
M  V30 29 2 29 30
M  V30 30 1 30 31
M  V30 31 2 31 32
M  V30 32 1 32 33
M  V30 33 2 33 34
M  V30 34 1 34 35
M  V30 35 1 25 36
M  V30 36 1 18 3
M  V30 37 1 36 21
M  V30 38 2 16 5
M  V30 39 1 28 24
M  V30 40 1 34 29
M  V30 41 1 1 37
M  V30 42 1 1 38
M  V30 43 1 1 39
M  V30 44 1 6 40
M  V30 45 1 7 41
M  V30 46 1 14 42
M  V30 47 1 14 43
M  V30 48 1 14 44
M  V30 49 1 15 45
M  V30 50 1 15 46
M  V30 51 1 15 47
M  V30 52 1 17 48
M  V30 53 1 22 49
M  V30 54 1 22 50
M  V30 55 1 23 51
M  V30 56 1 23 52
M  V30 57 1 26 53
M  V30 58 1 30 54
M  V30 59 1 31 55
M  V30 60 1 32 56
M  V30 61 1 33 57
M  V30 62 1 36 58
M  V30 63 1 36 59
M  V30 END BOND
M  V30 END CTAB
M  END
>  <Dataset>  (474) 
ChEMBL_Kinases

>  <Ligand_Instance>  (474) 
nan

>  <PDB_ID>  (474) 
nan

>  <Standardized_SMILES>  (474) 
COc1nc2[nH]cc(C(=O)C(=O)N(C)C)c2cc1C(=O)N1CCc2c(cnn2-c2ccccc2Cl)C1

>  <Name>  (474) 
nan

>  <Pocket>  (474) 
nan

>  <ATP_Site>  (474) 
nan

>  <Peripheral>  (474) 
nan

>  <Num_H_Atoms_ProtBoundConf>  (474) 
nan

>  <Num_Resolved_Atoms>  (474) 
nan

>  <Num_Not_Resolved_Atoms>  (474) 
nan

$$$$
CHEMBL3945821
     RDKit          3D

  0  0  0  0  0  0  0  0  0  0999 V3000
M  V30 BEGIN CTAB
M  V30 COUNTS 54 57 0 0 0
M  V30 BEGIN ATOM
M  V30 1 C 0.382407 5.317650 0.810471 0
M  V30 2 C 0.049764 4.587737 -0.441524 0
M  V30 3 N 1.176408 3.866280 -1.031959 0
M  V30 4 N 2.046885 4.288725 -1.961226 0
M  V30 5 C 2.936148 3.326784 -2.279602 0
M  V30 6 C 2.547300 2.290159 -1.479681 0
M  V30 7 C 3.129651 1.041869 -1.421626 0
M  V30 8 C 2.605327 0.112411 -0.568377 0
M  V30 9 N 1.554277 0.569538 0.124412 0
M  V30 10 C 0.925753 1.688999 0.161949 0
M  V30 11 C 1.462418 2.607770 -0.702212 0
M  V30 12 C -0.223419 1.842391 1.041635 0
M  V30 13 C -1.167518 0.618527 1.062842 0
M  V30 14 C -0.557401 -0.545259 1.711998 0
M  V30 15 O -1.203943 -1.792548 1.581559 0
M  V30 16 C -0.336869 -2.764655 2.092861 0 CFG=1
M  V30 17 C -1.008822 -3.566750 3.153115 0
M  V30 18 O -2.139885 -4.235105 2.707672 0
M  V30 19 C 0.054173 -3.788698 0.953149 0 CFG=1
M  V30 20 C -1.100524 -4.504490 0.512040 0
M  V30 21 C -2.103487 -3.797258 -0.116780 0
M  V30 22 C -3.254593 -4.422093 -0.573248 0
M  V30 23 C -3.418944 -5.787861 -0.402819 0
M  V30 24 C -2.458018 -6.555166 0.216618 0
M  V30 25 C -1.337887 -5.877448 0.647982 0
M  V30 26 N 0.468893 -2.880864 -0.147784 0
M  V30 27 C 1.459995 -1.901871 -0.498608 0
M  V30 28 O 1.975971 -2.244251 0.592477 0
M  V30 29 N 2.660230 -1.271194 -0.055562 0
M  V30 30 H -0.205747 5.028425 1.704756 0
M  V30 31 H 1.461615 5.120883 1.066282 0
M  V30 32 H 0.295822 6.417869 0.757719 0
M  V30 33 H -0.073450 5.454896 -1.196347 0
M  V30 34 H -0.917276 4.118816 -0.544927 0
M  V30 35 H 3.766630 3.296722 -2.969898 0
M  V30 36 H 3.946120 0.511572 -1.867471 0
M  V30 37 H 0.256494 1.710049 2.092394 0
M  V30 38 H -0.733607 2.755690 1.166856 0
M  V30 39 H -1.540437 0.404896 0.042815 0
M  V30 40 H -2.062379 0.950528 1.625172 0
M  V30 41 H 0.517926 -0.550551 1.762116 0
M  V30 42 H -0.786885 -0.355799 2.875843 0
M  V30 43 H 0.583102 -2.322829 2.458639 0
M  V30 44 H -0.297905 -4.384166 3.474685 0
M  V30 45 H -1.208911 -2.994302 4.079930 0
M  V30 46 H -2.959276 -3.841187 3.097365 0
M  V30 47 H 0.881209 -4.304762 1.430807 0
M  V30 48 H -2.143256 -2.738743 -0.332296 0
M  V30 49 H -4.083607 -3.937322 -1.074891 0
M  V30 50 H -4.306055 -6.312682 -0.746774 0
M  V30 51 H -2.538939 -7.617456 0.373009 0
M  V30 52 H -0.540380 -6.433237 1.146657 0
M  V30 53 H -0.053122 -2.832082 -1.047484 0
M  V30 54 H 3.508986 -0.892008 0.343970 0
M  V30 END ATOM
M  V30 BEGIN BOND
M  V30 1 1 1 2
M  V30 2 1 2 3
M  V30 3 1 3 4
M  V30 4 2 4 5
M  V30 5 1 5 6
M  V30 6 2 6 7
M  V30 7 1 7 8
M  V30 8 2 8 9
M  V30 9 1 9 10
M  V30 10 2 10 11
M  V30 11 1 10 12
M  V30 12 1 12 13
M  V30 13 1 13 14
M  V30 14 1 14 15
M  V30 15 1 15 16
M  V30 16 1 16 17
M  V30 17 1 17 18
M  V30 18 1 16 19
M  V30 19 1 19 20
M  V30 20 2 20 21
M  V30 21 1 21 22
M  V30 22 2 22 23
M  V30 23 1 23 24
M  V30 24 2 24 25
M  V30 25 1 19 26
M  V30 26 1 26 27
M  V30 27 2 27 28
M  V30 28 1 27 29
M  V30 29 1 11 3
M  V30 30 1 25 20
M  V30 31 1 11 6
M  V30 32 1 29 8
M  V30 33 1 1 30
M  V30 34 1 1 31
M  V30 35 1 1 32
M  V30 36 1 2 33
M  V30 37 1 2 34
M  V30 38 1 5 35
M  V30 39 1 7 36
M  V30 40 1 12 37
M  V30 41 1 12 38
M  V30 42 1 13 39
M  V30 43 1 13 40
M  V30 44 1 14 41
M  V30 45 1 14 42
M  V30 46 1 16 43 CFG=1
M  V30 47 1 17 44
M  V30 48 1 17 45
M  V30 49 1 18 46
M  V30 50 1 19 47 CFG=1
M  V30 51 1 21 48
M  V30 52 1 22 49
M  V30 53 1 23 50
M  V30 54 1 24 51
M  V30 55 1 25 52
M  V30 56 1 26 53
M  V30 57 1 29 54
M  V30 END BOND
M  V30 END CTAB
M  END
>  <Dataset>  (475) 
ChEMBL_Kinases

>  <Ligand_Instance>  (475) 
nan

>  <PDB_ID>  (475) 
nan

>  <Standardized_SMILES>  (475) 
CCn1ncc2cc3nc(c21)CCCO[C@@H](CO)[C@@H](c1ccccc1)NC(=O)N3

>  <Name>  (475) 
nan

>  <Pocket>  (475) 
nan

>  <ATP_Site>  (475) 
nan

>  <Peripheral>  (475) 
nan

>  <Num_H_Atoms_ProtBoundConf>  (475) 
nan

>  <Num_Resolved_Atoms>  (475) 
nan

>  <Num_Not_Resolved_Atoms>  (475) 
nan

$$$$
CHEMBL394577
     RDKit          3D

  0  0  0  0  0  0  0  0  0  0999 V3000
M  V30 BEGIN CTAB
M  V30 COUNTS 67 70 0 0 0
M  V30 BEGIN ATOM
M  V30 1 C 6.083046 -2.236172 1.172758 0
M  V30 2 N 5.424314 -1.057168 0.725882 0
M  V30 3 C 5.054057 -0.141580 1.788870 0
M  V30 4 C 5.186613 1.298430 1.340044 0
M  V30 5 N 4.677615 1.542746 0.039629 0
M  V30 6 C 3.290168 1.888839 0.020345 0
M  V30 7 C 2.773087 2.113375 -1.369131 0
M  V30 8 C 1.327756 2.496655 -1.322226 0
M  V30 9 C 0.468105 1.401294 -1.163793 0
M  V30 10 C -0.892208 1.581906 -1.105937 0
M  V30 11 C -1.495258 2.814941 -1.198050 0
M  V30 12 N -2.894358 3.063142 -1.081252 0
M  V30 13 C -3.521619 2.170834 -0.146283 0
M  V30 14 N -4.183593 2.974349 0.691411 0
M  V30 15 C -4.875558 2.430020 1.735051 0
M  V30 16 C -4.899173 1.066074 1.933756 0
M  V30 17 C -5.590995 0.409256 3.002820 0
M  V30 18 N -6.146508 -0.118902 3.892890 0
M  V30 19 C -4.207628 0.256470 1.054438 0
M  V30 20 C -4.101826 -1.194853 1.108699 0
M  V30 21 C -5.086919 -2.115729 1.372277 0
M  V30 22 C -4.824821 -3.469569 1.387571 0
M  V30 23 C -3.569690 -3.983526 1.142323 0
M  V30 24 C -3.232391 -5.426190 1.154751 0
M  V30 25 C -3.510863 -6.001064 -0.239990 0
M  V30 26 C -1.711532 -5.595795 1.331937 0
M  V30 27 N -3.850333 -6.181184 2.195154 0
M  V30 28 C -2.537063 -3.089184 0.869365 0
M  V30 29 C -2.855285 -1.744897 0.866719 0
M  V30 30 N -3.557047 0.869280 0.059522 0
M  V30 31 C -0.622886 3.896250 -1.357488 0
M  V30 32 C 0.741194 3.738256 -1.415890 0
M  V30 33 C 5.021474 0.575524 -0.939687 0
M  V30 34 C 6.097157 -0.347602 -0.350581 0
M  V30 35 H 7.035912 -2.039639 1.709702 0
M  V30 36 H 6.181737 -2.999118 0.365963 0
M  V30 37 H 5.403548 -2.733672 1.923144 0
M  V30 38 H 4.045424 -0.379856 2.173062 0
M  V30 39 H 5.770292 -0.298005 2.619474 0
M  V30 40 H 6.225250 1.660813 1.423284 0
M  V30 41 H 4.574398 1.894299 2.060243 0
M  V30 42 H 3.130446 2.763576 0.681113 0
M  V30 43 H 2.686234 1.055070 0.483151 0
M  V30 44 H 3.407599 2.921252 -1.804495 0
M  V30 45 H 2.834784 1.247169 -2.023507 0
M  V30 46 H 0.855362 0.373055 -1.082450 0
M  V30 47 H -1.499458 0.717224 -0.988405 0
M  V30 48 H -3.376042 3.807702 -1.629606 0
M  V30 49 H -5.472119 2.932224 2.508786 0
M  V30 50 H -6.064752 -1.698093 1.565124 0
M  V30 51 H -5.625828 -4.164410 1.599910 0
M  V30 52 H -3.037341 -6.988109 -0.370590 0
M  V30 53 H -4.586827 -6.105731 -0.408394 0
M  V30 54 H -3.153341 -5.259202 -0.998291 0
M  V30 55 H -1.303293 -4.869772 2.045623 0
M  V30 56 H -1.467236 -6.645025 1.575960 0
M  V30 57 H -1.247458 -5.379913 0.331493 0
M  V30 58 H -3.256732 -6.244424 3.077707 0
M  V30 59 H -3.950690 -7.175027 1.872791 0
M  V30 60 H -1.500003 -3.390015 0.660904 0
M  V30 61 H -2.017384 -1.061107 0.646652 0
M  V30 62 H -1.002653 4.921552 -1.440384 0
M  V30 63 H 1.469054 4.533648 -1.535329 0
M  V30 64 H 5.495505 1.039857 -1.832048 0
M  V30 65 H 4.137546 -0.000551 -1.229713 0
M  V30 66 H 6.905403 0.293337 -0.002598 0
M  V30 67 H 6.436392 -1.113551 -1.069409 0
M  V30 END ATOM
M  V30 BEGIN BOND
M  V30 1 1 1 2
M  V30 2 1 2 3
M  V30 3 1 3 4
M  V30 4 1 4 5
M  V30 5 1 5 6
M  V30 6 1 6 7
M  V30 7 1 7 8
M  V30 8 2 8 9
M  V30 9 1 9 10
M  V30 10 2 10 11
M  V30 11 1 11 12
M  V30 12 1 12 13
M  V30 13 2 13 14
M  V30 14 1 14 15
M  V30 15 2 15 16
M  V30 16 1 16 17
M  V30 17 3 17 18
M  V30 18 1 16 19
M  V30 19 1 19 20
M  V30 20 2 20 21
M  V30 21 1 21 22
M  V30 22 2 22 23
M  V30 23 1 23 24
M  V30 24 1 24 25
M  V30 25 1 24 26
M  V30 26 1 24 27
M  V30 27 1 23 28
M  V30 28 2 28 29
M  V30 29 2 19 30
M  V30 30 1 11 31
M  V30 31 2 31 32
M  V30 32 1 5 33
M  V30 33 1 33 34
M  V30 34 1 34 2
M  V30 35 1 32 8
M  V30 36 1 30 13
M  V30 37 1 29 20
M  V30 38 1 1 35
M  V30 39 1 1 36
M  V30 40 1 1 37
M  V30 41 1 3 38
M  V30 42 1 3 39
M  V30 43 1 4 40
M  V30 44 1 4 41
M  V30 45 1 6 42
M  V30 46 1 6 43
M  V30 47 1 7 44
M  V30 48 1 7 45
M  V30 49 1 9 46
M  V30 50 1 10 47
M  V30 51 1 12 48
M  V30 52 1 15 49
M  V30 53 1 21 50
M  V30 54 1 22 51
M  V30 55 1 25 52
M  V30 56 1 25 53
M  V30 57 1 25 54
M  V30 58 1 26 55
M  V30 59 1 26 56
M  V30 60 1 26 57
M  V30 61 1 27 58
M  V30 62 1 27 59
M  V30 63 1 28 60
M  V30 64 1 29 61
M  V30 65 1 31 62
M  V30 66 1 32 63
M  V30 67 1 33 64
M  V30 68 1 33 65
M  V30 69 1 34 66
M  V30 70 1 34 67
M  V30 END BOND
M  V30 END CTAB
M  END
>  <Dataset>  (476) 
ChEMBL_Kinases

>  <Ligand_Instance>  (476) 
nan

>  <PDB_ID>  (476) 
nan

>  <Standardized_SMILES>  (476) 
CN1CCN(CCc2ccc(Nc3ncc(C#N)c(-c4ccc(C(C)(C)N)cc4)n3)cc2)CC1

>  <Name>  (476) 
nan

>  <Pocket>  (476) 
nan

>  <ATP_Site>  (476) 
nan

>  <Peripheral>  (476) 
nan

>  <Num_H_Atoms_ProtBoundConf>  (476) 
nan

>  <Num_Resolved_Atoms>  (476) 
nan

>  <Num_Not_Resolved_Atoms>  (476) 
nan

$$$$
CHEMBL4875533
     RDKit          3D

  0  0  0  0  0  0  0  0  0  0999 V3000
M  V30 BEGIN CTAB
M  V30 COUNTS 43 46 0 0 0
M  V30 BEGIN ATOM
M  V30 1 F -3.448442 -2.605679 0.001953 0
M  V30 2 C -2.271525 -3.276630 -0.035156 0
M  V30 3 C -2.215793 -4.632616 0.170880 0
M  V30 4 C -0.988539 -5.295368 0.126390 0
M  V30 5 C 0.190393 -4.613458 -0.123249 0
M  V30 6 C 0.079008 -3.253906 -0.323112 0
M  V30 7 N 1.194318 -2.544901 -0.569316 0
M  V30 8 C 1.180261 -1.205176 -0.777854 0
M  V30 9 N 2.343433 -0.427897 -1.040517 0
M  V30 10 C 2.322828 0.986630 -1.260102 0
M  V30 11 C 1.777276 1.794213 -0.117902 0
M  V30 12 C 2.574456 1.595072 1.121065 0
M  V30 13 C 3.666693 2.379618 1.453574 0
M  V30 14 C 4.394094 2.176760 2.611406 0
M  V30 15 C 4.055444 1.170976 3.492702 0
M  V30 16 C 2.960052 0.375908 3.169881 0
M  V30 17 C 2.256046 0.609098 2.001713 0
M  V30 18 N 0.008887 -0.543640 -0.739942 0
M  V30 19 C -1.126795 -1.187358 -0.501519 0
M  V30 20 N -2.348067 -0.470273 -0.466253 0
M  V30 21 C -2.682973 0.022692 0.843920 0
M  V30 22 C -1.958978 -0.132725 2.006368 0
M  V30 23 C -2.616530 0.489406 3.061219 0
M  V30 24 N -3.730859 1.009494 2.504625 0
M  V30 25 N -3.779382 0.741783 1.206235 0
M  V30 26 C -1.107199 -2.550045 -0.290046 0
M  V30 27 H -3.129561 -5.209253 0.371922 0
M  V30 28 H -0.964077 -6.381733 0.293905 0
M  V30 29 H 1.159539 -5.110967 -0.162427 0
M  V30 30 H 3.248070 -0.979094 -1.063348 0
M  V30 31 H 1.729645 1.230812 -2.166128 0
M  V30 32 H 3.349406 1.334110 -1.443272 0
M  V30 33 H 1.871261 2.857228 -0.412131 0
M  V30 34 H 0.693425 1.631035 0.049886 0
M  V30 35 H 3.955272 3.187265 0.766377 0
M  V30 36 H 5.249150 2.777923 2.888518 0
M  V30 37 H 4.614399 1.004713 4.395801 0
M  V30 38 H 2.718650 -0.409736 3.886758 0
M  V30 39 H 1.446585 -0.065238 1.875251 0
M  V30 40 H -3.018359 -0.256017 -1.233846 0
M  V30 41 H -1.016736 -0.652208 2.127225 0
M  V30 42 H -2.255767 0.512500 4.081594 0
M  V30 43 H -4.404045 1.537306 3.105747 0
M  V30 END ATOM
M  V30 BEGIN BOND
M  V30 1 1 1 2
M  V30 2 2 2 3
M  V30 3 1 3 4
M  V30 4 2 4 5
M  V30 5 1 5 6
M  V30 6 2 6 7
M  V30 7 1 7 8
M  V30 8 1 8 9
M  V30 9 1 9 10
M  V30 10 1 10 11
M  V30 11 1 11 12
M  V30 12 2 12 13
M  V30 13 1 13 14
M  V30 14 2 14 15
M  V30 15 1 15 16
M  V30 16 2 16 17
M  V30 17 2 8 18
M  V30 18 1 18 19
M  V30 19 1 19 20
M  V30 20 1 20 21
M  V30 21 1 21 22
M  V30 22 2 22 23
M  V30 23 1 23 24
M  V30 24 1 24 25
M  V30 25 2 19 26
M  V30 26 1 26 2
M  V30 27 1 26 6
M  V30 28 1 17 12
M  V30 29 2 25 21
M  V30 30 1 3 27
M  V30 31 1 4 28
M  V30 32 1 5 29
M  V30 33 1 9 30
M  V30 34 1 10 31
M  V30 35 1 10 32
M  V30 36 1 11 33
M  V30 37 1 11 34
M  V30 38 1 13 35
M  V30 39 1 14 36
M  V30 40 1 15 37
M  V30 41 1 16 38
M  V30 42 1 17 39
M  V30 43 1 20 40
M  V30 44 1 22 41
M  V30 45 1 23 42
M  V30 46 1 24 43
M  V30 END BOND
M  V30 END CTAB
M  END
>  <Dataset>  (477) 
ChEMBL_Kinases

>  <Ligand_Instance>  (477) 
nan

>  <PDB_ID>  (477) 
nan

>  <Standardized_SMILES>  (477) 
Fc1cccc2nc(NCCc3ccccc3)nc(Nc3cc[nH]n3)c12

>  <Name>  (477) 
nan

>  <Pocket>  (477) 
nan

>  <ATP_Site>  (477) 
nan

>  <Peripheral>  (477) 
nan

>  <Num_H_Atoms_ProtBoundConf>  (477) 
nan

>  <Num_Resolved_Atoms>  (477) 
nan

>  <Num_Not_Resolved_Atoms>  (477) 
nan

$$$$
CHEMBL3945581
     RDKit          3D

  0  0  0  0  0  0  0  0  0  0999 V3000
M  V30 BEGIN CTAB
M  V30 COUNTS 58 62 0 0 0
M  V30 BEGIN ATOM
M  V30 1 F 4.680382 -0.217283 -1.012087 0
M  V30 2 C 4.802601 -1.548005 -1.238591 0
M  V30 3 C 3.869417 -2.487779 -0.840999 0
M  V30 4 O 2.791654 -1.929308 -0.184667 0
M  V30 5 C 1.684937 -2.630716 0.336070 0 CFG=1
M  V30 6 C 1.661767 -2.364966 1.815400 0
M  V30 7 C 1.168714 -1.029610 2.218927 0
M  V30 8 C -0.016910 -0.525123 1.480023 0 CFG=2
M  V30 9 C -0.134352 0.956727 1.810374 0
M  V30 10 C -1.276731 1.608040 1.144810 0
M  V30 11 C -1.190799 2.200183 -0.098347 0
M  V30 12 C -2.228077 2.825095 -0.766619 0
M  V30 13 C -3.466852 2.863761 -0.137531 0
M  V30 14 C -3.548595 2.265149 1.116371 0
M  V30 15 N -4.854049 2.348836 1.693501 0
M  V30 16 C -5.631839 1.208948 1.307284 0
M  V30 17 C -5.919198 -0.066760 1.733553 0
M  V30 18 C -6.792991 -0.585422 0.791729 0
M  V30 19 N -7.015418 0.348907 -0.158197 0
M  V30 20 N -6.306677 1.436054 0.161871 0
M  V30 21 N -2.492829 1.674512 1.704852 0
M  V30 22 C -1.211162 -1.220107 2.152557 0
M  V30 23 N -1.818101 -2.327840 1.948918 0
M  V30 24 N -2.815295 -2.646482 2.695753 0
M  V30 25 C -3.268268 -2.057371 3.563534 0
M  V30 26 S -2.128005 -0.505440 3.564925 0
M  V30 27 C -0.017697 -0.791056 0.022968 0
M  V30 28 C 0.471223 -2.134808 -0.377755 0
M  V30 29 C 4.131120 -3.806675 -1.142325 0
M  V30 30 C 5.272531 -4.186463 -1.812036 0
M  V30 31 C 6.201621 -3.248173 -2.207578 0
M  V30 32 C 5.943350 -1.926745 -1.907836 0
M  V30 33 C 6.963169 -0.910337 -2.343345 0
M  V30 34 F 6.368353 -0.007993 -3.204219 0
M  V30 35 F 7.399793 -0.161678 -1.244182 0
M  V30 36 F 8.072609 -1.511696 -2.864563 0
M  V30 37 H 1.794008 -3.715132 0.145482 0
M  V30 38 H 1.026507 -3.154650 2.300157 0
M  V30 39 H 2.663704 -2.497048 2.273598 0
M  V30 40 H 2.020412 -0.314022 2.180222 0
M  V30 41 H 0.905602 -1.085569 3.303852 0
M  V30 42 H 0.795587 1.470265 1.495274 0
M  V30 43 H -0.169829 1.080369 2.916628 0
M  V30 44 H -0.263818 2.205595 -0.636408 0
M  V30 45 H -2.117393 3.272283 -1.731722 0
M  V30 46 H -4.292085 3.345514 -0.638157 0
M  V30 47 H -5.404562 3.004842 2.317985 0
M  V30 48 H -5.429184 -0.355059 2.647469 0
M  V30 49 H -7.139731 -1.612355 0.964759 0
M  V30 50 H -7.646821 0.129158 -0.942108 0
M  V30 51 H -3.986922 -1.683086 4.536744 0
M  V30 52 H 0.611493 -0.017688 -0.480577 0
M  V30 53 H -1.050451 -0.644416 -0.355181 0
M  V30 54 H -0.351176 -2.859063 -0.113621 0
M  V30 55 H 0.571274 -2.161199 -1.465760 0
M  V30 56 H 3.385395 -4.498547 -0.817553 0
M  V30 57 H 5.380453 -5.265305 -2.000430 0
M  V30 58 H 7.092746 -3.591111 -2.735933 0
M  V30 END ATOM
M  V30 BEGIN BOND
M  V30 1 1 1 2
M  V30 2 2 2 3
M  V30 3 1 3 4
M  V30 4 1 4 5
M  V30 5 1 5 6
M  V30 6 1 6 7
M  V30 7 1 7 8
M  V30 8 1 8 9 CFG=3
M  V30 9 1 9 10
M  V30 10 2 10 11
M  V30 11 1 11 12
M  V30 12 2 12 13
M  V30 13 1 13 14
M  V30 14 1 14 15
M  V30 15 1 15 16
M  V30 16 1 16 17
M  V30 17 2 17 18
M  V30 18 1 18 19
M  V30 19 1 19 20
M  V30 20 2 14 21
M  V30 21 1 8 22
M  V30 22 2 22 23
M  V30 23 1 23 24
M  V30 24 2 24 25
M  V30 25 1 25 26
M  V30 26 1 8 27
M  V30 27 1 27 28
M  V30 28 1 3 29
M  V30 29 2 29 30
M  V30 30 1 30 31
M  V30 31 2 31 32
M  V30 32 1 32 33
M  V30 33 1 33 34
M  V30 34 1 33 35
M  V30 35 1 33 36
M  V30 36 1 32 2
M  V30 37 1 28 5
M  V30 38 1 21 10
M  V30 39 1 26 22
M  V30 40 2 20 16
M  V30 41 1 5 37 CFG=1
M  V30 42 1 6 38
M  V30 43 1 6 39
M  V30 44 1 7 40
M  V30 45 1 7 41
M  V30 46 1 9 42
M  V30 47 1 9 43
M  V30 48 1 11 44
M  V30 49 1 12 45
M  V30 50 1 13 46
M  V30 51 1 15 47
M  V30 52 1 17 48
M  V30 53 1 18 49
M  V30 54 1 19 50
M  V30 55 1 25 51
M  V30 56 1 27 52
M  V30 57 1 27 53
M  V30 58 1 28 54
M  V30 59 1 28 55
M  V30 60 1 29 56
M  V30 61 1 30 57
M  V30 62 1 31 58
M  V30 END BOND
M  V30 END CTAB
M  END
>  <Dataset>  (478) 
ChEMBL_Kinases

>  <Ligand_Instance>  (478) 
nan

>  <PDB_ID>  (478) 
nan

>  <Standardized_SMILES>  (478) 
Fc1c(O[C@H]2CC[C@](Cc3cccc(Nc4cc[nH]n4)n3)(c3nncs3)CC2)cccc1C(F)(F)F

>  <Name>  (478) 
nan

>  <Pocket>  (478) 
nan

>  <ATP_Site>  (478) 
nan

>  <Peripheral>  (478) 
nan

>  <Num_H_Atoms_ProtBoundConf>  (478) 
nan

>  <Num_Resolved_Atoms>  (478) 
nan

>  <Num_Not_Resolved_Atoms>  (478) 
nan

$$$$
CHEMBL3945458
     RDKit          3D

  0  0  0  0  0  0  0  0  0  0999 V3000
M  V30 BEGIN CTAB
M  V30 COUNTS 66 69 0 0 0
M  V30 BEGIN ATOM
M  V30 1 C 2.247801 -1.241827 2.397996 0
M  V30 2 C 2.826950 -0.056607 3.142470 0 CFG=2
M  V30 3 C 1.851022 0.446966 4.136061 0
M  V30 4 O 2.326160 1.556126 4.856145 0
M  V30 5 C 3.512037 0.922708 2.266902 0
M  V30 6 N 2.795532 1.554426 1.245314 0
M  V30 7 C 1.801376 2.510897 1.531273 0
M  V30 8 C 0.811361 2.541179 0.359511 0
M  V30 9 N 1.235662 1.574954 -0.632808 0
M  V30 10 C 0.280751 0.596538 -0.979769 0
M  V30 11 O -0.746875 0.848291 -0.298301 0
M  V30 12 N -0.256808 -0.527323 -1.638189 0
M  V30 13 C -1.606910 -0.941591 -1.353075 0
M  V30 14 C -1.534518 -2.440240 -1.267678 0
M  V30 15 C -2.121293 -3.568566 -0.718298 0
M  V30 16 N -3.270423 -3.476278 0.136084 0
M  V30 17 C -3.426675 -3.330260 1.539019 0
M  V30 18 O -2.377845 -3.260011 2.239906 0
M  V30 19 C -4.804434 -3.274943 2.041940 0
M  V30 20 C -4.893543 -3.132568 3.409398 0
M  V30 21 C -6.129233 -3.067986 4.008515 0
M  V30 22 C -7.233752 -3.149008 3.209016 0
M  V30 23 C -7.125830 -3.293416 1.820526 0
M  V30 24 N -5.885826 -3.354373 1.256963 0
M  V30 25 N -1.369821 -4.607245 -1.185312 0
M  V30 26 N -0.412861 -4.114152 -1.953097 0
M  V30 27 C -0.441763 -2.793624 -2.057214 0
M  V30 28 C 0.110962 -1.524345 -2.597333 0
M  V30 29 C -0.408936 -1.315068 -3.978168 0
M  V30 30 C 1.616155 -1.712540 -2.678557 0
M  V30 31 C 2.604564 1.799477 -1.106183 0 CFG=1
M  V30 32 C 2.634521 3.009105 -2.012533 0
M  V30 33 C 3.542773 1.983962 0.086667 0
M  V30 34 H 2.963685 -2.096598 2.317260 0
M  V30 35 H 1.339078 -1.624839 2.905473 0
M  V30 36 H 1.956637 -0.970828 1.369326 0
M  V30 37 H 3.668108 -0.525697 3.766340 0
M  V30 38 H 1.766067 -0.356026 4.947045 0
M  V30 39 H 0.822148 0.590260 3.813649 0
M  V30 40 H 3.212393 1.313694 5.203689 0
M  V30 41 H 4.104031 1.648112 2.914107 0
M  V30 42 H 4.350162 0.341728 1.758659 0
M  V30 43 H 1.280103 2.451766 2.491059 0
M  V30 44 H 2.293268 3.540269 1.554874 0
M  V30 45 H 0.809081 3.562112 -0.070604 0
M  V30 46 H -0.210818 2.354534 0.758697 0
M  V30 47 H -2.005246 -0.591364 -0.383971 0
M  V30 48 H -2.295761 -0.645849 -2.160478 0
M  V30 49 H -4.097230 -3.542224 -0.522057 0
M  V30 50 H -4.028138 -3.066595 4.059103 0
M  V30 51 H -6.260524 -2.954758 5.092837 0
M  V30 52 H -8.204784 -3.101774 3.649719 0
M  V30 53 H -7.957209 -3.360210 1.160991 0
M  V30 54 H 0.296212 -4.736800 -2.427509 0
M  V30 55 H -1.456365 -1.016232 -3.974682 0
M  V30 56 H -0.269581 -2.295994 -4.516725 0
M  V30 57 H 0.247090 -0.603078 -4.519815 0
M  V30 58 H 1.789781 -2.609026 -3.308217 0
M  V30 59 H 2.007935 -1.983681 -1.659452 0
M  V30 60 H 2.135792 -0.858762 -3.128567 0
M  V30 61 H 2.979126 0.938371 -1.682694 0
M  V30 62 H 2.063292 3.862604 -1.646401 0
M  V30 63 H 2.247125 2.742425 -3.017225 0
M  V30 64 H 3.682388 3.338486 -2.180807 0
M  V30 65 H 3.688588 3.088018 0.188378 0
M  V30 66 H 4.490068 1.430996 -0.061956 0
M  V30 END ATOM
M  V30 BEGIN BOND
M  V30 1 1 1 2
M  V30 2 1 2 3
M  V30 3 1 3 4
M  V30 4 1 2 5
M  V30 5 1 5 6
M  V30 6 1 6 7
M  V30 7 1 7 8
M  V30 8 1 8 9
M  V30 9 1 9 10
M  V30 10 2 10 11
M  V30 11 1 10 12
M  V30 12 1 12 13
M  V30 13 1 13 14
M  V30 14 1 14 15
M  V30 15 1 15 16
M  V30 16 1 16 17
M  V30 17 2 17 18
M  V30 18 1 17 19
M  V30 19 2 19 20
M  V30 20 1 20 21
M  V30 21 2 21 22
M  V30 22 1 22 23
M  V30 23 2 23 24
M  V30 24 2 15 25
M  V30 25 1 25 26
M  V30 26 1 26 27
M  V30 27 1 27 28
M  V30 28 1 28 29
M  V30 29 1 28 30
M  V30 30 1 9 31
M  V30 31 1 31 32
M  V30 32 1 31 33
M  V30 33 1 33 6
M  V30 34 1 28 12
M  V30 35 2 27 14
M  V30 36 1 24 19
M  V30 37 1 1 34
M  V30 38 1 1 35
M  V30 39 1 1 36
M  V30 40 1 2 37 CFG=1
M  V30 41 1 3 38
M  V30 42 1 3 39
M  V30 43 1 4 40
M  V30 44 1 5 41
M  V30 45 1 5 42
M  V30 46 1 7 43
M  V30 47 1 7 44
M  V30 48 1 8 45
M  V30 49 1 8 46
M  V30 50 1 13 47
M  V30 51 1 13 48
M  V30 52 1 16 49
M  V30 53 1 20 50
M  V30 54 1 21 51
M  V30 55 1 22 52
M  V30 56 1 23 53
M  V30 57 1 26 54
M  V30 58 1 29 55
M  V30 59 1 29 56
M  V30 60 1 29 57
M  V30 61 1 30 58
M  V30 62 1 30 59
M  V30 63 1 30 60
M  V30 64 1 31 61 CFG=3
M  V30 65 1 32 62
M  V30 66 1 32 63
M  V30 67 1 32 64
M  V30 68 1 33 65
M  V30 69 1 33 66
M  V30 END BOND
M  V30 END CTAB
M  END
>  <Dataset>  (479) 
ChEMBL_Kinases

>  <Ligand_Instance>  (479) 
nan

>  <PDB_ID>  (479) 
nan

>  <Standardized_SMILES>  (479) 
C[C@H](CO)CN1CCN(C(=O)N2Cc3c(NC(=O)c4ccccn4)n[nH]c3C2(C)C)[C@@H](C)C1

>  <Name>  (479) 
nan

>  <Pocket>  (479) 
nan

>  <ATP_Site>  (479) 
nan

>  <Peripheral>  (479) 
nan

>  <Num_H_Atoms_ProtBoundConf>  (479) 
nan

>  <Num_Resolved_Atoms>  (479) 
nan

>  <Num_Not_Resolved_Atoms>  (479) 
nan

$$$$
CHEMBL67658
     RDKit          3D

  0  0  0  0  0  0  0  0  0  0999 V3000
M  V30 BEGIN CTAB
M  V30 COUNTS 41 44 0 0 0
M  V30 BEGIN ATOM
M  V30 1 F 2.193582 -5.533943 2.244351 0
M  V30 2 C 3.134086 -4.722345 1.600834 0
M  V30 3 F 4.372445 -5.101634 2.087338 0
M  V30 4 F 3.022312 -4.851540 0.240689 0
M  V30 5 C 2.844001 -3.330589 2.012530 0
M  V30 6 C 3.490454 -2.843687 3.153806 0
M  V30 7 C 3.261208 -1.541168 3.597827 0
M  V30 8 C 2.370483 -0.806993 2.833676 0
M  V30 9 C 1.708558 -1.239293 1.703180 0
M  V30 10 C 0.800005 -0.320668 1.023846 0
M  V30 11 N 1.031265 0.884774 0.453520 0
M  V30 12 C -0.102683 1.391755 -0.061396 0
M  V30 13 C -0.231454 2.671201 -0.750574 0
M  V30 14 C -1.449305 3.090918 -1.239477 0
M  V30 15 C -1.585647 4.300895 -1.894751 0
M  V30 16 C -0.449578 5.069351 -2.037611 0
M  V30 17 C 0.804085 4.722927 -1.578492 0
M  V30 18 C 0.864498 3.486693 -0.926670 0
M  V30 19 N -1.119150 0.526066 0.158160 0
M  V30 20 C -0.570825 -0.530351 0.825699 0
M  V30 21 C -1.294162 -1.725498 1.277740 0
M  V30 22 C -1.504560 -2.237999 2.540636 0
M  V30 23 C -2.226934 -3.383953 2.683419 0
M  V30 24 N -2.743169 -4.032218 1.619865 0
M  V30 25 C -2.563192 -3.569154 0.370184 0
M  V30 26 C -1.828142 -2.395455 0.171642 0
M  V30 27 C 1.965670 -2.546258 1.293659 0
M  V30 28 H 4.185636 -3.423773 3.745868 0
M  V30 29 H 3.731305 -1.112179 4.470795 0
M  V30 30 H 2.195966 0.214495 3.188061 0
M  V30 31 H -2.350347 2.495225 -1.133467 0
M  V30 32 H -2.538074 4.670671 -2.298470 0
M  V30 33 H -0.530147 6.023410 -2.548042 0
M  V30 34 H 1.667001 5.355932 -1.712421 0
M  V30 35 H 1.799819 3.135984 -0.536567 0
M  V30 36 H -2.133635 0.589151 -0.101430 0
M  V30 37 H -1.033632 -1.613931 3.288121 0
M  V30 38 H -2.347712 -3.723182 3.714257 0
M  V30 39 H -2.996436 -4.123228 -0.459900 0
M  V30 40 H -1.747683 -2.116402 -0.878067 0
M  V30 41 H 1.456924 -2.900057 0.412716 0
M  V30 END ATOM
M  V30 BEGIN BOND
M  V30 1 1 1 2
M  V30 2 1 2 3
M  V30 3 1 2 4
M  V30 4 1 2 5
M  V30 5 2 5 6
M  V30 6 1 6 7
M  V30 7 2 7 8
M  V30 8 1 8 9
M  V30 9 1 9 10
M  V30 10 1 10 11
M  V30 11 2 11 12
M  V30 12 1 12 13
M  V30 13 2 13 14
M  V30 14 1 14 15
M  V30 15 2 15 16
M  V30 16 1 16 17
M  V30 17 2 17 18
M  V30 18 1 12 19
M  V30 19 1 19 20
M  V30 20 1 20 21
M  V30 21 2 21 22
M  V30 22 1 22 23
M  V30 23 2 23 24
M  V30 24 1 24 25
M  V30 25 2 25 26
M  V30 26 2 9 27
M  V30 27 1 27 5
M  V30 28 2 20 10
M  V30 29 1 26 21
M  V30 30 1 18 13
M  V30 31 1 6 28
M  V30 32 1 7 29
M  V30 33 1 8 30
M  V30 34 1 14 31
M  V30 35 1 15 32
M  V30 36 1 16 33
M  V30 37 1 17 34
M  V30 38 1 18 35
M  V30 39 1 19 36
M  V30 40 1 22 37
M  V30 41 1 23 38
M  V30 42 1 25 39
M  V30 43 1 26 40
M  V30 44 1 27 41
M  V30 END BOND
M  V30 END CTAB
M  END
>  <Dataset>  (480) 
ChEMBL_Kinases

>  <Ligand_Instance>  (480) 
nan

>  <PDB_ID>  (480) 
nan

>  <Standardized_SMILES>  (480) 
FC(F)(F)c1cccc(-c2nc(-c3ccccc3)[nH]c2-c2ccncc2)c1

>  <Name>  (480) 
nan

>  <Pocket>  (480) 
nan

>  <ATP_Site>  (480) 
nan

>  <Peripheral>  (480) 
nan

>  <Num_H_Atoms_ProtBoundConf>  (480) 
nan

>  <Num_Resolved_Atoms>  (480) 
nan

>  <Num_Not_Resolved_Atoms>  (480) 
nan

$$$$
CHEMBL3945337
     RDKit          3D

  0  0  0  0  0  0  0  0  0  0999 V3000
M  V30 BEGIN CTAB
M  V30 COUNTS 57 60 0 0 0
M  V30 BEGIN ATOM
M  V30 1 C 0.247394 -4.235019 3.682947 0
M  V30 2 C 0.810392 -3.090772 2.975512 0
M  V30 3 C 1.999514 -2.569363 3.434207 0
M  V30 4 C 2.636191 -1.521044 2.822432 0
M  V30 5 C 2.025355 -1.001504 1.708774 0
M  V30 6 N 2.664521 0.085984 1.056231 0
M  V30 7 C 2.262167 1.375393 1.547712 0
M  V30 8 O 1.409451 1.270389 2.473291 0
M  V30 9 C 2.828962 2.589676 0.979281 0
M  V30 10 C 3.754655 2.686027 -0.026217 0
M  V30 11 C 4.169590 3.946118 -0.427191 0
M  V30 12 C 3.703788 5.114834 0.128512 0
M  V30 13 C 2.768193 5.013645 1.144610 0
M  V30 14 C 2.248835 6.272110 1.762375 0
M  V30 15 F 1.136170 6.036654 2.523138 0
M  V30 16 F 3.242323 6.725589 2.639657 0
M  V30 17 F 2.050328 7.271425 0.825978 0
M  V30 18 C 2.342151 3.760566 1.557985 0
M  V30 19 C 0.842231 -1.530304 1.264679 0
M  V30 20 C 0.184205 -2.588866 1.871137 0
M  V30 21 C -1.039889 -3.007146 1.237450 0
M  V30 22 C -2.068894 -3.773870 1.699229 0
M  V30 23 N -3.193145 -4.093864 1.055882 0
M  V30 24 C -4.215797 -4.923168 1.660860 0
M  V30 25 C -3.373926 -3.628772 -0.189781 0
M  V30 26 O -4.390407 -3.865425 -0.888272 0
M  V30 27 C -2.382264 -2.844732 -0.731463 0
M  V30 28 N -2.460258 -2.294540 -2.042199 0
M  V30 29 C -3.490752 -1.386664 -2.512100 0
M  V30 30 C -3.956082 -1.792834 -3.881270 0
M  V30 31 O -2.897267 -2.008786 -4.728033 0
M  V30 32 C -1.652703 -1.762639 -4.200595 0
M  V30 33 C -1.409629 -2.679240 -2.995763 0
M  V30 34 N -1.300077 -2.582816 -0.011338 0
M  V30 35 H -0.006045 -5.114943 3.029561 0
M  V30 36 H -0.530814 -4.046224 4.413808 0
M  V30 37 H 1.088087 -4.694665 4.320787 0
M  V30 38 H 2.472957 -2.987970 4.315004 0
M  V30 39 H 3.560235 -1.151646 3.219197 0
M  V30 40 H 3.375438 -0.016781 0.276789 0
M  V30 41 H 4.095291 1.761675 -0.435445 0
M  V30 42 H 4.906459 3.955313 -1.230349 0
M  V30 43 H 4.058685 6.073398 -0.219319 0
M  V30 44 H 1.612655 3.784753 2.354462 0
M  V30 45 H 0.455865 -1.026095 0.364976 0
M  V30 46 H -2.008716 -4.157982 2.694946 0
M  V30 47 H -4.768548 -5.459165 0.851129 0
M  V30 48 H -3.753928 -5.742690 2.282078 0
M  V30 49 H -4.944954 -4.342808 2.243259 0
M  V30 50 H -4.334827 -1.376702 -1.791036 0
M  V30 51 H -3.080776 -0.344034 -2.500998 0
M  V30 52 H -4.536708 -2.741888 -3.761266 0
M  V30 53 H -4.629738 -0.982316 -4.242754 0
M  V30 54 H -0.918963 -1.966921 -5.014787 0
M  V30 55 H -1.528346 -0.702941 -3.948243 0
M  V30 56 H -0.402522 -2.491650 -2.625557 0
M  V30 57 H -1.614098 -3.708514 -3.322808 0
M  V30 END ATOM
M  V30 BEGIN BOND
M  V30 1 1 1 2
M  V30 2 2 2 3
M  V30 3 1 3 4
M  V30 4 2 4 5
M  V30 5 1 5 6
M  V30 6 1 6 7
M  V30 7 2 7 8
M  V30 8 1 7 9
M  V30 9 2 9 10
M  V30 10 1 10 11
M  V30 11 2 11 12
M  V30 12 1 12 13
M  V30 13 1 13 14
M  V30 14 1 14 15
M  V30 15 1 14 16
M  V30 16 1 14 17
M  V30 17 2 13 18
M  V30 18 1 5 19
M  V30 19 2 19 20
M  V30 20 1 20 21
M  V30 21 2 21 22
M  V30 22 1 22 23
M  V30 23 1 23 24
M  V30 24 1 23 25
M  V30 25 2 25 26
M  V30 26 1 25 27
M  V30 27 1 27 28
M  V30 28 1 28 29
M  V30 29 1 29 30
M  V30 30 1 30 31
M  V30 31 1 31 32
M  V30 32 1 32 33
M  V30 33 2 27 34
M  V30 34 1 20 2
M  V30 35 1 34 21
M  V30 36 1 18 9
M  V30 37 1 33 28
M  V30 38 1 1 35
M  V30 39 1 1 36
M  V30 40 1 1 37
M  V30 41 1 3 38
M  V30 42 1 4 39
M  V30 43 1 6 40
M  V30 44 1 10 41
M  V30 45 1 11 42
M  V30 46 1 12 43
M  V30 47 1 18 44
M  V30 48 1 19 45
M  V30 49 1 22 46
M  V30 50 1 24 47
M  V30 51 1 24 48
M  V30 52 1 24 49
M  V30 53 1 29 50
M  V30 54 1 29 51
M  V30 55 1 30 52
M  V30 56 1 30 53
M  V30 57 1 32 54
M  V30 58 1 32 55
M  V30 59 1 33 56
M  V30 60 1 33 57
M  V30 END BOND
M  V30 END CTAB
M  END
>  <Dataset>  (481) 
ChEMBL_Kinases

>  <Ligand_Instance>  (481) 
nan

>  <PDB_ID>  (481) 
nan

>  <Standardized_SMILES>  (481) 
Cc1ccc(NC(=O)c2cccc(C(F)(F)F)c2)cc1-c1cn(C)c(=O)c(N2CCOCC2)n1

>  <Name>  (481) 
nan

>  <Pocket>  (481) 
nan

>  <ATP_Site>  (481) 
nan

>  <Peripheral>  (481) 
nan

>  <Num_H_Atoms_ProtBoundConf>  (481) 
nan

>  <Num_Resolved_Atoms>  (481) 
nan

>  <Num_Not_Resolved_Atoms>  (481) 
nan

$$$$
CHEMBL3945115
     RDKit          3D

  0  0  0  0  0  0  0  0  0  0999 V3000
M  V30 BEGIN CTAB
M  V30 COUNTS 51 55 0 0 0
M  V30 BEGIN ATOM
M  V30 1 C -1.608783 -2.015560 6.920168 0
M  V30 2 N -1.013537 -1.870438 5.627000 0
M  V30 3 C -0.021935 -2.697665 5.028202 0
M  V30 4 O 0.486586 -3.720015 5.591468 0
M  V30 5 C 0.443710 -2.343473 3.666282 0
M  V30 6 N 0.031849 -1.312156 2.911534 0
M  V30 7 C 0.674280 -1.299610 1.726935 0
M  V30 8 C 0.630675 -0.480355 0.612761 0
M  V30 9 C 1.467542 -0.783224 -0.465115 0
M  V30 10 C 1.362974 0.151053 -1.635870 0
M  V30 11 O 2.160878 -0.282906 -2.687791 0
M  V30 12 C 1.730173 1.512764 -1.179899 0
M  V30 13 C 3.000141 1.854315 -0.705115 0
M  V30 14 C 3.182153 3.180536 -0.305321 0
M  V30 15 C 2.162756 4.104392 -0.375262 0
M  V30 16 C 0.905689 3.737269 -0.852933 0
M  V30 17 C 0.706001 2.432840 -1.252589 0
M  V30 18 C -0.422700 1.687452 -1.797107 0
M  V30 19 O -1.532761 2.271499 -1.984068 0
M  V30 20 N -0.018604 0.322557 -2.034018 0
M  V30 21 C -0.964442 -0.592085 -2.589413 0
M  V30 22 C -1.779542 -1.326261 -1.604207 0
M  V30 23 C -1.500793 -2.557088 -1.009016 0
M  V30 24 C -2.374103 -3.110137 -0.100725 0
M  V30 25 C -3.551263 -2.507298 0.275600 0
M  V30 26 C -3.848822 -1.304401 -0.289976 0
M  V30 27 C -2.982108 -0.746299 -1.197208 0
M  V30 28 C 2.347249 -1.867562 -0.482495 0
M  V30 29 C 2.338475 -2.641275 0.660410 0
M  V30 30 C 1.537951 -2.398222 1.759456 0
M  V30 31 N 1.370413 -3.005584 2.948427 0
M  V30 32 H -2.717106 -2.089311 6.890844 0
M  V30 33 H -1.228269 -2.850951 7.528052 0
M  V30 34 H -1.410745 -1.084018 7.507403 0
M  V30 35 H -1.398582 -1.041527 5.120780 0
M  V30 36 H -0.029633 0.364255 0.581162 0
M  V30 37 H 2.816341 0.427488 -2.960867 0
M  V30 38 H 3.835254 1.173672 -0.628032 0
M  V30 39 H 4.111594 3.576687 0.080174 0
M  V30 40 H 2.254560 5.140259 -0.078208 0
M  V30 41 H 0.073915 4.432566 -0.925225 0
M  V30 42 H -0.381186 -1.296780 -3.239759 0
M  V30 43 H -1.686043 -0.099038 -3.295954 0
M  V30 44 H -0.564255 -3.000365 -1.331281 0
M  V30 45 H -1.998350 -4.076743 0.266013 0
M  V30 46 H -4.130795 -3.059633 0.994926 0
M  V30 47 H -4.769892 -0.831674 0.003805 0
M  V30 48 H -3.313088 0.215309 -1.589894 0
M  V30 49 H 2.965968 -2.052068 -1.336880 0
M  V30 50 H 3.014289 -3.507778 0.695905 0
M  V30 51 H 1.883623 -3.860118 3.261584 0
M  V30 END ATOM
M  V30 BEGIN BOND
M  V30 1 1 1 2
M  V30 2 1 2 3
M  V30 3 2 3 4
M  V30 4 1 3 5
M  V30 5 2 5 6
M  V30 6 1 6 7
M  V30 7 2 7 8
M  V30 8 1 8 9
M  V30 9 1 9 10
M  V30 10 1 10 11
M  V30 11 1 10 12
M  V30 12 2 12 13
M  V30 13 1 13 14
M  V30 14 2 14 15
M  V30 15 1 15 16
M  V30 16 2 16 17
M  V30 17 1 17 18
M  V30 18 2 18 19
M  V30 19 1 18 20
M  V30 20 1 20 21
M  V30 21 1 21 22
M  V30 22 2 22 23
M  V30 23 1 23 24
M  V30 24 2 24 25
M  V30 25 1 25 26
M  V30 26 2 26 27
M  V30 27 2 9 28
M  V30 28 1 28 29
M  V30 29 2 29 30
M  V30 30 1 30 31
M  V30 31 1 31 5
M  V30 32 1 30 7
M  V30 33 1 20 10
M  V30 34 1 27 22
M  V30 35 1 17 12
M  V30 36 1 1 32
M  V30 37 1 1 33
M  V30 38 1 1 34
M  V30 39 1 2 35
M  V30 40 1 8 36
M  V30 41 1 11 37
M  V30 42 1 13 38
M  V30 43 1 14 39
M  V30 44 1 15 40
M  V30 45 1 16 41
M  V30 46 1 21 42
M  V30 47 1 21 43
M  V30 48 1 23 44
M  V30 49 1 24 45
M  V30 50 1 25 46
M  V30 51 1 26 47
M  V30 52 1 27 48
M  V30 53 1 28 49
M  V30 54 1 29 50
M  V30 55 1 31 51
M  V30 END BOND
M  V30 END CTAB
M  END
>  <Dataset>  (482) 
ChEMBL_Kinases

>  <Ligand_Instance>  (482) 
nan

>  <PDB_ID>  (482) 
nan

>  <Standardized_SMILES>  (482) 
CNC(=O)c1nc2cc(C3(O)c4ccccc4C(=O)N3Cc3ccccc3)ccc2[nH]1

>  <Name>  (482) 
nan

>  <Pocket>  (482) 
nan

>  <ATP_Site>  (482) 
nan

>  <Peripheral>  (482) 
nan

>  <Num_H_Atoms_ProtBoundConf>  (482) 
nan

>  <Num_Resolved_Atoms>  (482) 
nan

>  <Num_Not_Resolved_Atoms>  (482) 
nan

$$$$
CHEMBL3946139
     RDKit          3D

  0  0  0  0  0  0  0  0  0  0999 V3000
M  V30 BEGIN CTAB
M  V30 COUNTS 61 65 0 0 0
M  V30 BEGIN ATOM
M  V30 1 C 4.904261 1.206933 1.670724 0
M  V30 2 C 4.915904 2.452760 2.525701 0
M  V30 3 C 3.737737 2.540622 3.469368 0
M  V30 4 N 5.137636 3.647368 1.764223 0
M  V30 5 C 6.338605 4.237530 1.503552 0
M  V30 6 N 6.162611 5.323363 0.771196 0
M  V30 7 N 4.881696 5.466296 0.541570 0
M  V30 8 C 4.236264 4.435287 1.150882 0
M  V30 9 C 2.791255 4.254786 1.116721 0
M  V30 10 C 2.011041 5.387931 1.280752 0
M  V30 11 C 0.632488 5.324256 1.264107 0
M  V30 12 C -0.014451 4.115865 1.081434 0
M  V30 13 C 0.791942 3.005779 0.920957 0
M  V30 14 N 0.341944 1.668951 0.720156 0
M  V30 15 C 0.077744 0.732342 1.796568 0
M  V30 16 C -0.364041 -0.513057 1.096638 0
M  V30 17 C -0.726321 -1.686945 1.715526 0
M  V30 18 C -1.103697 -2.723533 0.898307 0
M  V30 19 C -1.149146 -2.683889 -0.472596 0
M  V30 20 O -1.469995 -3.512049 -1.495579 0
M  V30 21 C -1.928556 -4.820534 -1.469969 0
M  V30 22 C -3.269772 -4.923354 -0.803383 0 CFG=2
M  V30 23 C -3.720128 -6.340369 -0.598074 0
M  V30 24 N -4.359222 -6.912355 -1.752778 0
M  V30 25 C -4.925108 -8.203915 -1.414147 0
M  V30 26 C -5.336970 -6.093361 -2.384867 0
M  V30 27 C -5.405486 -4.771498 -1.684186 0
M  V30 28 O -4.186824 -4.152709 -1.502239 0
M  V30 29 C -0.767296 -1.457517 -1.048552 0
M  V30 30 C -0.369359 -0.354112 -0.277170 0
M  V30 31 C 0.073633 1.015118 -0.513997 0
M  V30 32 O 0.191734 1.517882 -1.660506 0
M  V30 33 N 2.132747 3.092259 0.940798 0
M  V30 34 H 4.553376 0.375580 2.314694 0
M  V30 35 H 4.237780 1.254301 0.798901 0
M  V30 36 H 5.940823 0.977449 1.373874 0
M  V30 37 H 5.821329 2.307833 3.185104 0
M  V30 38 H 3.320299 3.587015 3.428656 0
M  V30 39 H 4.033181 2.429869 4.533415 0
M  V30 40 H 2.973940 1.767668 3.257797 0
M  V30 41 H 7.313146 3.863934 1.852390 0
M  V30 42 H 2.447296 6.374399 1.429446 0
M  V30 43 H -0.023137 6.178094 1.387431 0
M  V30 44 H -1.078956 3.924173 1.047392 0
M  V30 45 H -0.699574 1.106114 2.489139 0
M  V30 46 H 1.035540 0.513585 2.332612 0
M  V30 47 H -0.749045 -1.889081 2.765155 0
M  V30 48 H -1.382017 -3.670562 1.291786 0
M  V30 49 H -1.917253 -5.305333 -2.474231 0
M  V30 50 H -1.245649 -5.496582 -0.860939 0
M  V30 51 H -3.202859 -4.477005 0.194721 0
M  V30 52 H -4.353709 -6.458663 0.304816 0
M  V30 53 H -2.799478 -6.937364 -0.425251 0
M  V30 54 H -5.134334 -8.767534 -2.368992 0
M  V30 55 H -4.276747 -8.793805 -0.733300 0
M  V30 56 H -5.900470 -8.103624 -0.886477 0
M  V30 57 H -6.333242 -6.566084 -2.262519 0
M  V30 58 H -5.200759 -5.997708 -3.482638 0
M  V30 59 H -5.953730 -4.863705 -0.744530 0
M  V30 60 H -5.997631 -4.093713 -2.352508 0
M  V30 61 H -0.718806 -1.176000 -2.111651 0
M  V30 END ATOM
M  V30 BEGIN BOND
M  V30 1 1 1 2
M  V30 2 1 2 3
M  V30 3 1 2 4
M  V30 4 1 4 5
M  V30 5 2 5 6
M  V30 6 1 6 7
M  V30 7 2 7 8
M  V30 8 1 8 9
M  V30 9 2 9 10
M  V30 10 1 10 11
M  V30 11 2 11 12
M  V30 12 1 12 13
M  V30 13 1 13 14
M  V30 14 1 14 15
M  V30 15 1 15 16
M  V30 16 2 16 17
M  V30 17 1 17 18
M  V30 18 2 18 19
M  V30 19 1 19 20
M  V30 20 1 20 21
M  V30 21 1 21 22
M  V30 22 1 22 23
M  V30 23 1 23 24
M  V30 24 1 24 25
M  V30 25 1 24 26
M  V30 26 1 26 27
M  V30 27 1 27 28
M  V30 28 1 19 29
M  V30 29 2 29 30
M  V30 30 1 30 31
M  V30 31 2 31 32
M  V30 32 2 13 33
M  V30 33 1 8 4
M  V30 34 1 33 9
M  V30 35 1 31 14
M  V30 36 1 30 16
M  V30 37 1 28 22
M  V30 38 1 1 34
M  V30 39 1 1 35
M  V30 40 1 1 36
M  V30 41 1 2 37
M  V30 42 1 3 38
M  V30 43 1 3 39
M  V30 44 1 3 40
M  V30 45 1 5 41
M  V30 46 1 10 42
M  V30 47 1 11 43
M  V30 48 1 12 44
M  V30 49 1 15 45
M  V30 50 1 15 46
M  V30 51 1 17 47
M  V30 52 1 18 48
M  V30 53 1 21 49
M  V30 54 1 21 50
M  V30 55 1 22 51 CFG=1
M  V30 56 1 23 52
M  V30 57 1 23 53
M  V30 58 1 25 54
M  V30 59 1 25 55
M  V30 60 1 25 56
M  V30 61 1 26 57
M  V30 62 1 26 58
M  V30 63 1 27 59
M  V30 64 1 27 60
M  V30 65 1 29 61
M  V30 END BOND
M  V30 END CTAB
M  END
>  <Dataset>  (483) 
ChEMBL_Kinases

>  <Ligand_Instance>  (483) 
nan

>  <PDB_ID>  (483) 
nan

>  <Standardized_SMILES>  (483) 
CC(C)n1cnnc1-c1cccc(N2Cc3ccc(OC[C@@H]4CN(C)CCO4)cc3C2=O)n1

>  <Name>  (483) 
nan

>  <Pocket>  (483) 
nan

>  <ATP_Site>  (483) 
nan

>  <Peripheral>  (483) 
nan

>  <Num_H_Atoms_ProtBoundConf>  (483) 
nan

>  <Num_Resolved_Atoms>  (483) 
nan

>  <Num_Not_Resolved_Atoms>  (483) 
nan

$$$$
CHEMBL3949796
     RDKit          3D

  0  0  0  0  0  0  0  0  0  0999 V3000
M  V30 BEGIN CTAB
M  V30 COUNTS 42 45 0 0 0
M  V30 BEGIN ATOM
M  V30 1 N 2.730291 -8.382888 -0.951354 0
M  V30 2 C 3.038696 -7.045658 -1.272416 0
M  V30 3 O 4.050047 -6.732195 -1.951221 0
M  V30 4 C 2.112602 -6.038867 -0.769696 0
M  V30 5 C 0.983303 -6.310135 -0.018844 0
M  V30 6 C 0.128877 -5.342851 0.441431 0
M  V30 7 C 0.381906 -4.004331 0.155702 0
M  V30 8 N -0.227567 -2.824150 0.438931 0
M  V30 9 C 0.481491 -1.818336 -0.109342 0
M  V30 10 C 0.082091 -0.413961 0.018212 0
M  V30 11 C -1.066358 -0.126005 0.729985 0
M  V30 12 C -1.485183 1.202338 0.876976 0
M  V30 13 C -0.722995 2.199463 0.295237 0
M  V30 14 C -1.194960 3.606506 0.469087 0
M  V30 15 C -0.614462 4.216247 1.696576 0
M  V30 16 C 0.571709 4.917515 1.791014 0
M  V30 17 C 0.978848 5.425734 3.008946 0
M  V30 18 C 0.252137 5.271492 4.171505 0
M  V30 19 Cl 0.771937 5.914554 5.700788 0
M  V30 20 C -0.940297 4.557569 4.036888 0
M  V30 21 C -1.396614 4.025972 2.840284 0
M  V30 22 C 0.423843 1.884859 -0.413046 0
M  V30 23 C 0.862372 0.584208 -0.575252 0
M  V30 24 N 1.529687 -2.353604 -0.733885 0
M  V30 25 C 1.509605 -3.712329 -0.596028 0
M  V30 26 C 2.361543 -4.704202 -1.052441 0
M  V30 27 H 2.964637 -8.628294 0.047397 0
M  V30 28 H 2.359637 -9.288283 -1.256776 0
M  V30 29 H 0.803197 -7.361806 0.193630 0
M  V30 30 H -0.746021 -5.591538 1.026676 0
M  V30 31 H -1.120105 -2.835338 1.013673 0
M  V30 32 H -1.685284 -0.874401 1.196739 0
M  V30 33 H -2.384624 1.421374 1.435018 0
M  V30 34 H -2.286198 3.682906 0.473792 0
M  V30 35 H -0.810287 4.166719 -0.407461 0
M  V30 36 H 1.116634 5.021106 0.865769 0
M  V30 37 H 1.927997 5.975714 3.035047 0
M  V30 38 H -1.515576 4.433155 4.946947 0
M  V30 39 H -2.345708 3.484798 2.853043 0
M  V30 40 H 0.981878 2.715033 -0.848172 0
M  V30 41 H 1.761340 0.359924 -1.132513 0
M  V30 42 H 3.240827 -4.470562 -1.639134 0
M  V30 END ATOM
M  V30 BEGIN BOND
M  V30 1 1 1 2
M  V30 2 2 2 3
M  V30 3 1 2 4
M  V30 4 2 4 5
M  V30 5 1 5 6
M  V30 6 2 6 7
M  V30 7 1 7 8
M  V30 8 1 8 9
M  V30 9 1 9 10
M  V30 10 2 10 11
M  V30 11 1 11 12
M  V30 12 2 12 13
M  V30 13 1 13 14
M  V30 14 1 14 15
M  V30 15 2 15 16
M  V30 16 1 16 17
M  V30 17 2 17 18
M  V30 18 1 18 19
M  V30 19 1 18 20
M  V30 20 2 20 21
M  V30 21 1 13 22
M  V30 22 2 22 23
M  V30 23 2 9 24
M  V30 24 1 24 25
M  V30 25 2 25 26
M  V30 26 1 26 4
M  V30 27 1 25 7
M  V30 28 1 23 10
M  V30 29 1 21 15
M  V30 30 1 1 27
M  V30 31 1 1 28
M  V30 32 1 5 29
M  V30 33 1 6 30
M  V30 34 1 8 31
M  V30 35 1 11 32
M  V30 36 1 12 33
M  V30 37 1 14 34
M  V30 38 1 14 35
M  V30 39 1 16 36
M  V30 40 1 17 37
M  V30 41 1 20 38
M  V30 42 1 21 39
M  V30 43 1 22 40
M  V30 44 1 23 41
M  V30 45 1 26 42
M  V30 END BOND
M  V30 END CTAB
M  END
>  <Dataset>  (484) 
ChEMBL_Kinases

>  <Ligand_Instance>  (484) 
nan

>  <PDB_ID>  (484) 
nan

>  <Standardized_SMILES>  (484) 
NC(=O)c1ccc2[nH]c(-c3ccc(Cc4ccc(Cl)cc4)cc3)nc2c1

>  <Name>  (484) 
nan

>  <Pocket>  (484) 
nan

>  <ATP_Site>  (484) 
nan

>  <Peripheral>  (484) 
nan

>  <Num_H_Atoms_ProtBoundConf>  (484) 
nan

>  <Num_Resolved_Atoms>  (484) 
nan

>  <Num_Not_Resolved_Atoms>  (484) 
nan

$$$$
CHEMBL3949793
     RDKit          3D

  0  0  0  0  0  0  0  0  0  0999 V3000
M  V30 BEGIN CTAB
M  V30 COUNTS 63 67 0 0 0
M  V30 BEGIN ATOM
M  V30 1 C 2.229406 0.219901 4.820969 0
M  V30 2 O 2.355556 0.764927 3.543255 0
M  V30 3 C 2.975420 0.221252 2.451658 0
M  V30 4 C 3.570959 -1.016775 2.560443 0
M  V30 5 C 4.195006 -1.537610 1.420882 0
M  V30 6 C 4.204669 -0.816934 0.228905 0
M  V30 7 F 4.827523 -1.375876 -0.858138 0
M  V30 8 C 3.605670 0.423980 0.129828 0
M  V30 9 C 2.980529 0.953717 1.257692 0
M  V30 10 C 2.323694 2.258303 1.254988 0
M  V30 11 C 3.026230 3.394827 1.571259 0
M  V30 12 C 2.417736 4.637875 1.572653 0
M  V30 13 N 1.120338 4.754682 1.262221 0
M  V30 14 C 0.397956 3.666049 0.947371 0
M  V30 15 N -0.893540 3.431611 0.598692 0
M  V30 16 C -1.146120 2.129661 0.377693 0
M  V30 17 C -2.479551 1.629369 -0.009035 0
M  V30 18 C -2.507479 0.811161 -1.251544 0
M  V30 19 C -3.634191 -0.217356 -1.126988 0
M  V30 20 N -3.217996 -1.199746 -0.182101 0
M  V30 21 C -2.530700 -2.331743 -0.701160 0
M  V30 22 C -1.989426 -3.281039 0.308692 0
M  V30 23 N -1.306348 -4.421558 -0.223464 0
M  V30 24 C -2.084533 -5.396130 -0.890404 0
M  V30 25 C -2.226459 -5.252012 -2.371081 0
M  V30 26 O -1.505596 -4.239206 -2.939847 0
M  V30 27 C -0.258610 -4.007628 -2.433767 0
M  V30 28 C -0.111354 -4.081705 -0.954243 0
M  V30 29 C -2.757216 -0.649706 1.041195 0
M  V30 30 C -3.073871 0.846090 1.144004 0
M  V30 31 C 0.036671 1.488328 0.592325 0
M  V30 32 C 1.004177 2.405303 0.943411 0
M  V30 33 H 2.432307 -0.847050 4.892264 0
M  V30 34 H 2.775822 0.831664 5.569024 0
M  V30 35 H 1.140193 0.339269 5.099971 0
M  V30 36 H 3.603329 -1.631885 3.443192 0
M  V30 37 H 4.679712 -2.502657 1.434703 0
M  V30 38 H 3.609227 0.993197 -0.793644 0
M  V30 39 H 4.081791 3.254986 1.820023 0
M  V30 40 H 3.086226 5.440961 1.839787 0
M  V30 41 H -1.542359 4.242465 0.536267 0
M  V30 42 H -3.151721 2.524203 -0.175483 0
M  V30 43 H -2.668868 1.475880 -2.131264 0
M  V30 44 H -1.543239 0.239127 -1.373951 0
M  V30 45 H -4.487528 0.337146 -0.698520 0
M  V30 46 H -3.882678 -0.653742 -2.097159 0
M  V30 47 H -1.714253 -1.978591 -1.391116 0
M  V30 48 H -3.262856 -2.854759 -1.377087 0
M  V30 49 H -1.289264 -2.742206 0.981172 0
M  V30 50 H -2.840080 -3.655245 0.929540 0
M  V30 51 H -3.070147 -5.548176 -0.379136 0
M  V30 52 H -1.562220 -6.386118 -0.708720 0
M  V30 53 H -3.311273 -4.994437 -2.553149 0
M  V30 54 H -2.123644 -6.241372 -2.908382 0
M  V30 55 H 0.523370 -4.648464 -2.944191 0
M  V30 56 H 0.024257 -2.965961 -2.778510 0
M  V30 57 H 0.311489 -3.126499 -0.563662 0
M  V30 58 H 0.655523 -4.845724 -0.704727 0
M  V30 59 H -3.401038 -1.110030 1.853104 0
M  V30 60 H -1.702333 -0.762216 1.280736 0
M  V30 61 H -2.613778 1.202988 2.099233 0
M  V30 62 H -4.160842 1.032350 1.232080 0
M  V30 63 H 0.200862 0.436312 0.501535 0
M  V30 END ATOM
M  V30 BEGIN BOND
M  V30 1 1 1 2
M  V30 2 1 2 3
M  V30 3 2 3 4
M  V30 4 1 4 5
M  V30 5 2 5 6
M  V30 6 1 6 7
M  V30 7 1 6 8
M  V30 8 2 8 9
M  V30 9 1 9 10
M  V30 10 2 10 11
M  V30 11 1 11 12
M  V30 12 2 12 13
M  V30 13 1 13 14
M  V30 14 1 14 15
M  V30 15 1 15 16
M  V30 16 1 16 17
M  V30 17 1 17 18
M  V30 18 1 18 19
M  V30 19 1 19 20
M  V30 20 1 20 21
M  V30 21 1 21 22
M  V30 22 1 22 23
M  V30 23 1 23 24
M  V30 24 1 24 25
M  V30 25 1 25 26
M  V30 26 1 26 27
M  V30 27 1 27 28
M  V30 28 1 20 29
M  V30 29 1 29 30
M  V30 30 2 16 31
M  V30 31 1 31 32
M  V30 32 1 9 3
M  V30 33 1 32 10
M  V30 34 2 32 14
M  V30 35 1 30 17
M  V30 36 1 28 23
M  V30 37 1 1 33
M  V30 38 1 1 34
M  V30 39 1 1 35
M  V30 40 1 4 36
M  V30 41 1 5 37
M  V30 42 1 8 38
M  V30 43 1 11 39
M  V30 44 1 12 40
M  V30 45 1 15 41
M  V30 46 1 17 42
M  V30 47 1 18 43
M  V30 48 1 18 44
M  V30 49 1 19 45
M  V30 50 1 19 46
M  V30 51 1 21 47
M  V30 52 1 21 48
M  V30 53 1 22 49
M  V30 54 1 22 50
M  V30 55 1 24 51
M  V30 56 1 24 52
M  V30 57 1 25 53
M  V30 58 1 25 54
M  V30 59 1 27 55
M  V30 60 1 27 56
M  V30 61 1 28 57
M  V30 62 1 28 58
M  V30 63 1 29 59
M  V30 64 1 29 60
M  V30 65 1 30 61
M  V30 66 1 30 62
M  V30 67 1 31 63
M  V30 END BOND
M  V30 END CTAB
M  END
>  <Dataset>  (485) 
ChEMBL_Kinases

>  <Ligand_Instance>  (485) 
nan

>  <PDB_ID>  (485) 
nan

>  <Standardized_SMILES>  (485) 
COc1ccc(F)cc1-c1ccnc2[nH]c(C3CCN(CCN4CCOCC4)CC3)cc12

>  <Name>  (485) 
nan

>  <Pocket>  (485) 
nan

>  <ATP_Site>  (485) 
nan

>  <Peripheral>  (485) 
nan

>  <Num_H_Atoms_ProtBoundConf>  (485) 
nan

>  <Num_Resolved_Atoms>  (485) 
nan

>  <Num_Not_Resolved_Atoms>  (485) 
nan

$$$$
CHEMBL3949750
     RDKit          3D

  0  0  0  0  0  0  0  0  0  0999 V3000
M  V30 BEGIN CTAB
M  V30 COUNTS 47 51 0 0 0
M  V30 BEGIN ATOM
M  V30 1 N -1.140031 -8.759915 -0.718332 0
M  V30 2 S -0.259343 -8.119602 -2.055361 0
M  V30 3 O 0.879500 -9.075272 -2.359102 0
M  V30 4 O -1.173377 -7.941145 -3.206934 0
M  V30 5 C 0.474820 -6.624558 -1.505270 0
M  V30 6 C 1.731238 -6.581866 -0.932064 0
M  V30 7 C 2.276067 -5.367643 -0.508500 0
M  V30 8 C 1.580501 -4.182292 -0.648892 0
M  V30 9 N 1.862982 -2.885040 -0.331560 0
M  V30 10 C 0.812847 -2.123877 -0.694037 0
M  V30 11 C 0.764671 -0.676280 -0.503914 0
M  V30 12 C 1.853863 -0.060765 0.077655 0
M  V30 13 C 1.813990 1.312758 0.260680 0
M  V30 14 C 0.728531 2.080221 -0.116803 0
M  V30 15 O 0.697388 3.454632 0.070293 0
M  V30 16 C 0.208626 4.063186 1.218807 0
M  V30 17 C 0.211331 5.457322 1.331528 0
M  V30 18 C -0.272915 6.080182 2.471111 0
M  V30 19 C -0.768047 5.343497 3.519276 0
M  V30 20 C -1.244505 6.005748 4.644720 0
M  V30 21 C -1.728980 5.217538 5.664566 0
M  V30 22 C -1.741860 3.847251 5.576712 0
M  V30 23 C -1.267610 3.179891 4.455787 0
M  V30 24 C -0.784324 3.978231 3.439470 0
M  V30 25 C -0.298228 3.377660 2.297633 0
M  V30 26 C -0.361820 1.432304 -0.703636 0
M  V30 27 C -0.333573 0.065700 -0.890896 0
M  V30 28 N -0.119319 -2.930262 -1.232694 0
M  V30 29 C 0.306470 -4.210000 -1.227853 0
M  V30 30 C -0.221596 -5.430172 -1.644722 0
M  V30 31 H -1.139768 -8.135475 0.116632 0
M  V30 32 H -2.089016 -9.092962 -0.990692 0
M  V30 33 H 2.254693 -7.524735 -0.833849 0
M  V30 34 H 3.275004 -5.372051 -0.058372 0
M  V30 35 H 2.782979 -2.630127 0.120895 0
M  V30 36 H 2.742216 -0.597456 0.399966 0
M  V30 37 H 2.671156 1.790587 0.717399 0
M  V30 38 H 0.607487 6.036265 0.492000 0
M  V30 39 H -0.261256 7.156535 2.536657 0
M  V30 40 H -1.242034 7.079223 4.730649 0
M  V30 41 H -2.124528 5.648545 6.588766 0
M  V30 42 H -2.128375 3.250937 6.393108 0
M  V30 43 H -1.277211 2.106208 4.385843 0
M  V30 44 H -0.314724 2.304045 2.243177 0
M  V30 45 H -1.250672 1.975110 -1.025283 0
M  V30 46 H -1.205044 -0.412481 -1.354123 0
M  V30 47 H -1.198121 -5.453871 -2.088845 0
M  V30 END ATOM
M  V30 BEGIN BOND
M  V30 1 1 1 2
M  V30 2 2 2 3
M  V30 3 2 2 4
M  V30 4 1 2 5
M  V30 5 2 5 6
M  V30 6 1 6 7
M  V30 7 2 7 8
M  V30 8 1 8 9
M  V30 9 1 9 10
M  V30 10 1 10 11
M  V30 11 2 11 12
M  V30 12 1 12 13
M  V30 13 2 13 14
M  V30 14 1 14 15
M  V30 15 1 15 16
M  V30 16 2 16 17
M  V30 17 1 17 18
M  V30 18 2 18 19
M  V30 19 1 19 20
M  V30 20 2 20 21
M  V30 21 1 21 22
M  V30 22 2 22 23
M  V30 23 1 23 24
M  V30 24 2 24 25
M  V30 25 1 14 26
M  V30 26 2 26 27
M  V30 27 2 10 28
M  V30 28 1 28 29
M  V30 29 2 29 30
M  V30 30 1 30 5
M  V30 31 1 29 8
M  V30 32 1 27 11
M  V30 33 1 25 16
M  V30 34 1 24 19
M  V30 35 1 1 31
M  V30 36 1 1 32
M  V30 37 1 6 33
M  V30 38 1 7 34
M  V30 39 1 9 35
M  V30 40 1 12 36
M  V30 41 1 13 37
M  V30 42 1 17 38
M  V30 43 1 18 39
M  V30 44 1 20 40
M  V30 45 1 21 41
M  V30 46 1 22 42
M  V30 47 1 23 43
M  V30 48 1 25 44
M  V30 49 1 26 45
M  V30 50 1 27 46
M  V30 51 1 30 47
M  V30 END BOND
M  V30 END CTAB
M  END
>  <Dataset>  (486) 
ChEMBL_Kinases

>  <Ligand_Instance>  (486) 
nan

>  <PDB_ID>  (486) 
nan

>  <Standardized_SMILES>  (486) 
NS(=O)(=O)c1ccc2[nH]c(-c3ccc(Oc4ccc5ccccc5c4)cc3)nc2c1

>  <Name>  (486) 
nan

>  <Pocket>  (486) 
nan

>  <ATP_Site>  (486) 
nan

>  <Peripheral>  (486) 
nan

>  <Num_H_Atoms_ProtBoundConf>  (486) 
nan

>  <Num_Resolved_Atoms>  (486) 
nan

>  <Num_Not_Resolved_Atoms>  (486) 
nan

$$$$
CHEMBL3949655
     RDKit          3D

  0  0  0  0  0  0  0  0  0  0999 V3000
M  V30 BEGIN CTAB
M  V30 COUNTS 68 73 0 0 0
M  V30 BEGIN ATOM
M  V30 1 C 0.572176 -2.495005 4.691459 0
M  V30 2 C 1.404528 -1.908123 3.571039 0
M  V30 3 C 1.555084 -0.434032 3.839188 0
M  V30 4 N 1.552393 0.613767 4.693482 0
M  V30 5 N 1.812666 1.721925 3.998850 0
M  V30 6 C 1.989688 1.425537 2.686762 0
M  V30 7 N 2.282803 2.289015 1.594253 0
M  V30 8 C 3.626787 2.573180 1.231267 0
M  V30 9 O 4.397282 1.944045 2.024725 0
M  V30 10 C 4.092520 3.426379 0.150882 0
M  V30 11 C 5.485479 3.506185 0.049401 0
M  V30 12 C 6.092296 4.265212 -0.911743 0
M  V30 13 C 5.376194 4.991683 -1.831386 0
M  V30 14 C 4.001672 4.927489 -1.749611 0
M  V30 15 C 3.398143 4.162544 -0.780896 0
M  V30 16 F 2.063914 4.074642 -0.669713 0
M  V30 17 C 1.825634 0.039077 2.574726 0
M  V30 18 C 1.809319 -1.156367 1.722070 0
M  V30 19 N 0.719746 -1.942873 2.301545 0
M  V30 20 C -0.535838 -2.580148 2.015719 0
M  V30 21 O -1.097687 -3.184635 2.996886 0
M  V30 22 N -1.219648 -2.606380 0.743712 0
M  V30 23 C -0.995504 -2.086396 -0.590614 0
M  V30 24 C -0.752675 -3.192194 -1.600819 0 CFG=2
M  V30 25 C -1.070364 -2.704750 -2.987246 0
M  V30 26 C -1.332883 -4.032483 -3.701376 0
M  V30 27 C -2.004681 -4.858549 -2.625517 0
M  V30 28 N -1.602611 -4.318971 -1.364727 0
M  V30 29 C -2.790453 -3.961995 -0.612826 0
M  V30 30 C -2.481033 -3.333849 0.705191 0 CFG=2
M  V30 31 C -3.640024 -2.581118 1.264809 0
M  V30 32 C -3.971599 -1.311422 0.615767 0
M  V30 33 C -3.315143 -0.195215 1.153640 0
M  V30 34 C -3.523501 1.080964 0.651488 0
M  V30 35 C -4.395847 1.279707 -0.405264 0
M  V30 36 C -5.051481 0.187546 -0.946999 0
M  V30 37 C -4.833991 -1.075246 -0.436863 0
M  V30 38 H 1.081999 -2.304288 5.686231 0
M  V30 39 H 0.456531 -3.575546 4.652319 0
M  V30 40 H -0.360245 -1.902440 4.763619 0
M  V30 41 H 2.426267 -2.340689 3.550138 0
M  V30 42 H 1.369022 0.498930 5.715882 0
M  V30 43 H 1.523432 2.733736 1.033982 0
M  V30 44 H 6.148763 2.977433 0.718707 0
M  V30 45 H 7.161822 4.323230 -0.985805 0
M  V30 46 H 5.775841 5.614606 -2.619920 0
M  V30 47 H 3.332813 5.457649 -2.420658 0
M  V30 48 H 2.746067 -1.770133 1.772958 0
M  V30 49 H 1.680828 -0.910867 0.672453 0
M  V30 50 H -1.887541 -1.532872 -0.969601 0
M  V30 51 H -0.164131 -1.371069 -0.676652 0
M  V30 52 H 0.292425 -3.561646 -1.586550 0
M  V30 53 H -0.192582 -2.244824 -3.486780 0
M  V30 54 H -1.963551 -2.054071 -3.004406 0
M  V30 55 H -1.939336 -3.892390 -4.601788 0
M  V30 56 H -0.356252 -4.481203 -3.950737 0
M  V30 57 H -1.764576 -5.931687 -2.759771 0
M  V30 58 H -3.114005 -4.749996 -2.796548 0
M  V30 59 H -3.399573 -3.300710 -1.261565 0
M  V30 60 H -3.365427 -4.914897 -0.513728 0
M  V30 61 H -2.338206 -4.213667 1.412783 0
M  V30 62 H -4.540449 -3.257970 1.217104 0
M  V30 63 H -3.527754 -2.417878 2.378285 0
M  V30 64 H -2.601198 -0.162438 1.979189 0
M  V30 65 H -3.066695 1.977950 1.001435 0
M  V30 66 H -4.608084 2.255656 -0.851220 0
M  V30 67 H -5.743346 0.279824 -1.771692 0
M  V30 68 H -5.323439 -1.957744 -0.824153 0
M  V30 END ATOM
M  V30 BEGIN BOND
M  V30 1 1 1 2
M  V30 2 1 2 3
M  V30 3 1 3 4
M  V30 4 1 4 5
M  V30 5 2 5 6
M  V30 6 1 6 7
M  V30 7 1 7 8
M  V30 8 2 8 9
M  V30 9 1 8 10
M  V30 10 2 10 11
M  V30 11 1 11 12
M  V30 12 2 12 13
M  V30 13 1 13 14
M  V30 14 2 14 15
M  V30 15 1 15 16
M  V30 16 1 6 17
M  V30 17 1 17 18
M  V30 18 1 18 19
M  V30 19 1 19 20
M  V30 20 2 20 21
M  V30 21 1 20 22
M  V30 22 1 22 23
M  V30 23 1 23 24
M  V30 24 1 24 25
M  V30 25 1 25 26
M  V30 26 1 26 27
M  V30 27 1 27 28
M  V30 28 1 28 29
M  V30 29 1 29 30
M  V30 30 1 30 31
M  V30 31 1 31 32
M  V30 32 2 32 33
M  V30 33 1 33 34
M  V30 34 2 34 35
M  V30 35 1 35 36
M  V30 36 2 36 37
M  V30 37 1 19 2
M  V30 38 1 30 22
M  V30 39 1 37 32
M  V30 40 2 17 3
M  V30 41 1 28 24
M  V30 42 1 15 10
M  V30 43 1 1 38
M  V30 44 1 1 39
M  V30 45 1 1 40
M  V30 46 1 2 41
M  V30 47 1 4 42
M  V30 48 1 7 43
M  V30 49 1 11 44
M  V30 50 1 12 45
M  V30 51 1 13 46
M  V30 52 1 14 47
M  V30 53 1 18 48
M  V30 54 1 18 49
M  V30 55 1 23 50
M  V30 56 1 23 51
M  V30 57 1 24 52 CFG=3
M  V30 58 1 25 53
M  V30 59 1 25 54
M  V30 60 1 26 55
M  V30 61 1 26 56
M  V30 62 1 27 57
M  V30 63 1 27 58
M  V30 64 1 29 59
M  V30 65 1 29 60
M  V30 66 1 30 61 CFG=1
M  V30 67 1 31 62
M  V30 68 1 31 63
M  V30 69 1 33 64
M  V30 70 1 34 65
M  V30 71 1 35 66
M  V30 72 1 36 67
M  V30 73 1 37 68
M  V30 END BOND
M  V30 END CTAB
M  END
>  <Dataset>  (487) 
ChEMBL_Kinases

>  <Ligand_Instance>  (487) 
nan

>  <PDB_ID>  (487) 
nan

>  <Standardized_SMILES>  (487) 
CC1c2[nH]nc(NC(=O)c3ccccc3F)c2CN1C(=O)N1C[C@@H]2CCCN2C[C@@H]1Cc1ccccc1

>  <Name>  (487) 
nan

>  <Pocket>  (487) 
nan

>  <ATP_Site>  (487) 
nan

>  <Peripheral>  (487) 
nan

>  <Num_H_Atoms_ProtBoundConf>  (487) 
nan

>  <Num_Resolved_Atoms>  (487) 
nan

>  <Num_Not_Resolved_Atoms>  (487) 
nan

$$$$
CHEMBL3949614
     RDKit          3D

  0  0  0  0  0  0  0  0  0  0999 V3000
M  V30 BEGIN CTAB
M  V30 COUNTS 43 47 0 0 0
M  V30 BEGIN ATOM
M  V30 1 O 4.431779 -0.618688 0.720996 0
M  V30 2 C 3.299250 -1.076130 0.404188 0
M  V30 3 N 3.387691 -2.200814 -0.444080 0
M  V30 4 C 4.611407 -2.793937 -0.919844 0
M  V30 5 C 5.056797 -2.258071 -2.117572 0
M  V30 6 C 6.224981 -2.760368 -2.658844 0
M  V30 7 C 6.913525 -3.765654 -2.011243 0
M  V30 8 O 8.103389 -4.282798 -2.555006 0
M  V30 9 C 6.435417 -4.272797 -0.818328 0
M  V30 10 C 5.257358 -3.797721 -0.229605 0
M  V30 11 C 2.005003 -0.552745 0.829178 0
M  V30 12 C 0.753621 -1.030996 0.499666 0
M  V30 13 C -0.377461 -0.415253 0.990145 0
M  V30 14 C -0.348834 0.683311 1.815774 0
M  V30 15 C -1.355355 1.418347 2.392992 0
M  V30 16 C -2.799153 1.312504 2.348262 0
M  V30 17 N -3.577133 2.179026 3.018922 0
M  V30 18 C -4.874313 1.908568 2.846830 0
M  V30 19 C -6.014866 2.514984 3.330591 0
M  V30 20 C -7.229229 1.970712 2.950514 0
M  V30 21 F -8.349515 2.567716 3.426674 0
M  V30 22 C -7.332075 0.865360 2.121488 0
M  V30 23 F -8.529895 0.337868 1.753642 0
M  V30 24 C -6.168648 0.260850 1.638608 0
M  V30 25 C -4.965742 0.811555 2.023804 0
M  V30 26 N -3.686417 0.509051 1.765309 0
M  V30 27 N -0.649683 2.357085 3.082070 0
M  V30 28 N 0.646224 2.195036 2.928862 0
M  V30 29 C 0.910385 1.144736 2.132433 0
M  V30 30 C 2.061117 0.550548 1.657700 0
M  V30 31 H 2.545471 -2.702427 -0.801102 0
M  V30 32 H 4.537921 -1.471742 -2.644822 0
M  V30 33 H 6.641773 -2.389024 -3.602346 0
M  V30 34 H 8.411546 -3.932477 -3.450862 0
M  V30 35 H 6.946817 -5.069542 -0.269073 0
M  V30 36 H 4.849221 -4.162560 0.695952 0
M  V30 37 H 0.755188 -1.894335 -0.149739 0
M  V30 38 H -1.312099 -0.846039 0.688685 0
M  V30 39 H -5.956596 3.374405 3.975694 0
M  V30 40 H -6.158167 -0.603368 0.988260 0
M  V30 41 H -3.443615 -0.289565 1.158676 0
M  V30 42 H 1.338587 2.827108 3.387574 0
M  V30 43 H 2.979294 1.018897 1.987767 0
M  V30 END ATOM
M  V30 BEGIN BOND
M  V30 1 2 1 2
M  V30 2 1 2 3
M  V30 3 1 3 4
M  V30 4 2 4 5
M  V30 5 1 5 6
M  V30 6 2 6 7
M  V30 7 1 7 8
M  V30 8 1 7 9
M  V30 9 2 9 10
M  V30 10 1 2 11
M  V30 11 2 11 12
M  V30 12 1 12 13
M  V30 13 2 13 14
M  V30 14 1 14 15
M  V30 15 1 15 16
M  V30 16 2 16 17
M  V30 17 1 17 18
M  V30 18 2 18 19
M  V30 19 1 19 20
M  V30 20 1 20 21
M  V30 21 2 20 22
M  V30 22 1 22 23
M  V30 23 1 22 24
M  V30 24 2 24 25
M  V30 25 1 25 26
M  V30 26 2 15 27
M  V30 27 1 27 28
M  V30 28 1 28 29
M  V30 29 2 29 30
M  V30 30 1 10 4
M  V30 31 1 30 11
M  V30 32 1 29 14
M  V30 33 1 26 16
M  V30 34 1 25 18
M  V30 35 1 3 31
M  V30 36 1 5 32
M  V30 37 1 6 33
M  V30 38 1 8 34
M  V30 39 1 9 35
M  V30 40 1 10 36
M  V30 41 1 12 37
M  V30 42 1 13 38
M  V30 43 1 19 39
M  V30 44 1 24 40
M  V30 45 1 26 41
M  V30 46 1 28 42
M  V30 47 1 30 43
M  V30 END BOND
M  V30 END CTAB
M  END
>  <Dataset>  (488) 
ChEMBL_Kinases

>  <Ligand_Instance>  (488) 
nan

>  <PDB_ID>  (488) 
nan

>  <Standardized_SMILES>  (488) 
O=C(Nc1ccc(O)cc1)c1ccc2c(-c3nc4cc(F)c(F)cc4[nH]3)n[nH]c2c1

>  <Name>  (488) 
nan

>  <Pocket>  (488) 
nan

>  <ATP_Site>  (488) 
nan

>  <Peripheral>  (488) 
nan

>  <Num_H_Atoms_ProtBoundConf>  (488) 
nan

>  <Num_Resolved_Atoms>  (488) 
nan

>  <Num_Not_Resolved_Atoms>  (488) 
nan

$$$$
CHEMBL3949606
     RDKit          3D

  0  0  0  0  0  0  0  0  0  0999 V3000
M  V30 BEGIN CTAB
M  V30 COUNTS 66 70 0 0 0
M  V30 BEGIN ATOM
M  V30 1 C 8.138120 1.012702 6.774360 0
M  V30 2 N 7.389919 -0.020412 7.461215 0
M  V30 3 C 6.149720 -0.527584 6.989570 0
M  V30 4 N 5.492384 -1.503921 7.678743 0
M  V30 5 C 4.327383 -2.008355 7.271504 0
M  V30 6 C 3.786810 -1.511360 6.111367 0
M  V30 7 C 4.409349 -0.533798 5.388358 0
M  V30 8 C 3.822429 -0.016548 4.157532 0
M  V30 9 C 2.625766 -0.439219 3.609731 0
M  V30 10 C 2.451966 0.304913 2.457930 0
M  V30 11 C 1.430231 0.286720 1.532941 0
M  V30 12 C 1.404005 1.103155 0.420565 0
M  V30 13 C 0.344963 1.121555 -0.589683 0
M  V30 14 O 0.411531 1.914487 -1.590294 0
M  V30 15 N -0.772221 0.252592 -0.465691 0
M  V30 16 C -1.907360 0.153119 -1.391057 0 CFG=1
M  V30 17 C -1.946343 -1.295136 -1.822720 0
M  V30 18 N -2.982619 -1.642251 -2.737283 0
M  V30 19 C -3.211829 -1.249381 -4.060946 0
M  V30 20 C -4.315949 -1.651157 -4.817297 0
M  V30 21 C -4.525915 -1.277357 -6.118356 0
M  V30 22 C -3.631013 -0.463218 -6.760857 0
M  V30 23 C -2.516615 -0.026264 -6.079152 0
M  V30 24 C -2.358320 -0.434833 -4.773297 0
M  V30 25 C -3.966163 -2.567442 -2.238314 0
M  V30 26 C -3.508234 -3.859532 -2.512832 0
M  V30 27 C -4.257341 -4.979724 -2.146052 0
M  V30 28 C -5.476591 -4.812679 -1.498510 0
M  V30 29 C -5.882855 -3.507130 -1.251028 0
M  V30 30 N -5.144583 -2.450993 -1.613593 0
M  V30 31 C -3.172246 0.488374 -0.713382 0
M  V30 32 O -2.733466 0.699067 0.448292 0
M  V30 33 O -4.452545 0.556449 -1.190123 0
M  V30 34 C -5.460268 0.921380 -0.237164 0
M  V30 35 C 2.476421 1.967795 0.264985 0
M  V30 36 C 3.502534 1.988440 1.190895 0
M  V30 37 C 3.512075 1.164678 2.297190 0
M  V30 38 N 4.330129 0.937199 3.359280 0
M  V30 39 N 5.577703 -0.069404 5.851880 0
M  V30 40 H 8.164204 1.887555 7.459329 0
M  V30 41 H 9.159310 0.619660 6.590374 0
M  V30 42 H 7.638013 1.344363 5.841085 0
M  V30 43 H 7.786449 -0.397217 8.331698 0
M  V30 44 H 3.790413 -2.779898 7.799033 0
M  V30 45 H 2.849738 -1.903073 5.764211 0
M  V30 46 H 1.943539 -1.194357 3.982186 0
M  V30 47 H 0.620914 -0.384045 1.674739 0
M  V30 48 H -0.897521 -0.421390 0.322038 0
M  V30 49 H -1.801425 0.857611 -2.226782 0
M  V30 50 H -1.922732 -1.980183 -0.942758 0
M  V30 51 H -0.978906 -1.565114 -2.361113 0
M  V30 52 H -5.053553 -2.297806 -4.350396 0
M  V30 53 H -5.401920 -1.631214 -6.628741 0
M  V30 54 H -3.833054 -0.193753 -7.780807 0
M  V30 55 H -1.844074 0.603890 -6.609290 0
M  V30 56 H -1.461080 -0.053620 -4.334848 0
M  V30 57 H -2.595651 -4.182787 -3.002417 0
M  V30 58 H -3.992422 -6.003224 -2.311844 0
M  V30 59 H -6.137673 -5.596397 -1.169661 0
M  V30 60 H -6.805855 -3.202284 -0.756467 0
M  V30 61 H -5.545626 0.154101 0.539935 0
M  V30 62 H -5.222594 1.897492 0.206641 0
M  V30 63 H -6.423741 1.014330 -0.761858 0
M  V30 64 H 2.583558 2.665840 -0.565577 0
M  V30 65 H 4.355274 2.670014 1.074624 0
M  V30 66 H 5.222236 1.472279 3.475196 0
M  V30 END ATOM
M  V30 BEGIN BOND
M  V30 1 1 1 2
M  V30 2 1 2 3
M  V30 3 2 3 4
M  V30 4 1 4 5
M  V30 5 2 5 6
M  V30 6 1 6 7
M  V30 7 1 7 8
M  V30 8 2 8 9
M  V30 9 1 9 10
M  V30 10 2 10 11
M  V30 11 1 11 12
M  V30 12 1 12 13
M  V30 13 2 13 14
M  V30 14 1 13 15
M  V30 15 1 15 16
M  V30 16 1 16 17
M  V30 17 1 17 18
M  V30 18 1 18 19
M  V30 19 2 19 20
M  V30 20 1 20 21
M  V30 21 2 21 22
M  V30 22 1 22 23
M  V30 23 2 23 24
M  V30 24 1 18 25
M  V30 25 2 25 26
M  V30 26 1 26 27
M  V30 27 2 27 28
M  V30 28 1 28 29
M  V30 29 2 29 30
M  V30 30 1 16 31
M  V30 31 2 31 32
M  V30 32 1 31 33
M  V30 33 1 33 34
M  V30 34 2 12 35
M  V30 35 1 35 36
M  V30 36 2 36 37
M  V30 37 1 37 38
M  V30 38 2 7 39
M  V30 39 1 39 3
M  V30 40 1 38 8
M  V30 41 1 37 10
M  V30 42 1 24 19
M  V30 43 1 30 25
M  V30 44 1 1 40
M  V30 45 1 1 41
M  V30 46 1 1 42
M  V30 47 1 2 43
M  V30 48 1 5 44
M  V30 49 1 6 45
M  V30 50 1 9 46
M  V30 51 1 11 47
M  V30 52 1 15 48
M  V30 53 1 16 49 CFG=3
M  V30 54 1 17 50
M  V30 55 1 17 51
M  V30 56 1 20 52
M  V30 57 1 21 53
M  V30 58 1 22 54
M  V30 59 1 23 55
M  V30 60 1 24 56
M  V30 61 1 26 57
M  V30 62 1 27 58
M  V30 63 1 28 59
M  V30 64 1 29 60
M  V30 65 1 34 61
M  V30 66 1 34 62
M  V30 67 1 34 63
M  V30 68 1 35 64
M  V30 69 1 36 65
M  V30 70 1 38 66
M  V30 END BOND
M  V30 END CTAB
M  END
>  <Dataset>  (489) 
ChEMBL_Kinases

>  <Ligand_Instance>  (489) 
nan

>  <PDB_ID>  (489) 
nan

>  <Standardized_SMILES>  (489) 
CNc1nccc(-c2cc3cc(C(=O)N[C@@H](CN(c4ccccc4)c4ccccn4)C(=O)OC)ccc3[nH]2)n1

>  <Name>  (489) 
nan

>  <Pocket>  (489) 
nan

>  <ATP_Site>  (489) 
nan

>  <Peripheral>  (489) 
nan

>  <Num_H_Atoms_ProtBoundConf>  (489) 
nan

>  <Num_Resolved_Atoms>  (489) 
nan

>  <Num_Not_Resolved_Atoms>  (489) 
nan

$$$$
CHEMBL3949419
     RDKit          3D

  0  0  0  0  0  0  0  0  0  0999 V3000
M  V30 BEGIN CTAB
M  V30 COUNTS 54 57 0 0 0
M  V30 BEGIN ATOM
M  V30 1 O -2.437701 0.212521 3.417304 0
M  V30 2 C -1.929494 -0.894430 3.063700 0
M  V30 3 O -1.851827 -1.917074 4.002204 0
M  V30 4 C -1.390668 -1.213393 1.688371 0 CFG=2
M  V30 5 C 0.098477 -1.495406 1.881929 0
M  V30 6 C 0.791982 -0.301920 2.454748 0
M  V30 7 C 0.957154 -0.076782 3.802109 0
M  V30 8 C 1.605283 1.044683 4.274625 0
M  V30 9 C 2.123780 2.001397 3.417946 0
M  V30 10 C 1.914106 1.698977 2.080540 0
M  V30 11 N 2.348113 2.558713 1.003904 0
M  V30 12 C 3.794622 2.641092 0.640042 0
M  V30 13 N 4.413258 3.519272 0.938972 0
M  V30 14 C 5.654812 3.887204 0.793088 0
M  V30 15 C 6.362328 2.941988 0.091898 0
M  V30 16 S 5.079127 1.582935 -0.281739 0
M  V30 17 N 1.285708 0.613482 1.600029 0
M  V30 18 C -1.530491 -0.059864 0.768383 0
M  V30 19 C -2.641299 -0.006556 -0.180533 0
M  V30 20 C -3.379692 -1.234540 -0.524875 0 CFG=1
M  V30 21 S -3.230376 -1.819301 -2.189725 0
M  V30 22 O -3.298459 -0.596850 -3.138499 0
M  V30 23 O -4.419986 -2.648049 -2.610126 0
M  V30 24 C -1.780034 -2.682439 -2.508444 0
M  V30 25 C -1.931251 -4.080305 -2.647669 0
M  V30 26 C -0.935389 -5.017904 -2.870278 0
M  V30 27 C 0.358599 -4.553275 -2.971492 0
M  V30 28 C 0.602001 -3.207708 -2.849698 0
M  V30 29 Cl 2.210260 -2.567588 -2.965490 0
M  V30 30 C -0.456534 -2.368343 -2.631446 0
M  V30 31 Cl -0.133394 -0.670766 -2.556845 0
M  V30 32 C -3.331873 -2.259772 0.522682 0
M  V30 33 C -2.016004 -2.477176 1.209266 0
M  V30 34 H -1.873531 -1.698717 4.982407 0
M  V30 35 H 0.276632 -2.350562 2.566553 0
M  V30 36 H 0.580275 -1.693932 0.902115 0
M  V30 37 H 0.581351 -0.788475 4.511093 0
M  V30 38 H 1.744685 1.238572 5.342032 0
M  V30 39 H 2.640294 2.902911 3.673091 0
M  V30 40 H 1.758146 3.165736 0.401820 0
M  V30 41 H 6.415717 4.624646 0.975846 0
M  V30 42 H 7.413594 2.502026 -0.430642 0
M  V30 43 H -0.566372 0.047215 0.221459 0
M  V30 44 H -1.614418 0.860337 1.445585 0
M  V30 45 H -2.292096 0.543089 -1.117851 0
M  V30 46 H -3.409750 0.730248 0.250142 0
M  V30 47 H -4.498667 -0.861471 -0.522208 0
M  V30 48 H -2.922477 -4.555031 -2.584008 0
M  V30 49 H -1.136440 -6.067985 -2.969068 0
M  V30 50 H 1.191749 -5.208919 -3.148858 0
M  V30 51 H -4.070550 -2.016389 1.322483 0
M  V30 52 H -3.640349 -3.250727 0.120054 0
M  V30 53 H -1.340305 -3.118551 0.606782 0
M  V30 54 H -2.251666 -3.080297 2.134989 0
M  V30 END ATOM
M  V30 BEGIN BOND
M  V30 1 2 1 2
M  V30 2 1 2 3
M  V30 3 1 2 4
M  V30 4 1 4 5 CFG=1
M  V30 5 1 5 6
M  V30 6 2 6 7
M  V30 7 1 7 8
M  V30 8 2 8 9
M  V30 9 1 9 10
M  V30 10 1 10 11
M  V30 11 1 11 12
M  V30 12 2 12 13
M  V30 13 1 13 14
M  V30 14 2 14 15
M  V30 15 1 15 16
M  V30 16 2 10 17
M  V30 17 1 4 18
M  V30 18 1 18 19
M  V30 19 1 19 20
M  V30 20 1 20 21
M  V30 21 2 21 22
M  V30 22 2 21 23
M  V30 23 1 21 24
M  V30 24 2 24 25
M  V30 25 1 25 26
M  V30 26 2 26 27
M  V30 27 1 27 28
M  V30 28 1 28 29
M  V30 29 2 28 30
M  V30 30 1 30 31
M  V30 31 1 20 32
M  V30 32 1 32 33
M  V30 33 1 33 4
M  V30 34 1 17 6
M  V30 35 1 30 24
M  V30 36 1 16 12
M  V30 37 1 3 34
M  V30 38 1 5 35
M  V30 39 1 5 36
M  V30 40 1 7 37
M  V30 41 1 8 38
M  V30 42 1 9 39
M  V30 43 1 11 40
M  V30 44 1 14 41
M  V30 45 1 15 42
M  V30 46 1 18 43
M  V30 47 1 18 44
M  V30 48 1 19 45
M  V30 49 1 19 46
M  V30 50 1 20 47 CFG=3
M  V30 51 1 25 48
M  V30 52 1 26 49
M  V30 53 1 27 50
M  V30 54 1 32 51
M  V30 55 1 32 52
M  V30 56 1 33 53
M  V30 57 1 33 54
M  V30 END BOND
M  V30 END CTAB
M  END
>  <Dataset>  (490) 
ChEMBL_Kinases

>  <Ligand_Instance>  (490) 
nan

>  <PDB_ID>  (490) 
nan

>  <Standardized_SMILES>  (490) 
O=C(O)[C@]1(Cc2cccc(Nc3nccs3)n2)CC[C@@H](S(=O)(=O)c2cccc(Cl)c2Cl)CC1

>  <Name>  (490) 
nan

>  <Pocket>  (490) 
nan

>  <ATP_Site>  (490) 
nan

>  <Peripheral>  (490) 
nan

>  <Num_H_Atoms_ProtBoundConf>  (490) 
nan

>  <Num_Resolved_Atoms>  (490) 
nan

>  <Num_Not_Resolved_Atoms>  (490) 
nan

$$$$
CHEMBL3949385
     RDKit          3D

  0  0  0  0  0  0  0  0  0  0999 V3000
M  V30 BEGIN CTAB
M  V30 COUNTS 39 42 0 0 0
M  V30 BEGIN ATOM
M  V30 1 N -0.857316 -7.665291 2.381933 0
M  V30 2 C -0.034308 -7.430669 1.266176 0
M  V30 3 O 0.382806 -8.471996 0.723811 0
M  V30 4 C 0.271521 -6.076577 0.826323 0
M  V30 5 C 1.091255 -6.003869 -0.279365 0
M  V30 6 C 1.419978 -4.738766 -0.748256 0
M  V30 7 C 0.901868 -3.629807 -0.073268 0
M  V30 8 N 1.083345 -2.321268 -0.344746 0
M  V30 9 C 0.390835 -1.623753 0.573615 0
M  V30 10 C 0.316302 -0.167678 0.643828 0
M  V30 11 C 0.989907 0.590589 -0.279280 0
M  V30 12 C 0.916999 1.983354 -0.209882 0
M  V30 13 C 0.168566 2.620229 0.785164 0
M  V30 14 C 0.114094 4.092746 0.827769 0
M  V30 15 C -0.093599 4.701422 -0.397839 0
M  V30 16 C -0.153554 6.086179 -0.414332 0
M  V30 17 C -0.016836 6.863853 0.721319 0
M  V30 18 C 0.191121 6.203818 1.934511 0
M  V30 19 C 0.255922 4.830669 1.986663 0
M  V30 20 Cl 0.516796 3.977549 3.500027 0
M  V30 21 C -0.495937 1.812469 1.696933 0
M  V30 22 C -0.429598 0.436500 1.636033 0
M  V30 23 N -0.215847 -2.493377 1.408811 0
M  V30 24 C 0.073938 -3.756655 1.044625 0
M  V30 25 C -0.258013 -5.012025 1.517686 0
M  V30 26 H -1.411621 -7.423401 3.231484 0
M  V30 27 H -1.463369 -7.821007 3.207672 0
M  V30 28 H 1.443534 -6.912199 -0.735036 0
M  V30 29 H 2.058592 -4.636369 -1.610559 0
M  V30 30 H 1.639611 -1.891625 -1.102980 0
M  V30 31 H 1.587823 0.166366 -1.075823 0
M  V30 32 H 1.445822 2.589954 -0.934936 0
M  V30 33 H -0.209874 4.176996 -1.325115 0
M  V30 34 H -0.317557 6.596815 -1.374047 0
M  V30 35 H -0.070885 7.941962 0.659215 0
M  V30 36 H 0.303857 6.749404 2.844540 0
M  V30 37 H -1.082522 2.276425 2.477328 0
M  V30 38 H -0.974902 -0.142561 2.382424 0
M  V30 39 H -0.891789 -5.119210 2.373685 0
M  V30 END ATOM
M  V30 BEGIN BOND
M  V30 1 1 1 2
M  V30 2 2 2 3
M  V30 3 1 2 4
M  V30 4 2 4 5
M  V30 5 1 5 6
M  V30 6 2 6 7
M  V30 7 1 7 8
M  V30 8 1 8 9
M  V30 9 1 9 10
M  V30 10 2 10 11
M  V30 11 1 11 12
M  V30 12 2 12 13
M  V30 13 1 13 14
M  V30 14 2 14 15
M  V30 15 1 15 16
M  V30 16 2 16 17
M  V30 17 1 17 18
M  V30 18 2 18 19
M  V30 19 1 19 20
M  V30 20 1 13 21
M  V30 21 2 21 22
M  V30 22 2 9 23
M  V30 23 1 23 24
M  V30 24 2 24 25
M  V30 25 1 25 4
M  V30 26 1 24 7
M  V30 27 1 22 10
M  V30 28 1 19 14
M  V30 29 1 1 26
M  V30 30 1 1 27
M  V30 31 1 5 28
M  V30 32 1 6 29
M  V30 33 1 8 30
M  V30 34 1 11 31
M  V30 35 1 12 32
M  V30 36 1 15 33
M  V30 37 1 16 34
M  V30 38 1 17 35
M  V30 39 1 18 36
M  V30 40 1 21 37
M  V30 41 1 22 38
M  V30 42 1 25 39
M  V30 END BOND
M  V30 END CTAB
M  END
>  <Dataset>  (491) 
ChEMBL_Kinases

>  <Ligand_Instance>  (491) 
nan

>  <PDB_ID>  (491) 
nan

>  <Standardized_SMILES>  (491) 
NC(=O)c1ccc2[nH]c(-c3ccc(-c4ccccc4Cl)cc3)nc2c1

>  <Name>  (491) 
nan

>  <Pocket>  (491) 
nan

>  <ATP_Site>  (491) 
nan

>  <Peripheral>  (491) 
nan

>  <Num_H_Atoms_ProtBoundConf>  (491) 
nan

>  <Num_Resolved_Atoms>  (491) 
nan

>  <Num_Not_Resolved_Atoms>  (491) 
nan

$$$$
CHEMBL394926
     RDKit          3D

  0  0  0  0  0  0  0  0  0  0999 V3000
M  V30 BEGIN CTAB
M  V30 COUNTS 46 49 0 0 0
M  V30 BEGIN ATOM
M  V30 1 C 2.078521 -8.014713 -3.705876 0
M  V30 2 O 2.213197 -6.733493 -3.126135 0
M  V30 3 C 1.562975 -5.595974 -3.568671 0
M  V30 4 O 0.818201 -5.839119 -4.573075 0
M  V30 5 C 1.737110 -4.301778 -2.935658 0
M  V30 6 C 2.590986 -4.199944 -1.841095 0
M  V30 7 C 2.737363 -2.949825 -1.256710 0
M  V30 8 C 2.033477 -1.887943 -1.790208 0
M  V30 9 N 2.164279 -0.575241 -1.205028 0
M  V30 10 C 1.188449 -0.421373 -0.200748 0
M  V30 11 O 0.461885 -1.453184 -0.071875 0
M  V30 12 C 1.035536 0.806521 0.606490 0
M  V30 13 C 1.823179 1.930613 0.469808 0
M  V30 14 C 1.575664 3.015344 1.289047 0
M  V30 15 C 0.577836 3.028651 2.238159 0
M  V30 16 N 0.115766 3.909503 3.149846 0
M  V30 17 C -0.910100 3.359108 3.821102 0
M  V30 18 C -1.153546 2.066526 3.353128 0
M  V30 19 C -0.209688 1.879436 2.361166 0
M  V30 20 C 0.019136 0.775291 1.549090 0
M  V30 21 C -2.222855 1.195900 3.892478 0
M  V30 22 C -3.462978 1.464104 3.049468 0
M  V30 23 C -2.582736 1.591340 5.310001 0
M  V30 24 N -2.802560 3.032404 5.431111 0
M  V30 25 C -1.761525 3.860579 4.895508 0
M  V30 26 O -1.609808 5.029892 5.383530 0
M  V30 27 C 1.188362 -2.009422 -2.880204 0
M  V30 28 N 1.059854 -3.247358 -3.438447 0
M  V30 29 H 3.092585 -8.485812 -3.864747 0
M  V30 30 H 1.492764 -8.641348 -2.986327 0
M  V30 31 H 1.495212 -7.986696 -4.653893 0
M  V30 32 H 3.098150 -5.089716 -1.496830 0
M  V30 33 H 3.398912 -2.841055 -0.399074 0
M  V30 34 H 2.831646 0.225293 -1.402883 0
M  V30 35 H 2.603295 1.911040 -0.277176 0
M  V30 36 H 2.198946 3.890404 1.173079 0
M  V30 37 H 0.518502 4.859080 3.282283 0
M  V30 38 H -0.608506 -0.105367 1.666144 0
M  V30 39 H -1.962817 0.137064 3.903692 0
M  V30 40 H -4.213014 0.655254 3.110693 0
M  V30 41 H -3.115166 1.655855 2.020720 0
M  V30 42 H -3.899116 2.418451 3.428050 0
M  V30 43 H -3.527066 1.031692 5.553851 0
M  V30 44 H -1.813261 1.219253 6.012440 0
M  V30 45 H -3.633045 3.525498 5.864109 0
M  V30 46 H 0.664294 -1.141205 -3.252435 0
M  V30 END ATOM
M  V30 BEGIN BOND
M  V30 1 1 1 2
M  V30 2 1 2 3
M  V30 3 2 3 4
M  V30 4 1 3 5
M  V30 5 2 5 6
M  V30 6 1 6 7
M  V30 7 2 7 8
M  V30 8 1 8 9
M  V30 9 1 9 10
M  V30 10 2 10 11
M  V30 11 1 10 12
M  V30 12 2 12 13
M  V30 13 1 13 14
M  V30 14 2 14 15
M  V30 15 1 15 16
M  V30 16 1 16 17
M  V30 17 2 17 18
M  V30 18 1 18 19
M  V30 19 2 19 20
M  V30 20 1 18 21
M  V30 21 1 21 22
M  V30 22 1 21 23
M  V30 23 1 23 24
M  V30 24 1 24 25
M  V30 25 2 25 26
M  V30 26 1 8 27
M  V30 27 2 27 28
M  V30 28 1 28 5
M  V30 29 1 20 12
M  V30 30 1 19 15
M  V30 31 1 25 17
M  V30 32 1 1 29
M  V30 33 1 1 30
M  V30 34 1 1 31
M  V30 35 1 6 32
M  V30 36 1 7 33
M  V30 37 1 9 34
M  V30 38 1 13 35
M  V30 39 1 14 36
M  V30 40 1 16 37
M  V30 41 1 20 38
M  V30 42 1 21 39
M  V30 43 1 22 40
M  V30 44 1 22 41
M  V30 45 1 22 42
M  V30 46 1 23 43
M  V30 47 1 23 44
M  V30 48 1 24 45
M  V30 49 1 27 46
M  V30 END BOND
M  V30 END CTAB
M  END
>  <Dataset>  (492) 
ChEMBL_Kinases

>  <Ligand_Instance>  (492) 
nan

>  <PDB_ID>  (492) 
nan

>  <Standardized_SMILES>  (492) 
COC(=O)c1ccc(NC(=O)c2ccc3[nH]c4c(c3c2)C(C)CNC4=O)cn1

>  <Name>  (492) 
nan

>  <Pocket>  (492) 
nan

>  <ATP_Site>  (492) 
nan

>  <Peripheral>  (492) 
nan

>  <Num_H_Atoms_ProtBoundConf>  (492) 
nan

>  <Num_Resolved_Atoms>  (492) 
nan

>  <Num_Not_Resolved_Atoms>  (492) 
nan

$$$$
CHEMBL3949218
     RDKit          3D

  0  0  0  0  0  0  0  0  0  0999 V3000
M  V30 BEGIN CTAB
M  V30 COUNTS 41 43 0 0 0
M  V30 BEGIN ATOM
M  V30 1 C 2.336779 -4.126427 3.955131 0
M  V30 2 O 0.986042 -4.109253 3.590560 0
M  V30 3 C 0.600327 -3.540995 2.395251 0
M  V30 4 C 1.471439 -2.953896 1.467585 0
M  V30 5 C 1.023495 -2.404356 0.290349 0
M  V30 6 C -0.314445 -2.399091 -0.048840 0
M  V30 7 C -0.904529 -1.842346 -1.254051 0
M  V30 8 C -0.528215 -0.683989 -1.758978 0
M  V30 9 S 0.691052 0.583790 -1.298665 0
M  V30 10 C -0.304500 1.942551 -1.973483 0
M  V30 11 N -0.482649 3.151060 -1.660926 0
M  V30 12 C 0.122164 3.861402 -0.559796 0
M  V30 13 C 0.690946 2.993151 0.491322 0
M  V30 14 C 1.984088 2.513216 0.534854 0
M  V30 15 C 2.422565 1.709763 1.564029 0
M  V30 16 C 1.565009 1.368088 2.580836 0
M  V30 17 C 0.268341 1.803853 2.609872 0
M  V30 18 C -0.134257 2.610234 1.555581 0
M  V30 19 N -0.959673 1.315171 -3.072665 0
M  V30 20 C -1.090013 -0.072354 -2.982266 0
M  V30 21 O -1.652153 -0.804333 -3.875661 0
M  V30 22 C -1.180061 -2.970210 0.849034 0
M  V30 23 C -0.716153 -3.512441 2.017460 0
M  V30 24 N -1.638621 -4.095313 2.938357 0 CHG=1 VAL=4
M  V30 25 O -2.812311 -4.041190 3.322232 0
M  V30 26 O -1.352526 -5.112329 3.845629 0 CHG=-1 VAL=1
M  V30 27 H 2.842932 -5.023623 3.545313 0
M  V30 28 H 2.867883 -3.212406 3.690694 0
M  V30 29 H 2.376883 -4.239772 5.060373 0
M  V30 30 H 2.515021 -2.944631 1.701388 0
M  V30 31 H 1.695958 -1.954031 -0.422720 0
M  V30 32 H -1.683545 -2.401625 -1.755139 0
M  V30 33 H -0.702457 4.471813 -0.089066 0
M  V30 34 H 0.841829 4.629209 -0.922351 0
M  V30 35 H 2.555933 2.861505 -0.335836 0
M  V30 36 H 3.440618 1.396547 1.496150 0
M  V30 37 H 1.912423 0.736045 3.390469 0
M  V30 38 H -0.452023 1.572101 3.375976 0
M  V30 39 H -1.166157 2.967478 1.560185 0
M  V30 40 H -1.328283 1.864439 -3.909738 0
M  V30 41 H -2.256321 -3.002857 0.646633 0
M  V30 END ATOM
M  V30 BEGIN BOND
M  V30 1 1 1 2
M  V30 2 1 2 3
M  V30 3 2 3 4
M  V30 4 1 4 5
M  V30 5 2 5 6
M  V30 6 1 6 7
M  V30 7 2 7 8
M  V30 8 1 8 9
M  V30 9 1 9 10
M  V30 10 2 10 11
M  V30 11 1 11 12
M  V30 12 1 12 13
M  V30 13 2 13 14
M  V30 14 1 14 15
M  V30 15 2 15 16
M  V30 16 1 16 17
M  V30 17 2 17 18
M  V30 18 1 10 19
M  V30 19 1 19 20
M  V30 20 2 20 21
M  V30 21 1 6 22
M  V30 22 2 22 23
M  V30 23 1 23 24
M  V30 24 2 24 25
M  V30 25 1 24 26
M  V30 26 1 23 3
M  V30 27 1 20 8
M  V30 28 1 18 13
M  V30 29 1 1 27
M  V30 30 1 1 28
M  V30 31 1 1 29
M  V30 32 1 4 30
M  V30 33 1 5 31
M  V30 34 1 7 32
M  V30 35 1 12 33
M  V30 36 1 12 34
M  V30 37 1 14 35
M  V30 38 1 15 36
M  V30 39 1 16 37
M  V30 40 1 17 38
M  V30 41 1 18 39
M  V30 42 1 19 40
M  V30 43 1 22 41
M  V30 END BOND
M  V30 END CTAB
M  END
>  <Dataset>  (493) 
ChEMBL_Kinases

>  <Ligand_Instance>  (493) 
nan

>  <PDB_ID>  (493) 
nan

>  <Standardized_SMILES>  (493) 
COc1ccc(/C=C2\S/C(=N\Cc3ccccc3)NC2=O)cc1[N+](=O)[O-]

>  <Name>  (493) 
nan

>  <Pocket>  (493) 
nan

>  <ATP_Site>  (493) 
nan

>  <Peripheral>  (493) 
nan

>  <Num_H_Atoms_ProtBoundConf>  (493) 
nan

>  <Num_Resolved_Atoms>  (493) 
nan

>  <Num_Not_Resolved_Atoms>  (493) 
nan

$$$$
CHEMBL3949078
     RDKit          3D

  0  0  0  0  0  0  0  0  0  0999 V3000
M  V30 BEGIN CTAB
M  V30 COUNTS 30 33 0 0 0
M  V30 BEGIN ATOM
M  V30 1 O -1.075967 2.352761 2.145789 0
M  V30 2 C 0.028822 1.750989 2.147572 0
M  V30 3 N 1.202549 2.106581 2.665442 0
M  V30 4 C 2.118489 1.151135 2.430151 0
M  V30 5 C 3.462739 0.985682 2.726244 0
M  V30 6 C 4.153416 -0.148024 2.334516 0
M  V30 7 O 5.507660 -0.349009 2.615023 0
M  V30 8 C 3.491824 -1.127404 1.638646 0
M  V30 9 C 2.156237 -0.957716 1.347208 0
M  V30 10 C 1.434307 0.172085 1.728030 0
M  V30 11 N 0.133277 0.532847 1.545506 0
M  V30 12 C -0.779844 -0.308663 0.849678 0
M  V30 13 N -0.498214 -0.567865 -0.457893 0
M  V30 14 C -1.437634 -1.371147 -0.990435 0
M  V30 15 C -1.555854 -1.884061 -2.265889 0
M  V30 16 C -2.667609 -2.694967 -2.486094 0
M  V30 17 C -3.569834 -2.940087 -1.453043 0
M  V30 18 C -3.405148 -2.399530 -0.186715 0
M  V30 19 C -2.311692 -1.596032 0.047285 0
M  V30 20 N -1.917117 -0.961200 1.143743 0
M  V30 21 H 1.392876 3.002019 3.183911 0
M  V30 22 H 3.994886 1.754745 3.276255 0
M  V30 23 H 6.065316 -0.908100 1.984649 0
M  V30 24 H 4.021630 -2.022216 1.325126 0
M  V30 25 H 1.678280 -1.757627 0.796575 0
M  V30 26 H -0.813435 -1.648394 -3.016276 0
M  V30 27 H -2.779343 -3.108527 -3.482569 0
M  V30 28 H -4.421351 -3.587226 -1.698155 0
M  V30 29 H -4.107207 -2.596832 0.597900 0
M  V30 30 H -2.299183 -0.891360 2.090726 0
M  V30 END ATOM
M  V30 BEGIN BOND
M  V30 1 2 1 2
M  V30 2 1 2 3
M  V30 3 1 3 4
M  V30 4 2 4 5
M  V30 5 1 5 6
M  V30 6 1 6 7
M  V30 7 2 6 8
M  V30 8 1 8 9
M  V30 9 2 9 10
M  V30 10 1 10 11
M  V30 11 1 11 12
M  V30 12 2 12 13
M  V30 13 1 13 14
M  V30 14 2 14 15
M  V30 15 1 15 16
M  V30 16 2 16 17
M  V30 17 1 17 18
M  V30 18 2 18 19
M  V30 19 1 19 20
M  V30 20 1 11 2
M  V30 21 1 20 12
M  V30 22 1 10 4
M  V30 23 1 19 14
M  V30 24 1 3 21
M  V30 25 1 5 22
M  V30 26 1 7 23
M  V30 27 1 8 24
M  V30 28 1 9 25
M  V30 29 1 15 26
M  V30 30 1 16 27
M  V30 31 1 17 28
M  V30 32 1 18 29
M  V30 33 1 20 30
M  V30 END BOND
M  V30 END CTAB
M  END
>  <Dataset>  (494) 
ChEMBL_Kinases

>  <Ligand_Instance>  (494) 
nan

>  <PDB_ID>  (494) 
nan

>  <Standardized_SMILES>  (494) 
O=c1[nH]c2cc(O)ccc2n1-c1nc2ccccc2[nH]1

>  <Name>  (494) 
nan

>  <Pocket>  (494) 
nan

>  <ATP_Site>  (494) 
nan

>  <Peripheral>  (494) 
nan

>  <Num_H_Atoms_ProtBoundConf>  (494) 
nan

>  <Num_Resolved_Atoms>  (494) 
nan

>  <Num_Not_Resolved_Atoms>  (494) 
nan

$$$$
CHEMBL394735
     RDKit          3D

  0  0  0  0  0  0  0  0  0  0999 V3000
M  V30 BEGIN CTAB
M  V30 COUNTS 37 40 0 0 0
M  V30 BEGIN ATOM
M  V30 1 C 1.521364 0.117348 1.994249 0
M  V30 2 C 0.606724 -1.087922 2.202148 0
M  V30 3 C 0.811901 -1.536487 3.629844 0
M  V30 4 N 0.073506 -0.763700 4.579449 0
M  V30 5 C -1.269834 -0.346352 4.265116 0
M  V30 6 O -2.102661 -0.019179 5.149715 0
M  V30 7 C -1.695690 -0.296514 2.864243 0
M  V30 8 N -2.847009 0.038785 2.243222 0
M  V30 9 C -2.666635 -0.104414 0.911283 0
M  V30 10 C -3.511380 0.102154 -0.165173 0
M  V30 11 C -3.080262 -0.121546 -1.478298 0
M  V30 12 C -1.787597 -0.555970 -1.694472 0
M  V30 13 C -1.378439 -0.777063 -3.081044 0
M  V30 14 O -2.231784 -0.556274 -3.977235 0
M  V30 15 N -0.086601 -1.221434 -3.460261 0
M  V30 16 C 0.328040 -1.440412 -4.786518 0
M  V30 17 C 0.915687 -0.719731 -5.806656 0
M  V30 18 C 1.044932 -1.578725 -6.878959 0
M  V30 19 O 0.559926 -2.749966 -6.517415 0
M  V30 20 N 0.134594 -2.688155 -5.292845 0
M  V30 21 C -0.944434 -0.762172 -0.620572 0
M  V30 22 C -1.373311 -0.539845 0.682516 0
M  V30 23 C -0.762241 -0.660432 1.916398 0
M  V30 24 H 2.383617 0.125556 2.693520 0
M  V30 25 H 0.971661 1.066627 2.149025 0
M  V30 26 H 1.938974 0.168199 0.970925 0
M  V30 27 H 0.955212 -1.871806 1.501824 0
M  V30 28 H 1.878643 -1.469793 3.928496 0
M  V30 29 H 0.543104 -2.616180 3.676139 0
M  V30 30 H 0.401372 -0.442417 5.530123 0
M  V30 31 H -3.714435 0.351761 2.726396 0
M  V30 32 H -4.513071 0.443459 0.076737 0
M  V30 33 H -3.809006 0.066433 -2.253216 0
M  V30 34 H 0.627365 -1.407008 -2.722687 0
M  V30 35 H 1.156547 0.314932 -5.608720 0
M  V30 36 H 1.491953 -1.218382 -7.811535 0
M  V30 37 H 0.067831 -1.102157 -0.787267 0
M  V30 END ATOM
M  V30 BEGIN BOND
M  V30 1 1 1 2
M  V30 2 1 2 3
M  V30 3 1 3 4
M  V30 4 1 4 5
M  V30 5 2 5 6
M  V30 6 1 5 7
M  V30 7 1 7 8
M  V30 8 1 8 9
M  V30 9 2 9 10
M  V30 10 1 10 11
M  V30 11 2 11 12
M  V30 12 1 12 13
M  V30 13 2 13 14
M  V30 14 1 13 15
M  V30 15 1 15 16
M  V30 16 1 16 17
M  V30 17 2 17 18
M  V30 18 1 18 19
M  V30 19 1 19 20
M  V30 20 1 12 21
M  V30 21 2 21 22
M  V30 22 1 22 23
M  V30 23 1 23 2
M  V30 24 2 23 7
M  V30 25 1 22 9
M  V30 26 2 20 16
M  V30 27 1 1 24
M  V30 28 1 1 25
M  V30 29 1 1 26
M  V30 30 1 2 27
M  V30 31 1 3 28
M  V30 32 1 3 29
M  V30 33 1 4 30
M  V30 34 1 8 31
M  V30 35 1 10 32
M  V30 36 1 11 33
M  V30 37 1 15 34
M  V30 38 1 17 35
M  V30 39 1 18 36
M  V30 40 1 21 37
M  V30 END BOND
M  V30 END CTAB
M  END
>  <Dataset>  (495) 
ChEMBL_Kinases

>  <Ligand_Instance>  (495) 
nan

>  <PDB_ID>  (495) 
nan

>  <Standardized_SMILES>  (495) 
CC1CNC(=O)c2[nH]c3ccc(C(=O)Nc4ccon4)cc3c21

>  <Name>  (495) 
nan

>  <Pocket>  (495) 
nan

>  <ATP_Site>  (495) 
nan

>  <Peripheral>  (495) 
nan

>  <Num_H_Atoms_ProtBoundConf>  (495) 
nan

>  <Num_Resolved_Atoms>  (495) 
nan

>  <Num_Not_Resolved_Atoms>  (495) 
nan

$$$$
CHEMBL4875491
     RDKit          3D

  0  0  0  0  0  0  0  0  0  0999 V3000
M  V30 BEGIN CTAB
M  V30 COUNTS 51 53 0 0 0
M  V30 BEGIN ATOM
M  V30 1 N 1.379627 -5.735023 3.357991 0
M  V30 2 C 0.602909 -4.772926 2.691118 0
M  V30 3 O -0.217539 -5.709173 2.723399 0
M  V30 4 C 1.070561 -3.450664 2.375192 0
M  V30 5 C 2.348539 -3.142669 2.756786 0
M  V30 6 N 2.717726 -1.905714 2.433889 0
M  V30 7 C 1.888070 -1.045242 1.786083 0
M  V30 8 N 2.389881 0.269713 1.494178 0
M  V30 9 C 1.630957 1.307690 0.815210 0
M  V30 10 C 1.267719 0.817189 -0.548938 0
M  V30 11 C 0.845080 1.866286 -1.522108 0
M  V30 12 C 1.416923 3.229730 -1.280386 0
M  V30 13 C 2.751913 3.012787 -0.568237 0
M  V30 14 C 2.412361 2.573311 0.824857 0
M  V30 15 N 0.639383 -1.392667 1.430403 0
M  V30 16 C 0.198246 -2.624795 1.723657 0
M  V30 17 N -1.115608 -3.104712 1.405361 0
M  V30 18 C -2.098556 -2.317321 0.705112 0 CFG=2
M  V30 19 C -1.642596 -1.969002 -0.682802 0
M  V30 20 C -2.220817 -0.780536 -1.316360 0
M  V30 21 C -2.886321 0.216657 -0.427221 0
M  V30 22 C -3.535378 -0.401404 0.789039 0 CFG=2
M  V30 23 O -4.159336 0.570448 1.527751 0
M  V30 24 C -2.377218 -1.074628 1.538430 0
M  V30 25 H 2.180340 -6.393151 3.399823 0
M  V30 26 H 1.947746 -6.439159 3.846587 0
M  V30 27 H 2.983545 -3.841768 3.267887 0
M  V30 28 H 3.382888 0.498119 1.794629 0
M  V30 29 H 0.683411 1.407421 1.419542 0
M  V30 30 H 2.088966 0.176553 -0.929278 0
M  V30 31 H 0.400070 0.139460 -0.413466 0
M  V30 32 H 1.246154 1.533446 -2.524525 0
M  V30 33 H -0.271942 1.895696 -1.658059 0
M  V30 34 H 0.754989 3.739470 -0.528040 0
M  V30 35 H 1.557381 3.812790 -2.206648 0
M  V30 36 H 3.393752 3.892522 -0.610345 0
M  V30 37 H 3.266249 2.166795 -1.100862 0
M  V30 38 H 1.770085 3.380524 1.258722 0
M  V30 39 H 3.318966 2.526202 1.461814 0
M  V30 40 H -1.394740 -4.061302 1.682145 0
M  V30 41 H -3.046556 -2.892594 0.673306 0
M  V30 42 H -0.535515 -2.026984 -0.694561 0
M  V30 43 H -1.953837 -2.865792 -1.303855 0
M  V30 44 H -1.438310 -0.244946 -1.894129 0
M  V30 45 H -2.988467 -1.037000 -2.107395 0
M  V30 46 H -3.674200 0.791169 -0.957310 0
M  V30 47 H -2.154461 0.960166 -0.048517 0
M  V30 48 H -4.245945 -1.160351 0.395446 0
M  V30 49 H -4.183811 0.277678 2.470527 0
M  V30 50 H -1.511990 -0.416150 1.449763 0
M  V30 51 H -2.633590 -1.382856 2.549055 0
M  V30 END ATOM
M  V30 BEGIN BOND
M  V30 1 1 1 2
M  V30 2 2 2 3
M  V30 3 1 2 4
M  V30 4 2 4 5
M  V30 5 1 5 6
M  V30 6 2 6 7
M  V30 7 1 7 8
M  V30 8 1 8 9
M  V30 9 1 9 10
M  V30 10 1 10 11
M  V30 11 1 11 12
M  V30 12 1 12 13
M  V30 13 1 13 14
M  V30 14 1 7 15
M  V30 15 2 15 16
M  V30 16 1 16 17
M  V30 17 1 17 18
M  V30 18 1 18 19
M  V30 19 1 19 20
M  V30 20 1 20 21
M  V30 21 1 21 22
M  V30 22 1 22 23
M  V30 23 1 22 24
M  V30 24 1 16 4
M  V30 25 1 24 18
M  V30 26 1 14 9
M  V30 27 1 1 25
M  V30 28 1 1 26
M  V30 29 1 5 27
M  V30 30 1 8 28
M  V30 31 1 9 29
M  V30 32 1 10 30
M  V30 33 1 10 31
M  V30 34 1 11 32
M  V30 35 1 11 33
M  V30 36 1 12 34
M  V30 37 1 12 35
M  V30 38 1 13 36
M  V30 39 1 13 37
M  V30 40 1 14 38
M  V30 41 1 14 39
M  V30 42 1 17 40
M  V30 43 1 18 41 CFG=3
M  V30 44 1 19 42
M  V30 45 1 19 43
M  V30 46 1 20 44
M  V30 47 1 20 45
M  V30 48 1 21 46
M  V30 49 1 21 47
M  V30 50 1 22 48 CFG=3
M  V30 51 1 23 49
M  V30 52 1 24 50
M  V30 53 1 24 51
M  V30 END BOND
M  V30 END CTAB
M  END
>  <Dataset>  (496) 
ChEMBL_Kinases

>  <Ligand_Instance>  (496) 
nan

>  <PDB_ID>  (496) 
nan

>  <Standardized_SMILES>  (496) 
NC(=O)c1cnc(NC2CCCCC2)nc1N[C@@H]1CCC[C@H](O)C1

>  <Name>  (496) 
nan

>  <Pocket>  (496) 
nan

>  <ATP_Site>  (496) 
nan

>  <Peripheral>  (496) 
nan

>  <Num_H_Atoms_ProtBoundConf>  (496) 
nan

>  <Num_Resolved_Atoms>  (496) 
nan

>  <Num_Not_Resolved_Atoms>  (496) 
nan

$$$$
CHEMBL3948826
     RDKit          3D

  0  0  0  0  0  0  0  0  0  0999 V3000
M  V30 BEGIN CTAB
M  V30 COUNTS 44 47 0 0 0
M  V30 BEGIN ATOM
M  V30 1 C -3.109553 -6.885288 -3.691425 0
M  V30 2 C -2.132233 -5.904851 -3.159763 0
M  V30 3 C -2.515996 -4.611488 -2.924855 0
M  V30 4 C -1.612002 -3.719960 -2.414940 0
M  V30 5 C -0.304905 -4.003222 -2.102219 0
M  V30 6 C 0.707577 -3.140117 -1.534984 0
M  V30 7 O 1.897486 -3.583897 -1.728004 0
M  V30 8 C 0.693899 -1.903985 -0.800724 0
M  V30 9 C -0.189175 -0.851097 -0.799448 0
M  V30 10 C -0.165628 0.283398 -0.018806 0
M  V30 11 C 0.878942 0.370565 0.873202 0
M  V30 12 C 0.978343 1.539128 1.744075 0
M  V30 13 N 1.914531 1.726946 2.719313 0
M  V30 14 C 1.705272 2.894352 3.343657 0
M  V30 15 C 2.391698 3.509671 4.399620 0
M  V30 16 C 1.923823 4.731615 4.834596 0
M  V30 17 C 2.558847 5.462119 5.928663 0
M  V30 18 N 3.711194 4.913306 6.534718 0
M  V30 19 O 2.200775 6.566578 6.428479 0
M  V30 20 C 0.827737 5.358981 4.281269 0
M  V30 21 C 0.174836 4.726395 3.243404 0
M  V30 22 C 0.591933 3.497756 2.757988 0
M  V30 23 N 0.186297 2.629344 1.787268 0
M  V30 24 C 1.836433 -0.610244 0.977599 0
M  V30 25 C 1.709904 -1.694014 0.148998 0
M  V30 26 C -0.006774 -5.326370 -2.371818 0
M  V30 27 C -0.842152 -6.290108 -2.880494 0
M  V30 28 H -2.796037 -7.893851 -3.341775 0
M  V30 29 H -4.128759 -6.706010 -3.263936 0
M  V30 30 H -3.210015 -6.880579 -4.787200 0
M  V30 31 H -3.534158 -4.332942 -3.153568 0
M  V30 32 H -2.000964 -2.734390 -2.262892 0
M  V30 33 H -1.000621 -0.886395 -1.493178 0
M  V30 34 H -0.922820 1.045598 -0.111719 0
M  V30 35 H 3.255036 3.055375 4.864076 0
M  V30 36 H 4.554873 4.571980 7.025319 0
M  V30 37 H 4.376660 4.119771 6.517255 0
M  V30 38 H 0.521307 6.310876 4.671548 0
M  V30 39 H -0.692923 5.179699 2.773047 0
M  V30 40 H -0.633251 2.792732 1.158901 0
M  V30 41 H 2.649412 -0.529843 1.681458 0
M  V30 42 H 2.491847 -2.450624 0.268099 0
M  V30 43 H 1.006168 -5.725364 -2.178880 0
M  V30 44 H -0.548980 -7.292365 -3.064338 0
M  V30 END ATOM
M  V30 BEGIN BOND
M  V30 1 1 1 2
M  V30 2 2 2 3
M  V30 3 1 3 4
M  V30 4 2 4 5
M  V30 5 1 5 6
M  V30 6 2 6 7
M  V30 7 1 6 8
M  V30 8 2 8 9
M  V30 9 1 9 10
M  V30 10 2 10 11
M  V30 11 1 11 12
M  V30 12 2 12 13
M  V30 13 1 13 14
M  V30 14 2 14 15
M  V30 15 1 15 16
M  V30 16 1 16 17
M  V30 17 1 17 18
M  V30 18 2 17 19
M  V30 19 2 16 20
M  V30 20 1 20 21
M  V30 21 2 21 22
M  V30 22 1 22 23
M  V30 23 1 11 24
M  V30 24 2 24 25
M  V30 25 1 5 26
M  V30 26 2 26 27
M  V30 27 1 27 2
M  V30 28 1 25 8
M  V30 29 1 23 12
M  V30 30 1 22 14
M  V30 31 1 1 28
M  V30 32 1 1 29
M  V30 33 1 1 30
M  V30 34 1 3 31
M  V30 35 1 4 32
M  V30 36 1 9 33
M  V30 37 1 10 34
M  V30 38 1 15 35
M  V30 39 1 18 36
M  V30 40 1 18 37
M  V30 41 1 20 38
M  V30 42 1 21 39
M  V30 43 1 23 40
M  V30 44 1 24 41
M  V30 45 1 25 42
M  V30 46 1 26 43
M  V30 47 1 27 44
M  V30 END BOND
M  V30 END CTAB
M  END
>  <Dataset>  (497) 
ChEMBL_Kinases

>  <Ligand_Instance>  (497) 
nan

>  <PDB_ID>  (497) 
nan

>  <Standardized_SMILES>  (497) 
Cc1ccc(C(=O)c2ccc(-c3nc4cc(C(N)=O)ccc4[nH]3)cc2)cc1

>  <Name>  (497) 
nan

>  <Pocket>  (497) 
nan

>  <ATP_Site>  (497) 
nan

>  <Peripheral>  (497) 
nan

>  <Num_H_Atoms_ProtBoundConf>  (497) 
nan

>  <Num_Resolved_Atoms>  (497) 
nan

>  <Num_Not_Resolved_Atoms>  (497) 
nan

$$$$
CHEMBL3948813
     RDKit          3D

  0  0  0  0  0  0  0  0  0  0999 V3000
M  V30 BEGIN CTAB
M  V30 COUNTS 71 75 0 0 0
M  V30 BEGIN ATOM
M  V30 1 C 3.362671 3.251654 0.715738 0
M  V30 2 C 2.962165 1.935008 0.108259 0 CFG=1
M  V30 3 C 3.703120 0.779632 0.684218 0
M  V30 4 N 2.869153 -0.439878 0.450479 0
M  V30 5 C 3.740017 -1.557038 0.504994 0
M  V30 6 C 3.229300 -2.904780 0.120622 0
M  V30 7 C 2.125758 -3.446541 0.905877 0
M  V30 8 C 0.823036 -3.633507 0.190551 0
M  V30 9 O 0.966136 -4.019650 -1.136376 0
M  V30 10 C 1.566904 -2.911268 -1.777526 0
M  V30 11 C 3.021252 -2.976396 -1.385413 0
M  V30 12 C 1.895218 -0.349680 1.548420 0
M  V30 13 C 1.456857 1.123725 1.591035 0
M  V30 14 N 1.520761 1.668896 0.255465 0
M  V30 15 C 0.655038 1.950168 -0.825533 0
M  V30 16 O 1.208842 2.501438 -1.839072 0
M  V30 17 N -0.753830 1.673552 -0.875188 0
M  V30 18 C -1.596577 1.027591 0.139144 0
M  V30 19 C -2.725541 0.543353 -0.695395 0
M  V30 20 C -3.805814 -0.326339 -0.634776 0
M  V30 21 N -4.166587 -1.112457 0.508980 0
M  V30 22 C -3.521062 -2.368611 0.642649 0
M  V30 23 O -2.695138 -2.630779 -0.275890 0
M  V30 24 C -3.793524 -3.271907 1.750895 0
M  V30 25 C -4.720611 -2.997479 2.753068 0
M  V30 26 N -4.744742 -4.021652 3.632282 0
M  V30 27 C -5.627828 -4.005187 4.782117 0
M  V30 28 C -3.842236 -4.903727 3.166131 0
M  V30 29 N -3.267673 -4.458173 2.035836 0
M  V30 30 N -4.396442 -0.240060 -1.837955 0
M  V30 31 N -3.761182 0.613974 -2.626604 0
M  V30 32 C -2.707280 1.123322 -1.939550 0
M  V30 33 C -1.564731 2.056296 -2.045985 0
M  V30 34 C -1.944301 3.497622 -1.885973 0
M  V30 35 C -0.800916 1.786063 -3.314701 0
M  V30 36 H 4.043757 3.068178 1.594445 0
M  V30 37 H 3.994477 3.835828 0.009123 0
M  V30 38 H 2.497344 3.868213 1.014513 0
M  V30 39 H 3.186663 1.985614 -0.982810 0
M  V30 40 H 3.839911 0.911734 1.769953 0
M  V30 41 H 4.714676 0.606334 0.260433 0
M  V30 42 H 4.650593 -1.314152 -0.141772 0
M  V30 43 H 4.214147 -1.672320 1.537480 0
M  V30 44 H 4.125980 -3.597408 0.280042 0
M  V30 45 H 1.951418 -2.903110 1.843086 0
M  V30 46 H 2.391354 -4.499893 1.292564 0
M  V30 47 H 0.184378 -2.737570 0.187997 0
M  V30 48 H 0.208219 -4.432238 0.666168 0
M  V30 49 H 1.507364 -3.118763 -2.865281 0
M  V30 50 H 1.064161 -1.989665 -1.473013 0
M  V30 51 H 3.411177 -3.916258 -1.822006 0
M  V30 52 H 3.574514 -2.160637 -1.888067 0
M  V30 53 H 2.365804 -0.663831 2.473914 0
M  V30 54 H 0.973302 -0.891568 1.370786 0
M  V30 55 H 2.052483 1.619455 2.347597 0
M  V30 56 H 0.391269 1.210102 1.955666 0
M  V30 57 H -1.001349 0.120148 0.465603 0
M  V30 58 H -1.862403 1.664715 0.969202 0
M  V30 59 H -4.866447 -0.784380 1.210911 0
M  V30 60 H -5.319441 -2.087136 2.793928 0
M  V30 61 H -5.387646 -4.789074 5.514378 0
M  V30 62 H -6.692922 -4.051568 4.445155 0
M  V30 63 H -5.528354 -3.032004 5.333486 0
M  V30 64 H -3.717318 -5.815947 3.755869 0
M  V30 65 H -4.048250 0.844348 -3.623191 0
M  V30 66 H -1.020418 4.091592 -2.040804 0
M  V30 67 H -2.236978 3.660416 -0.824521 0
M  V30 68 H -2.734069 3.821591 -2.561317 0
M  V30 69 H -0.201869 2.631749 -3.680539 0
M  V30 70 H -0.195667 0.866923 -3.209817 0
M  V30 71 H -1.562802 1.563964 -4.100382 0
M  V30 END ATOM
M  V30 BEGIN BOND
M  V30 1 1 1 2
M  V30 2 1 2 3
M  V30 3 1 3 4
M  V30 4 1 4 5
M  V30 5 1 5 6
M  V30 6 1 6 7
M  V30 7 1 7 8
M  V30 8 1 8 9
M  V30 9 1 9 10
M  V30 10 1 10 11
M  V30 11 1 4 12
M  V30 12 1 12 13
M  V30 13 1 13 14
M  V30 14 1 14 15
M  V30 15 2 15 16
M  V30 16 1 15 17
M  V30 17 1 17 18
M  V30 18 1 18 19
M  V30 19 1 19 20
M  V30 20 1 20 21
M  V30 21 1 21 22
M  V30 22 2 22 23
M  V30 23 1 22 24
M  V30 24 2 24 25
M  V30 25 1 25 26
M  V30 26 1 26 27
M  V30 27 1 26 28
M  V30 28 2 28 29
M  V30 29 2 20 30
M  V30 30 1 30 31
M  V30 31 1 31 32
M  V30 32 1 32 33
M  V30 33 1 33 34
M  V30 34 1 33 35
M  V30 35 1 14 2
M  V30 36 1 33 17
M  V30 37 1 11 6
M  V30 38 2 32 19
M  V30 39 1 29 24
M  V30 40 1 1 36
M  V30 41 1 1 37
M  V30 42 1 1 38
M  V30 43 1 2 39 CFG=3
M  V30 44 1 3 40
M  V30 45 1 3 41
M  V30 46 1 5 42
M  V30 47 1 5 43
M  V30 48 1 6 44
M  V30 49 1 7 45
M  V30 50 1 7 46
M  V30 51 1 8 47
M  V30 52 1 8 48
M  V30 53 1 10 49
M  V30 54 1 10 50
M  V30 55 1 11 51
M  V30 56 1 11 52
M  V30 57 1 12 53
M  V30 58 1 12 54
M  V30 59 1 13 55
M  V30 60 1 13 56
M  V30 61 1 18 57
M  V30 62 1 18 58
M  V30 63 1 21 59
M  V30 64 1 25 60
M  V30 65 1 27 61
M  V30 66 1 27 62
M  V30 67 1 27 63
M  V30 68 1 28 64
M  V30 69 1 31 65
M  V30 70 1 34 66
M  V30 71 1 34 67
M  V30 72 1 34 68
M  V30 73 1 35 69
M  V30 74 1 35 70
M  V30 75 1 35 71
M  V30 END BOND
M  V30 END CTAB
M  END
>  <Dataset>  (498) 
ChEMBL_Kinases

>  <Ligand_Instance>  (498) 
nan

>  <PDB_ID>  (498) 
nan

>  <Standardized_SMILES>  (498) 
C[C@H]1CN(CC2CCOCC2)CCN1C(=O)N1Cc2c(NC(=O)c3cn(C)cn3)n[nH]c2C1(C)C

>  <Name>  (498) 
nan

>  <Pocket>  (498) 
nan

>  <ATP_Site>  (498) 
nan

>  <Peripheral>  (498) 
nan

>  <Num_H_Atoms_ProtBoundConf>  (498) 
nan

>  <Num_Resolved_Atoms>  (498) 
nan

>  <Num_Not_Resolved_Atoms>  (498) 
nan

$$$$
CHEMBL394869
     RDKit          3D

  0  0  0  0  0  0  0  0  0  0999 V3000
M  V30 BEGIN CTAB
M  V30 COUNTS 39 40 0 0 0
M  V30 BEGIN ATOM
M  V30 1 C -0.895817 -4.100227 2.547603 0
M  V30 2 C -0.547186 -5.196054 1.601672 0
M  V30 3 C 0.711666 -5.053817 0.834790 0
M  V30 4 C 0.833958 -3.883987 -0.065430 0
M  V30 5 N 0.769103 -2.593193 0.564094 0
M  V30 6 C 0.857186 -1.539995 -0.414749 0
M  V30 7 N 0.978656 -1.781138 -1.738864 0
M  V30 8 C 1.061279 -0.777434 -2.642866 0
M  V30 9 C 1.026464 0.534967 -2.265565 0
M  V30 10 C 0.903210 0.793682 -0.921280 0
M  V30 11 N 0.880898 2.161305 -0.461020 0
M  V30 12 C 0.704294 2.798861 0.794997 0
M  V30 13 C 1.789283 3.540027 1.273979 0
M  V30 14 C 1.707937 4.199257 2.491344 0
M  V30 15 C 0.543642 4.095303 3.190148 0
M  V30 16 C -0.511392 3.360338 2.698622 0
M  V30 17 C -0.474110 2.691696 1.496283 0
M  V30 18 C -1.640996 1.963614 1.030453 0
M  V30 19 O -1.810869 1.344626 -0.025716 0
M  V30 20 O -2.764295 1.898681 1.807156 0
M  V30 21 N 0.825802 -0.241886 -0.075335 0
M  V30 22 H -0.055732 -3.769567 3.181804 0
M  V30 23 H -1.390777 -3.267070 2.038814 0
M  V30 24 H -1.658752 -4.503056 3.287976 0
M  V30 25 H -0.508621 -6.171136 2.164678 0
M  V30 26 H -1.406374 -5.336654 0.900705 0
M  V30 27 H 0.793320 -5.971715 0.183535 0
M  V30 28 H 1.568698 -5.136611 1.545439 0
M  V30 29 H 0.064014 -3.982862 -0.867018 0
M  V30 30 H 1.806975 -3.883303 -0.640912 0
M  V30 31 H 0.680894 -2.240846 1.541211 0
M  V30 32 H 1.158502 -0.986284 -3.702053 0
M  V30 33 H 1.092094 1.329513 -2.983691 0
M  V30 34 H 1.019360 2.914446 -1.165627 0
M  V30 35 H 2.713814 3.628834 0.729100 0
M  V30 36 H 2.486758 4.795228 2.946746 0
M  V30 37 H 0.406524 4.581528 4.147302 0
M  V30 38 H -1.434102 3.299268 3.289740 0
M  V30 39 H -3.698347 1.844855 1.428049 0
M  V30 END ATOM
M  V30 BEGIN BOND
M  V30 1 1 1 2
M  V30 2 1 2 3
M  V30 3 1 3 4
M  V30 4 1 4 5
M  V30 5 1 5 6
M  V30 6 2 6 7
M  V30 7 1 7 8
M  V30 8 2 8 9
M  V30 9 1 9 10
M  V30 10 1 10 11
M  V30 11 1 11 12
M  V30 12 2 12 13
M  V30 13 1 13 14
M  V30 14 2 14 15
M  V30 15 1 15 16
M  V30 16 2 16 17
M  V30 17 1 17 18
M  V30 18 2 18 19
M  V30 19 1 18 20
M  V30 20 2 10 21
M  V30 21 1 21 6
M  V30 22 1 17 12
M  V30 23 1 1 22
M  V30 24 1 1 23
M  V30 25 1 1 24
M  V30 26 1 2 25
M  V30 27 1 2 26
M  V30 28 1 3 27
M  V30 29 1 3 28
M  V30 30 1 4 29
M  V30 31 1 4 30
M  V30 32 1 5 31
M  V30 33 1 8 32
M  V30 34 1 9 33
M  V30 35 1 11 34
M  V30 36 1 13 35
M  V30 37 1 14 36
M  V30 38 1 15 37
M  V30 39 1 16 38
M  V30 40 1 20 39
M  V30 END BOND
M  V30 END CTAB
M  END
>  <Dataset>  (499) 
ChEMBL_Kinases

>  <Ligand_Instance>  (499) 
nan

>  <PDB_ID>  (499) 
nan

>  <Standardized_SMILES>  (499) 
CCCCNc1nccc(Nc2ccccc2C(=O)O)n1

>  <Name>  (499) 
nan

>  <Pocket>  (499) 
nan

>  <ATP_Site>  (499) 
nan

>  <Peripheral>  (499) 
nan

>  <Num_H_Atoms_ProtBoundConf>  (499) 
nan

>  <Num_Resolved_Atoms>  (499) 
nan

>  <Num_Not_Resolved_Atoms>  (499) 
nan

$$$$
CHEMBL3948611
     RDKit          3D

  0  0  0  0  0  0  0  0  0  0999 V3000
M  V30 BEGIN CTAB
M  V30 COUNTS 53 56 0 0 0
M  V30 BEGIN ATOM
M  V30 1 N 2.781485 -4.417980 -0.065206 0
M  V30 2 C 1.977449 -4.068320 -1.209651 0
M  V30 3 O 1.687403 -4.737073 -2.219005 0
M  V30 4 C 1.499872 -2.657144 -0.986373 0 CFG=2
M  V30 5 C 2.687899 -1.758457 -0.865283 0
M  V30 6 C 2.375623 -0.337931 -0.642073 0
M  V30 7 C 2.189619 0.647548 -1.586943 0
M  V30 8 N 1.913970 1.895771 -1.178081 0
M  V30 9 C 1.810672 2.231833 0.100144 0
M  V30 10 C 1.989389 1.279076 1.061365 0
M  V30 11 N 1.892790 1.571466 2.452975 0
M  V30 12 C 1.608520 2.851916 2.948778 0
M  V30 13 C 0.488788 3.566691 3.278768 0
M  V30 14 C 0.872457 4.821370 3.728038 0
M  V30 15 N 2.221674 4.818353 3.652244 0
M  V30 16 N 2.672468 3.645524 3.187506 0
M  V30 17 N 2.264208 0.034290 0.654994 0
M  V30 18 C 0.723507 -2.701357 0.320294 0
M  V30 19 C -0.560553 -3.434007 -0.006690 0
M  V30 20 C -1.522826 -2.373033 -0.557876 0 CFG=1
M  V30 21 O -1.979186 -1.660893 0.568104 0
M  V30 22 C -3.321549 -1.587740 0.882435 0
M  V30 23 C -4.465119 -2.095467 0.305839 0
M  V30 24 C -5.702689 -1.851045 0.857680 0
M  V30 25 C -5.873371 -1.096796 2.000955 0
M  V30 26 C -4.735843 -0.582254 2.588557 0
M  V30 27 Cl -5.016342 0.365324 4.034813 0
M  V30 28 C -3.468305 -0.818774 2.043873 0
M  V30 29 F -2.490788 -0.224622 2.773902 0
M  V30 30 C -0.654092 -1.468161 -1.444771 0
M  V30 31 C 0.505926 -2.252394 -2.038770 0
M  V30 32 H 3.814562 -4.274242 0.117388 0
M  V30 33 H 2.462499 -4.887920 0.802821 0
M  V30 34 H 3.349368 -2.172791 -0.069620 0
M  V30 35 H 3.330442 -1.802853 -1.790533 0
M  V30 36 H 2.282803 0.337336 -2.607028 0
M  V30 37 H 1.586552 3.249182 0.409473 0
M  V30 38 H 2.033560 0.827441 3.151123 0
M  V30 39 H -0.473059 3.123551 3.165857 0
M  V30 40 H 0.205894 5.592269 4.054034 0
M  V30 41 H 2.782003 5.663585 3.938172 0
M  V30 42 H 1.299513 -3.204620 1.120747 0
M  V30 43 H 0.535006 -1.641400 0.598827 0
M  V30 44 H -0.416837 -4.199797 -0.801753 0
M  V30 45 H -0.984825 -3.948479 0.875265 0
M  V30 46 H -2.317414 -2.848737 -1.139847 0
M  V30 47 H -4.236928 -2.666868 -0.575307 0
M  V30 48 H -6.534456 -2.295368 0.327224 0
M  V30 49 H -6.870620 -0.938178 2.388846 0
M  V30 50 H -0.347894 -0.571102 -0.902668 0
M  V30 51 H -1.297002 -1.178864 -2.298035 0
M  V30 52 H 0.964353 -1.641743 -2.813754 0
M  V30 53 H 0.045490 -3.140097 -2.524172 0
M  V30 END ATOM
M  V30 BEGIN BOND
M  V30 1 1 1 2
M  V30 2 2 2 3
M  V30 3 1 2 4
M  V30 4 1 4 5 CFG=1
M  V30 5 1 5 6
M  V30 6 2 6 7
M  V30 7 1 7 8
M  V30 8 2 8 9
M  V30 9 1 9 10
M  V30 10 1 10 11
M  V30 11 1 11 12
M  V30 12 1 12 13
M  V30 13 2 13 14
M  V30 14 1 14 15
M  V30 15 1 15 16
M  V30 16 2 10 17
M  V30 17 1 4 18
M  V30 18 1 18 19
M  V30 19 1 19 20
M  V30 20 1 20 21
M  V30 21 1 21 22
M  V30 22 2 22 23
M  V30 23 1 23 24
M  V30 24 2 24 25
M  V30 25 1 25 26
M  V30 26 1 26 27
M  V30 27 2 26 28
M  V30 28 1 28 29
M  V30 29 1 20 30
M  V30 30 1 30 31
M  V30 31 1 31 4
M  V30 32 1 17 6
M  V30 33 1 28 22
M  V30 34 2 16 12
M  V30 35 1 1 32
M  V30 36 1 1 33
M  V30 37 1 5 34
M  V30 38 1 5 35
M  V30 39 1 7 36
M  V30 40 1 9 37
M  V30 41 1 11 38
M  V30 42 1 13 39
M  V30 43 1 14 40
M  V30 44 1 15 41
M  V30 45 1 18 42
M  V30 46 1 18 43
M  V30 47 1 19 44
M  V30 48 1 19 45
M  V30 49 1 20 46 CFG=3
M  V30 50 1 23 47
M  V30 51 1 24 48
M  V30 52 1 25 49
M  V30 53 1 30 50
M  V30 54 1 30 51
M  V30 55 1 31 52
M  V30 56 1 31 53
M  V30 END BOND
M  V30 END CTAB
M  END
>  <Dataset>  (500) 
ChEMBL_Kinases

>  <Ligand_Instance>  (500) 
nan

>  <PDB_ID>  (500) 
nan

>  <Standardized_SMILES>  (500) 
NC(=O)[C@]1(Cc2cncc(Nc3cc[nH]n3)n2)CC[C@@H](Oc2cccc(Cl)c2F)CC1

>  <Name>  (500) 
nan

>  <Pocket>  (500) 
nan

>  <ATP_Site>  (500) 
nan

>  <Peripheral>  (500) 
nan

>  <Num_H_Atoms_ProtBoundConf>  (500) 
nan

>  <Num_Resolved_Atoms>  (500) 
nan

>  <Num_Not_Resolved_Atoms>  (500) 
nan

$$$$
CHEMBL394816
     RDKit          3D

  0  0  0  0  0  0  0  0  0  0999 V3000
M  V30 BEGIN CTAB
M  V30 COUNTS 50 53 0 0 0
M  V30 BEGIN ATOM
M  V30 1 O 4.227268 -0.350109 0.142190 0
M  V30 2 C 3.573307 -0.749530 -0.845158 0
M  V30 3 O 3.798462 -2.095241 -0.725591 0
M  V30 4 C 2.817714 0.005393 -1.805483 0
M  V30 5 C 2.212942 -0.643168 -2.859079 0
M  V30 6 C 1.526784 0.116949 -3.781940 0
M  V30 7 C 1.409426 1.489177 -3.713546 0
M  V30 8 C 2.037795 2.073947 -2.633934 0
M  V30 9 C 2.752887 1.370719 -1.654717 0
M  V30 10 N 3.317432 2.170581 -0.635920 0
M  V30 11 C 3.133850 2.277420 0.791253 0
M  V30 12 C 3.922008 3.145707 1.513589 0
M  V30 13 C 3.691527 3.217995 2.861817 0
M  V30 14 N 2.739651 2.469549 3.425560 0
M  V30 15 C 1.953008 1.613847 2.757344 0
M  V30 16 N 0.966493 0.855304 3.433715 0
M  V30 17 C 0.059847 -0.082158 2.879624 0
M  V30 18 C -0.040796 -0.419090 1.548127 0
M  V30 19 C -0.931964 -1.336188 1.037973 0
M  V30 20 C -1.796250 -1.977773 1.897745 0
M  V30 21 N -2.745581 -2.933117 1.464263 0
M  V30 22 C -3.678112 -3.725263 2.246654 0
M  V30 23 C -5.050897 -3.108614 1.993452 0
M  V30 24 O -5.207669 -2.905827 0.640193 0
M  V30 25 C -4.347583 -3.662420 -0.140016 0
M  V30 26 C -2.890792 -3.241122 0.033897 0
M  V30 27 C -1.728453 -1.669611 3.238751 0
M  V30 28 C -0.820778 -0.744674 3.707991 0
M  V30 29 N 2.215274 1.579214 1.450286 0
M  V30 30 H 3.463511 -2.648857 0.046357 0
M  V30 31 H 2.283370 -1.718552 -2.946273 0
M  V30 32 H 1.055334 -0.402931 -4.605326 0
M  V30 33 H 0.871657 2.083163 -4.437872 0
M  V30 34 H 1.942610 3.162187 -2.583014 0
M  V30 35 H 4.023002 2.808319 -1.077976 0
M  V30 36 H 4.674922 3.724284 1.003854 0
M  V30 37 H 4.297339 3.891221 3.441906 0
M  V30 38 H 0.908059 1.014032 4.465999 0
M  V30 39 H 0.595005 0.038953 0.836050 0
M  V30 40 H -0.959933 -1.558790 -0.031985 0
M  V30 41 H -3.740623 -4.776702 1.887538 0
M  V30 42 H -3.443927 -3.756249 3.323535 0
M  V30 43 H -5.866626 -3.741882 2.434386 0
M  V30 44 H -5.021255 -2.106924 2.472548 0
M  V30 45 H -4.482475 -4.765554 -0.009956 0
M  V30 46 H -4.603067 -3.458578 -1.200744 0
M  V30 47 H -2.278666 -4.116761 -0.255244 0
M  V30 48 H -2.734031 -2.367733 -0.605074 0
M  V30 49 H -2.388415 -2.145559 3.966918 0
M  V30 50 H -0.811070 -0.540419 4.774598 0
M  V30 END ATOM
M  V30 BEGIN BOND
M  V30 1 2 1 2
M  V30 2 1 2 3
M  V30 3 1 2 4
M  V30 4 2 4 5
M  V30 5 1 5 6
M  V30 6 2 6 7
M  V30 7 1 7 8
M  V30 8 2 8 9
M  V30 9 1 9 10
M  V30 10 1 10 11
M  V30 11 2 11 12
M  V30 12 1 12 13
M  V30 13 2 13 14
M  V30 14 1 14 15
M  V30 15 1 15 16
M  V30 16 1 16 17
M  V30 17 2 17 18
M  V30 18 1 18 19
M  V30 19 2 19 20
M  V30 20 1 20 21
M  V30 21 1 21 22
M  V30 22 1 22 23
M  V30 23 1 23 24
M  V30 24 1 24 25
M  V30 25 1 25 26
M  V30 26 1 20 27
M  V30 27 2 27 28
M  V30 28 2 15 29
M  V30 29 1 9 4
M  V30 30 1 29 11
M  V30 31 1 28 17
M  V30 32 1 26 21
M  V30 33 1 3 30
M  V30 34 1 5 31
M  V30 35 1 6 32
M  V30 36 1 7 33
M  V30 37 1 8 34
M  V30 38 1 10 35
M  V30 39 1 12 36
M  V30 40 1 13 37
M  V30 41 1 16 38
M  V30 42 1 18 39
M  V30 43 1 19 40
M  V30 44 1 22 41
M  V30 45 1 22 42
M  V30 46 1 23 43
M  V30 47 1 23 44
M  V30 48 1 25 45
M  V30 49 1 25 46
M  V30 50 1 26 47
M  V30 51 1 26 48
M  V30 52 1 27 49
M  V30 53 1 28 50
M  V30 END BOND
M  V30 END CTAB
M  END
>  <Dataset>  (501) 
ChEMBL_Kinases

>  <Ligand_Instance>  (501) 
nan

>  <PDB_ID>  (501) 
nan

>  <Standardized_SMILES>  (501) 
O=C(O)c1ccccc1Nc1ccnc(Nc2ccc(N3CCOCC3)cc2)n1

>  <Name>  (501) 
nan

>  <Pocket>  (501) 
nan

>  <ATP_Site>  (501) 
nan

>  <Peripheral>  (501) 
nan

>  <Num_H_Atoms_ProtBoundConf>  (501) 
nan

>  <Num_Resolved_Atoms>  (501) 
nan

>  <Num_Not_Resolved_Atoms>  (501) 
nan

$$$$
CHEMBL3948055
     RDKit          3D

  0  0  0  0  0  0  0  0  0  0999 V3000
M  V30 BEGIN CTAB
M  V30 COUNTS 42 45 0 0 0
M  V30 BEGIN ATOM
M  V30 1 C -0.848997 -4.683039 0.606173 0
M  V30 2 C 0.591775 -4.373992 0.760768 0
M  V30 3 N 1.554009 -5.119612 1.335904 0
M  V30 4 C 2.720281 -4.455430 1.259645 0
M  V30 5 C 2.525727 -3.235819 0.615070 0
M  V30 6 C 3.394711 -2.229576 0.302166 0
M  V30 7 C 2.809473 -1.140871 -0.363816 0
M  V30 8 C 1.455058 -1.108135 -0.671304 0
M  V30 9 C 0.926307 0.074820 -1.366631 0
M  V30 10 O 0.700684 0.153028 -2.615481 0
M  V30 11 N 0.609410 1.287906 -0.663432 0
M  V30 12 C 0.091731 2.526369 -1.182655 0
M  V30 13 C 0.781022 3.530368 -0.277853 0
M  V30 14 C 0.906900 2.864406 1.069898 0
M  V30 15 C 0.802495 1.386352 0.777733 0 CFG=1
M  V30 16 C -0.245168 0.729938 1.570572 0
M  V30 17 C -1.603525 0.913128 1.450063 0
M  V30 18 C -2.611825 0.324259 2.167677 0
M  V30 19 C -2.218726 -0.580902 3.152699 0
M  V30 20 Cl -3.420894 -1.385434 4.124243 0
M  V30 21 C -0.872719 -0.832017 3.349315 0
M  V30 22 C 0.072650 -0.193357 2.579201 0
M  V30 23 C 0.693434 -2.175233 -0.305587 0
M  V30 24 N 1.211755 -3.257197 0.342838 0
M  V30 25 H -1.345966 -4.900716 1.555039 0
M  V30 26 H -1.351012 -3.805797 0.105774 0
M  V30 27 H -0.964480 -5.513816 -0.140989 0
M  V30 28 H 3.640004 -4.884981 1.668879 0
M  V30 29 H 4.444712 -2.281215 0.554218 0
M  V30 30 H 3.501432 -0.337122 -0.609028 0
M  V30 31 H 0.438728 2.712155 -2.237153 0
M  V30 32 H -0.990921 2.614770 -1.221319 0
M  V30 33 H 1.796555 3.697256 -0.747247 0
M  V30 34 H 0.273903 4.507908 -0.253307 0
M  V30 35 H 0.122477 3.204825 1.778291 0
M  V30 36 H 1.901434 3.151086 1.462517 0
M  V30 37 H 1.772262 0.934433 1.082307 0
M  V30 38 H -1.954802 1.611579 0.696536 0
M  V30 39 H -3.652630 0.532212 2.000502 0
M  V30 40 H -0.547135 -1.540768 4.117157 0
M  V30 41 H 1.112612 -0.434026 2.780322 0
M  V30 42 H -0.357848 -2.080289 -0.577993 0
M  V30 END ATOM
M  V30 BEGIN BOND
M  V30 1 1 1 2
M  V30 2 2 2 3
M  V30 3 1 3 4
M  V30 4 2 4 5
M  V30 5 1 5 6
M  V30 6 2 6 7
M  V30 7 1 7 8
M  V30 8 1 8 9
M  V30 9 2 9 10
M  V30 10 1 9 11
M  V30 11 1 11 12
M  V30 12 1 12 13
M  V30 13 1 13 14
M  V30 14 1 14 15
M  V30 15 1 15 16
M  V30 16 2 16 17
M  V30 17 1 17 18
M  V30 18 2 18 19
M  V30 19 1 19 20
M  V30 20 1 19 21
M  V30 21 2 21 22
M  V30 22 2 8 23
M  V30 23 1 23 24
M  V30 24 1 24 2
M  V30 25 1 24 5
M  V30 26 1 15 11
M  V30 27 1 22 16
M  V30 28 1 1 25
M  V30 29 1 1 26
M  V30 30 1 1 27
M  V30 31 1 4 28
M  V30 32 1 6 29
M  V30 33 1 7 30
M  V30 34 1 12 31
M  V30 35 1 12 32
M  V30 36 1 13 33
M  V30 37 1 13 34
M  V30 38 1 14 35
M  V30 39 1 14 36
M  V30 40 1 15 37 CFG=3
M  V30 41 1 17 38
M  V30 42 1 18 39
M  V30 43 1 21 40
M  V30 44 1 22 41
M  V30 45 1 23 42
M  V30 END BOND
M  V30 END CTAB
M  END
>  <Dataset>  (502) 
ChEMBL_Kinases

>  <Ligand_Instance>  (502) 
nan

>  <PDB_ID>  (502) 
nan

>  <Standardized_SMILES>  (502) 
Cc1ncc2ccc(C(=O)N3CCC[C@H]3c3ccc(Cl)cc3)cn12

>  <Name>  (502) 
nan

>  <Pocket>  (502) 
nan

>  <ATP_Site>  (502) 
nan

>  <Peripheral>  (502) 
nan

>  <Num_H_Atoms_ProtBoundConf>  (502) 
nan

>  <Num_Resolved_Atoms>  (502) 
nan

>  <Num_Not_Resolved_Atoms>  (502) 
nan

$$$$
CHEMBL3948014
     RDKit          3D

  0  0  0  0  0  0  0  0  0  0999 V3000
M  V30 BEGIN CTAB
M  V30 COUNTS 55 57 0 0 0
M  V30 BEGIN ATOM
M  V30 1 C 5.973009 1.993755 0.424153 0
M  V30 2 C 5.726697 2.375678 1.848342 0
M  V30 3 N 5.274004 1.252627 2.666156 0
M  V30 4 C 4.071812 0.539562 2.440641 0
M  V30 5 C 3.697237 -0.521403 3.238322 0
M  V30 6 C 2.520677 -1.200042 3.003168 0
M  V30 7 O 2.311303 -2.234546 3.903768 0
M  V30 8 C 1.648310 -0.888663 1.988393 0
M  V30 9 C 1.956813 0.157279 1.154974 0
M  V30 10 C 3.159829 0.829986 1.415943 0
M  V30 11 C 1.334710 0.789878 0.028523 0
M  V30 12 C 0.376182 1.676810 -0.280518 0
M  V30 13 C 0.033938 2.074451 -1.664928 0
M  V30 14 C -1.383722 1.834506 -2.031978 0 CFG=2
M  V30 15 O -2.181774 2.814959 -1.393953 0
M  V30 16 C -2.542677 2.291847 -0.159823 0
M  V30 17 O -3.196060 2.884001 0.766195 0
M  V30 18 O -2.064093 0.989226 -0.099560 0
M  V30 19 C -1.987690 0.570671 -1.456264 0 CFG=2
M  V30 20 C -1.247490 -0.632053 -1.718408 0
M  V30 21 O -0.492518 -0.405825 -2.699220 0
M  V30 22 C -0.943054 -1.987657 -1.399120 0
M  V30 23 C -1.517786 -2.681587 -0.431666 0
M  V30 24 C -2.558153 -2.283936 0.507987 0 CFG=1
M  V30 25 C -3.621873 -3.397729 0.538455 0
M  V30 26 C -1.890590 -2.345360 1.905218 0 CFG=2
M  V30 27 C -2.895645 -2.031064 2.964134 0
M  V30 28 O -0.818531 -1.404992 1.903113 0
M  V30 29 C 0.501604 -1.782618 1.987796 0
M  V30 30 O 0.725561 -3.039767 2.072832 0
M  V30 31 H 7.059939 2.140589 0.149050 0
M  V30 32 H 5.402226 2.666111 -0.239793 0
M  V30 33 H 5.679692 0.954169 0.166747 0
M  V30 34 H 6.657017 2.812360 2.258427 0
M  V30 35 H 4.951494 3.172007 1.874711 0
M  V30 36 H 5.863005 0.964087 3.450486 0
M  V30 37 H 4.391391 -0.763005 4.041115 0
M  V30 38 H 1.511162 -2.112770 4.530311 0
M  V30 39 H 3.490692 1.672443 0.798665 0
M  V30 40 H 1.862828 0.384934 -0.824676 0
M  V30 41 H -0.139513 2.094166 0.573223 0
M  V30 42 H 0.764546 1.645744 -2.381810 0
M  V30 43 H 0.193824 3.190363 -1.753121 0
M  V30 44 H -1.570475 1.932762 -3.113505 0
M  V30 45 H -3.027793 0.515063 -1.827221 0
M  V30 46 H -0.222495 -2.634517 -1.879204 0
M  V30 47 H -1.258515 -3.708239 -0.196990 0
M  V30 48 H -3.100194 -1.373700 0.329326 0
M  V30 49 H -4.506306 -3.094583 1.112305 0
M  V30 50 H -3.157754 -4.336621 0.903733 0
M  V30 51 H -3.928629 -3.560155 -0.514379 0
M  V30 52 H -1.529786 -3.372525 2.014802 0
M  V30 53 H -2.326996 -1.695154 3.869801 0
M  V30 54 H -3.638018 -1.264885 2.644005 0
M  V30 55 H -3.404144 -2.972518 3.258563 0
M  V30 END ATOM
M  V30 BEGIN BOND
M  V30 1 1 1 2
M  V30 2 1 2 3
M  V30 3 1 3 4
M  V30 4 2 4 5
M  V30 5 1 5 6
M  V30 6 1 6 7
M  V30 7 2 6 8
M  V30 8 1 8 9
M  V30 9 2 9 10
M  V30 10 1 9 11
M  V30 11 2 11 12
M  V30 12 1 12 13
M  V30 13 1 13 14
M  V30 14 1 14 15
M  V30 15 1 15 16
M  V30 16 2 16 17
M  V30 17 1 16 18
M  V30 18 1 18 19
M  V30 19 1 19 20
M  V30 20 2 20 21
M  V30 21 1 20 22
M  V30 22 2 22 23
M  V30 23 1 23 24
M  V30 24 1 24 25
M  V30 25 1 24 26
M  V30 26 1 26 27
M  V30 27 1 26 28
M  V30 28 1 28 29
M  V30 29 2 29 30
M  V30 30 1 10 4
M  V30 31 1 19 14
M  V30 32 1 29 8
M  V30 33 1 1 31
M  V30 34 1 1 32
M  V30 35 1 1 33
M  V30 36 1 2 34
M  V30 37 1 2 35
M  V30 38 1 3 36
M  V30 39 1 5 37
M  V30 40 1 7 38
M  V30 41 1 10 39
M  V30 42 1 11 40
M  V30 43 1 12 41
M  V30 44 1 13 42
M  V30 45 1 13 43
M  V30 46 1 14 44 CFG=3
M  V30 47 1 19 45 CFG=3
M  V30 48 1 22 46
M  V30 49 1 23 47
M  V30 50 1 24 48 CFG=3
M  V30 51 1 25 49
M  V30 52 1 25 50
M  V30 53 1 25 51
M  V30 54 1 26 52 CFG=1
M  V30 55 1 27 53
M  V30 56 1 27 54
M  V30 57 1 27 55
M  V30 END BOND
M  V30 END CTAB
M  END
>  <Dataset>  (503) 
ChEMBL_Kinases

>  <Ligand_Instance>  (503) 
nan

>  <PDB_ID>  (503) 
nan

>  <Standardized_SMILES>  (503) 
CCNc1cc(O)c2c(c1)/C=C/C[C@@H]1OC(=O)O[C@@H]1C(=O)/C=C\[C@@H](C)[C@H](C)OC2=O

>  <Name>  (503) 
nan

>  <Pocket>  (503) 
nan

>  <ATP_Site>  (503) 
nan

>  <Peripheral>  (503) 
nan

>  <Num_H_Atoms_ProtBoundConf>  (503) 
nan

>  <Num_Resolved_Atoms>  (503) 
nan

>  <Num_Not_Resolved_Atoms>  (503) 
nan

$$$$
CHEMBL3947973
     RDKit          3D

  0  0  0  0  0  0  0  0  0  0999 V3000
M  V30 BEGIN CTAB
M  V30 COUNTS 52 56 0 0 0
M  V30 BEGIN ATOM
M  V30 1 C 5.926520 -5.015095 2.125197 0
M  V30 2 O 4.598848 -5.125869 1.600846 0
M  V30 3 C 3.946419 -4.036981 1.042454 0
M  V30 4 O 4.503647 -2.918558 0.980579 0
M  V30 5 N 2.620499 -4.239140 0.542908 0
M  V30 6 C 1.992587 -3.088718 -0.021296 0
M  V30 7 N 1.261449 -2.288676 0.801810 0
M  V30 8 C 0.755164 -1.266986 0.088977 0
M  V30 9 C -0.041471 -0.156649 0.331444 0
M  V30 10 C -0.385571 0.733881 -0.690920 0
M  V30 11 C -1.241051 1.825870 -0.155788 0
M  V30 12 O -1.652591 2.670604 -1.181315 0
M  V30 13 C -0.440220 2.552059 0.871718 0
M  V30 14 C 0.737516 3.206877 0.591488 0
M  V30 15 C 1.391894 3.841154 1.643344 0
M  V30 16 C 0.848815 3.796544 2.921688 0
M  V30 17 C -0.336325 3.131919 3.177691 0
M  V30 18 C -0.984573 2.504233 2.137929 0
M  V30 19 C -2.203991 1.730453 1.971915 0
M  V30 20 O -2.953549 1.500922 2.981506 0
M  V30 21 N -2.372488 1.324455 0.597875 0
M  V30 22 C -3.522135 0.553804 0.173218 0
M  V30 23 C -3.324492 -0.895585 0.253364 0
M  V30 24 C -3.679473 -1.473311 1.476140 0
M  V30 25 C -3.560907 -2.826910 1.726405 0
M  V30 26 C -3.076949 -3.664382 0.751397 0
M  V30 27 C -2.722121 -3.119027 -0.457221 0
M  V30 28 I -1.955195 -4.222935 -2.097202 0
M  V30 29 C -2.848578 -1.764760 -0.686026 0
M  V30 30 C 0.075566 0.506650 -1.970901 0
M  V30 31 C 0.866882 -0.598819 -2.204760 0
M  V30 32 C 1.213000 -1.481921 -1.211103 0
M  V30 33 N 1.964810 -2.594185 -1.263147 0
M  V30 34 H 5.916349 -5.472928 3.151959 0
M  V30 35 H 6.198021 -3.943129 2.324441 0
M  V30 36 H 6.683767 -5.440752 1.468953 0
M  V30 37 H 2.094456 -5.151267 0.563527 0
M  V30 38 H -0.328332 -0.104522 1.372597 0
M  V30 39 H -2.506953 3.096050 -0.868369 0
M  V30 40 H 1.212491 3.279265 -0.377246 0
M  V30 41 H 2.321670 4.373362 1.489961 0
M  V30 42 H 1.389023 4.303941 3.718212 0
M  V30 43 H -0.772277 3.088874 4.171539 0
M  V30 44 H -3.812311 0.837416 -0.881547 0
M  V30 45 H -4.410144 0.867747 0.777988 0
M  V30 46 H -4.078245 -0.924182 2.339145 0
M  V30 47 H -3.827975 -3.289828 2.658324 0
M  V30 48 H -2.937030 -4.730734 0.820700 0
M  V30 49 H -2.577447 -1.281848 -1.637760 0
M  V30 50 H -0.257407 1.257537 -2.656178 0
M  V30 51 H 1.195611 -0.716409 -3.238922 0
M  V30 52 H 2.459139 -3.046055 -2.063850 0
M  V30 END ATOM
M  V30 BEGIN BOND
M  V30 1 1 1 2
M  V30 2 1 2 3
M  V30 3 2 3 4
M  V30 4 1 3 5
M  V30 5 1 5 6
M  V30 6 2 6 7
M  V30 7 1 7 8
M  V30 8 2 8 9
M  V30 9 1 9 10
M  V30 10 1 10 11
M  V30 11 1 11 12
M  V30 12 1 11 13
M  V30 13 2 13 14
M  V30 14 1 14 15
M  V30 15 2 15 16
M  V30 16 1 16 17
M  V30 17 2 17 18
M  V30 18 1 18 19
M  V30 19 2 19 20
M  V30 20 1 19 21
M  V30 21 1 21 22
M  V30 22 1 22 23
M  V30 23 2 23 24
M  V30 24 1 24 25
M  V30 25 2 25 26
M  V30 26 1 26 27
M  V30 27 1 27 28
M  V30 28 2 27 29
M  V30 29 2 10 30
M  V30 30 1 30 31
M  V30 31 2 31 32
M  V30 32 1 32 33
M  V30 33 1 33 6
M  V30 34 1 32 8
M  V30 35 1 21 11
M  V30 36 1 29 23
M  V30 37 1 18 13
M  V30 38 1 1 34
M  V30 39 1 1 35
M  V30 40 1 1 36
M  V30 41 1 5 37
M  V30 42 1 9 38
M  V30 43 1 12 39
M  V30 44 1 14 40
M  V30 45 1 15 41
M  V30 46 1 16 42
M  V30 47 1 17 43
M  V30 48 1 22 44
M  V30 49 1 22 45
M  V30 50 1 24 46
M  V30 51 1 25 47
M  V30 52 1 26 48
M  V30 53 1 29 49
M  V30 54 1 30 50
M  V30 55 1 31 51
M  V30 56 1 33 52
M  V30 END BOND
M  V30 END CTAB
M  END
>  <Dataset>  (504) 
ChEMBL_Kinases

>  <Ligand_Instance>  (504) 
nan

>  <PDB_ID>  (504) 
nan

>  <Standardized_SMILES>  (504) 
COC(=O)Nc1nc2cc(C3(O)c4ccccc4C(=O)N3Cc3cccc(I)c3)ccc2[nH]1

>  <Name>  (504) 
nan

>  <Pocket>  (504) 
nan

>  <ATP_Site>  (504) 
nan

>  <Peripheral>  (504) 
nan

>  <Num_H_Atoms_ProtBoundConf>  (504) 
nan

>  <Num_Resolved_Atoms>  (504) 
nan

>  <Num_Not_Resolved_Atoms>  (504) 
nan

$$$$
CHEMBL3947799
     RDKit          3D

  0  0  0  0  0  0  0  0  0  0999 V3000
M  V30 BEGIN CTAB
M  V30 COUNTS 47 50 0 0 0
M  V30 BEGIN ATOM
M  V30 1 C 4.452806 -2.199525 2.010280 0
M  V30 2 O 4.213116 -1.018624 1.306184 0
M  V30 3 C 4.483619 0.263702 1.752410 0
M  V30 4 C 5.048264 0.383998 3.024501 0
M  V30 5 C 5.339881 1.640230 3.522449 0
M  V30 6 C 5.084588 2.777754 2.788536 0
M  V30 7 C 4.521736 2.667403 1.519171 0
M  V30 8 C 4.230476 1.406951 1.022706 0
M  V30 9 C 3.634526 1.184596 -0.303926 0
M  V30 10 O 4.367662 0.311724 -1.100118 0
M  V30 11 C 2.225301 0.693790 -0.144549 0
M  V30 12 C 1.509960 0.232313 -1.236015 0
M  V30 13 C 0.216134 -0.210678 -1.046575 0
M  V30 14 C -0.370245 -0.200804 0.202756 0
M  V30 15 C -1.755940 -0.666040 0.449969 0
M  V30 16 N -2.546021 -1.136699 -0.560316 0
M  V30 17 C -3.751654 -1.482927 -0.022961 0
M  V30 18 C -4.853668 -2.002863 -0.669833 0
M  V30 19 C -5.926863 -2.247626 0.161823 0
M  V30 20 C -7.188588 -2.797165 -0.323513 0
M  V30 21 N -7.276887 -3.081621 -1.730946 0
M  V30 22 O -8.292736 -3.109900 0.190433 0
M  V30 23 C -5.913363 -1.996818 1.535796 0
M  V30 24 C -4.766003 -1.475543 2.097521 0
M  V30 25 C -3.655552 -1.206624 1.324219 0
M  V30 26 N -2.437814 -0.708612 1.610524 0
M  V30 27 C 0.322248 0.258677 1.329950 0
M  V30 28 C 1.609725 0.689326 1.085189 0
M  V30 29 H 5.441434 -2.277044 2.482246 0
M  V30 30 H 3.704832 -2.347627 2.831230 0
M  V30 31 H 4.263107 -3.037929 1.286481 0
M  V30 32 H 5.247563 -0.510189 3.597992 0
M  V30 33 H 5.779525 1.740866 4.512510 0
M  V30 34 H 5.291960 3.790826 3.126858 0
M  V30 35 H 4.287861 3.508311 0.873846 0
M  V30 36 H 3.535841 2.125520 -0.899528 0
M  V30 37 H 3.918697 -0.586667 -1.097678 0
M  V30 38 H 1.938985 0.211791 -2.223572 0
M  V30 39 H -0.408071 -0.585885 -1.846395 0
M  V30 40 H -4.913074 -2.210562 -1.708409 0
M  V30 41 H -6.871571 -2.373511 -2.381240 0
M  V30 42 H -7.637408 -3.814191 -2.376928 0
M  V30 43 H -6.761352 -2.192941 2.176893 0
M  V30 44 H -4.708354 -1.266084 3.150937 0
M  V30 45 H -2.067748 -0.407829 2.533230 0
M  V30 46 H -0.120316 0.274192 2.317587 0
M  V30 47 H 2.143468 1.046287 1.969869 0
M  V30 END ATOM
M  V30 BEGIN BOND
M  V30 1 1 1 2
M  V30 2 1 2 3
M  V30 3 2 3 4
M  V30 4 1 4 5
M  V30 5 2 5 6
M  V30 6 1 6 7
M  V30 7 2 7 8
M  V30 8 1 8 9
M  V30 9 1 9 10
M  V30 10 1 9 11
M  V30 11 2 11 12
M  V30 12 1 12 13
M  V30 13 2 13 14
M  V30 14 1 14 15
M  V30 15 2 15 16
M  V30 16 1 16 17
M  V30 17 2 17 18
M  V30 18 1 18 19
M  V30 19 1 19 20
M  V30 20 1 20 21
M  V30 21 2 20 22
M  V30 22 2 19 23
M  V30 23 1 23 24
M  V30 24 2 24 25
M  V30 25 1 25 26
M  V30 26 1 14 27
M  V30 27 2 27 28
M  V30 28 1 8 3
M  V30 29 1 28 11
M  V30 30 1 26 15
M  V30 31 1 25 17
M  V30 32 1 1 29
M  V30 33 1 1 30
M  V30 34 1 1 31
M  V30 35 1 4 32
M  V30 36 1 5 33
M  V30 37 1 6 34
M  V30 38 1 7 35
M  V30 39 1 9 36
M  V30 40 1 10 37
M  V30 41 1 12 38
M  V30 42 1 13 39
M  V30 43 1 18 40
M  V30 44 1 21 41
M  V30 45 1 21 42
M  V30 46 1 23 43
M  V30 47 1 24 44
M  V30 48 1 26 45
M  V30 49 1 27 46
M  V30 50 1 28 47
M  V30 END BOND
M  V30 END CTAB
M  END
>  <Dataset>  (505) 
ChEMBL_Kinases

>  <Ligand_Instance>  (505) 
nan

>  <PDB_ID>  (505) 
nan

>  <Standardized_SMILES>  (505) 
COc1ccccc1C(O)c1ccc(-c2nc3cc(C(N)=O)ccc3[nH]2)cc1

>  <Name>  (505) 
nan

>  <Pocket>  (505) 
nan

>  <ATP_Site>  (505) 
nan

>  <Peripheral>  (505) 
nan

>  <Num_H_Atoms_ProtBoundConf>  (505) 
nan

>  <Num_Resolved_Atoms>  (505) 
nan

>  <Num_Not_Resolved_Atoms>  (505) 
nan

$$$$
CHEMBL4875495
     RDKit          3D

  0  0  0  0  0  0  0  0  0  0999 V3000
M  V30 BEGIN CTAB
M  V30 COUNTS 51 54 0 0 0
M  V30 BEGIN ATOM
M  V30 1 C 1.112351 -4.497263 4.529539 0
M  V30 2 N 2.439795 -3.948754 4.722998 0
M  V30 3 N 3.455951 -4.481727 5.374719 0
M  V30 4 C 4.510200 -3.650554 5.319051 0
M  V30 5 C 4.138076 -2.542318 4.597660 0
M  V30 6 C 2.813747 -2.754323 4.227623 0
M  V30 7 C 2.097309 -1.769491 3.446060 0
M  V30 8 C 2.679268 -1.160266 2.334504 0
M  V30 9 C 1.932440 -0.224028 1.632472 0
M  V30 10 C 0.631891 0.098179 2.030633 0
M  V30 11 C 0.067422 1.108872 1.125477 0
M  V30 12 O 0.374091 2.281351 0.808592 0
M  V30 13 N -1.114376 0.645397 0.442196 0
M  V30 14 C -1.866712 1.420655 -0.495475 0 CFG=2
M  V30 15 C -3.297418 1.689303 -0.068864 0
M  V30 16 N -3.990535 2.172268 -1.230856 0
M  V30 17 C -3.137940 2.782892 -2.225166 0
M  V30 18 C -2.192357 1.780000 -2.864100 0
M  V30 19 C -1.980901 0.702132 -1.823682 0 CFG=1
M  V30 20 C -0.874234 -0.214259 -2.112246 0
M  V30 21 C -1.177110 -1.552478 -2.362862 0
M  V30 22 C -0.195698 -2.498037 -2.646132 0
M  V30 23 F -0.553360 -3.799002 -2.884343 0
M  V30 24 C 1.112853 -2.107414 -2.681357 0
M  V30 25 C 1.434137 -0.783550 -2.435346 0
M  V30 26 F 2.747330 -0.413218 -2.475019 0
M  V30 27 C 0.445590 0.147947 -2.154370 0
M  V30 28 C 0.068343 -0.503006 3.120895 0
M  V30 29 Cl -1.550500 0.014114 3.472720 0
M  V30 30 C 0.814533 -1.434970 3.818033 0
M  V30 31 H 0.673109 -4.154247 3.553857 0
M  V30 32 H 1.135156 -5.613710 4.513623 0
M  V30 33 H 0.434301 -4.168906 5.344045 0
M  V30 34 H 5.450184 -3.896749 5.791429 0
M  V30 35 H 4.825986 -1.713957 4.410202 0
M  V30 36 H 3.690077 -1.452737 2.077115 0
M  V30 37 H 2.485936 0.180417 0.792063 0
M  V30 38 H -1.597322 -0.284660 0.510961 0
M  V30 39 H -1.424791 2.448674 -0.647900 0
M  V30 40 H -3.364819 2.356039 0.793855 0
M  V30 41 H -3.736611 0.708184 0.206320 0
M  V30 42 H -4.672298 2.898996 -0.934838 0
M  V30 43 H -3.811832 3.126369 -3.037203 0
M  V30 44 H -2.596860 3.677531 -1.863839 0
M  V30 45 H -2.627009 1.328621 -3.778990 0
M  V30 46 H -1.286134 2.322966 -3.148231 0
M  V30 47 H -2.932729 0.099235 -1.854155 0
M  V30 48 H -2.202180 -1.931382 -2.350545 0
M  V30 49 H 1.848048 -2.859404 -2.902551 0
M  V30 50 H 0.717813 1.162655 -1.968049 0
M  V30 51 H 0.295494 -1.869093 4.674139 0
M  V30 END ATOM
M  V30 BEGIN BOND
M  V30 1 1 1 2
M  V30 2 1 2 3
M  V30 3 2 3 4
M  V30 4 1 4 5
M  V30 5 2 5 6
M  V30 6 1 6 7
M  V30 7 2 7 8
M  V30 8 1 8 9
M  V30 9 2 9 10
M  V30 10 1 10 11
M  V30 11 2 11 12
M  V30 12 1 11 13
M  V30 13 1 13 14
M  V30 14 1 14 15
M  V30 15 1 15 16
M  V30 16 1 16 17
M  V30 17 1 17 18
M  V30 18 1 18 19
M  V30 19 1 19 20
M  V30 20 2 20 21
M  V30 21 1 21 22
M  V30 22 1 22 23
M  V30 23 2 22 24
M  V30 24 1 24 25
M  V30 25 1 25 26
M  V30 26 2 25 27
M  V30 27 1 10 28
M  V30 28 1 28 29
M  V30 29 2 28 30
M  V30 30 1 6 2
M  V30 31 1 30 7
M  V30 32 1 19 14
M  V30 33 1 27 20
M  V30 34 1 1 31
M  V30 35 1 1 32
M  V30 36 1 1 33
M  V30 37 1 4 34
M  V30 38 1 5 35
M  V30 39 1 8 36
M  V30 40 1 9 37
M  V30 41 1 13 38
M  V30 42 1 14 39 CFG=3
M  V30 43 1 15 40
M  V30 44 1 15 41
M  V30 45 1 16 42
M  V30 46 1 17 43
M  V30 47 1 17 44
M  V30 48 1 18 45
M  V30 49 1 18 46
M  V30 50 1 19 47 CFG=1
M  V30 51 1 21 48
M  V30 52 1 24 49
M  V30 53 1 27 50
M  V30 54 1 30 51
M  V30 END BOND
M  V30 END CTAB
M  END
>  <Dataset>  (506) 
ChEMBL_Kinases

>  <Ligand_Instance>  (506) 
nan

>  <PDB_ID>  (506) 
nan

>  <Standardized_SMILES>  (506) 
Cn1nccc1-c1ccc(C(=O)N[C@@H]2CNCC[C@H]2c2cc(F)cc(F)c2)c(Cl)c1

>  <Name>  (506) 
nan

>  <Pocket>  (506) 
nan

>  <ATP_Site>  (506) 
nan

>  <Peripheral>  (506) 
nan

>  <Num_H_Atoms_ProtBoundConf>  (506) 
nan

>  <Num_Resolved_Atoms>  (506) 
nan

>  <Num_Not_Resolved_Atoms>  (506) 
nan

$$$$
CHEMBL3948906
     RDKit          3D

  0  0  0  0  0  0  0  0  0  0999 V3000
M  V30 BEGIN CTAB
M  V30 COUNTS 47 50 0 0 0
M  V30 BEGIN ATOM
M  V30 1 C 0.279890 -8.916147 -1.404319 0
M  V30 2 N 0.333452 -7.466101 -1.278751 0
M  V30 3 C 0.929114 -6.749697 -2.349758 0
M  V30 4 O 1.387730 -7.345150 -3.358032 0
M  V30 5 C 1.042904 -5.298303 -2.343851 0
M  V30 6 C 1.635554 -4.680373 -3.424739 0
M  V30 7 C 1.777554 -3.288758 -3.484542 0
M  V30 8 C 1.319425 -2.494691 -2.445299 0
M  V30 9 N 1.291632 -1.169091 -2.177641 0
M  V30 10 C 0.709665 -0.936111 -0.981726 0
M  V30 11 C 0.502227 0.372679 -0.359115 0
M  V30 12 C 0.937094 1.489174 -1.046019 0
M  V30 13 C 0.747858 2.749895 -0.467337 0
M  V30 14 C 0.126348 2.821264 0.781418 0
M  V30 15 O -0.063058 4.082447 1.360515 0
M  V30 16 C -0.686685 4.181411 2.617829 0
M  V30 17 C 0.238815 4.124933 3.663011 0
M  V30 18 C -0.200079 4.207277 4.956786 0
M  V30 19 C -1.558447 4.346444 5.235125 0
M  V30 20 O -2.066166 4.435118 6.519770 0
M  V30 21 C -1.294708 4.397091 7.682459 0
M  V30 22 C -2.456341 4.399993 4.181040 0
M  V30 23 C -2.024807 4.317742 2.867524 0
M  V30 24 C -0.304365 1.674599 1.455222 0
M  V30 25 C -0.113948 0.425352 0.876026 0
M  V30 26 N 0.362640 -2.143747 -0.484290 0
M  V30 27 C 0.728072 -3.114829 -1.367347 0
M  V30 28 C 0.592186 -4.493543 -1.317651 0
M  V30 29 H 0.044650 -9.318752 -0.377837 0
M  V30 30 H 1.289593 -9.329631 -1.631100 0
M  V30 31 H -0.520498 -9.261832 -2.058416 0
M  V30 32 H -0.045732 -6.975078 -0.445329 0
M  V30 33 H 2.025278 -5.203308 -4.284370 0
M  V30 34 H 2.242924 -2.804221 -4.333405 0
M  V30 35 H 1.686137 -0.480225 -2.852693 0
M  V30 36 H 1.418942 1.430040 -2.014775 0
M  V30 37 H 1.067617 3.670829 -0.956404 0
M  V30 38 H 1.308692 4.020114 3.598125 0
M  V30 39 H 0.425932 4.174450 5.836887 0
M  V30 40 H -0.671412 5.273670 7.864014 0
M  V30 41 H -0.612989 3.511227 7.720112 0
M  V30 42 H -1.991570 4.271062 8.543740 0
M  V30 43 H -3.523720 4.506840 4.318961 0
M  V30 44 H -2.646491 4.350135 1.986914 0
M  V30 45 H -0.786764 1.738603 2.425845 0
M  V30 46 H -0.423040 -0.504230 1.342475 0
M  V30 47 H 0.128980 -4.942840 -0.467455 0
M  V30 END ATOM
M  V30 BEGIN BOND
M  V30 1 1 1 2
M  V30 2 1 2 3
M  V30 3 2 3 4
M  V30 4 1 3 5
M  V30 5 2 5 6
M  V30 6 1 6 7
M  V30 7 2 7 8
M  V30 8 1 8 9
M  V30 9 1 9 10
M  V30 10 1 10 11
M  V30 11 2 11 12
M  V30 12 1 12 13
M  V30 13 2 13 14
M  V30 14 1 14 15
M  V30 15 1 15 16
M  V30 16 2 16 17
M  V30 17 1 17 18
M  V30 18 2 18 19
M  V30 19 1 19 20
M  V30 20 1 20 21
M  V30 21 1 19 22
M  V30 22 2 22 23
M  V30 23 1 14 24
M  V30 24 2 24 25
M  V30 25 2 10 26
M  V30 26 1 26 27
M  V30 27 2 27 28
M  V30 28 1 28 5
M  V30 29 1 27 8
M  V30 30 1 25 11
M  V30 31 1 23 16
M  V30 32 1 1 29
M  V30 33 1 1 30
M  V30 34 1 1 31
M  V30 35 1 2 32
M  V30 36 1 6 33
M  V30 37 1 7 34
M  V30 38 1 9 35
M  V30 39 1 12 36
M  V30 40 1 13 37
M  V30 41 1 17 38
M  V30 42 1 18 39
M  V30 43 1 21 40
M  V30 44 1 21 41
M  V30 45 1 21 42
M  V30 46 1 22 43
M  V30 47 1 23 44
M  V30 48 1 24 45
M  V30 49 1 25 46
M  V30 50 1 28 47
M  V30 END BOND
M  V30 END CTAB
M  END
>  <Dataset>  (507) 
ChEMBL_Kinases

>  <Ligand_Instance>  (507) 
nan

>  <PDB_ID>  (507) 
nan

>  <Standardized_SMILES>  (507) 
CNC(=O)c1ccc2[nH]c(-c3ccc(Oc4ccc(OC)cc4)cc3)nc2c1

>  <Name>  (507) 
nan

>  <Pocket>  (507) 
nan

>  <ATP_Site>  (507) 
nan

>  <Peripheral>  (507) 
nan

>  <Num_H_Atoms_ProtBoundConf>  (507) 
nan

>  <Num_Resolved_Atoms>  (507) 
nan

>  <Num_Not_Resolved_Atoms>  (507) 
nan

$$$$
CHEMBL3956375
     RDKit          3D

  0  0  0  0  0  0  0  0  0  0999 V3000
M  V30 BEGIN CTAB
M  V30 COUNTS 38 41 0 0 0
M  V30 BEGIN ATOM
M  V30 1 O 3.774471 -7.629965 2.440073 0
M  V30 2 C 2.794299 -7.076932 1.887038 0
M  V30 3 O 1.844258 -7.884410 1.282617 0
M  V30 4 C 2.672809 -5.629953 1.888404 0
M  V30 5 C 3.617386 -4.829398 2.489429 0
M  V30 6 C 3.589780 -3.452152 2.543165 0
M  V30 7 C 2.514383 -2.832251 1.936892 0
M  V30 8 N 2.208169 -1.524489 1.821642 0
M  V30 9 C 1.036462 -1.435912 1.131036 0
M  V30 10 C 0.274472 -0.242267 0.739446 0
M  V30 11 C -0.918342 -0.336061 0.025520 0
M  V30 12 C -1.558444 0.848659 -0.294029 0
M  V30 13 C -1.053043 2.081199 0.069768 0
M  V30 14 C -1.850697 3.253279 -0.343860 0
M  V30 15 C -2.561233 3.169478 -1.515911 0
M  V30 16 C -3.337082 4.207658 -1.990861 0
M  V30 17 C -3.362430 5.354003 -1.213708 0
M  V30 18 Cl -4.297647 6.770779 -1.667772 0
M  V30 19 C -2.665303 5.465783 -0.042756 0
M  V30 20 C -1.892116 4.416160 0.419742 0
M  V30 21 C 0.130521 2.168625 0.777795 0
M  V30 22 C 0.786476 0.997559 1.107558 0
M  V30 23 N 0.633963 -2.701755 0.827993 0
M  V30 24 C 1.537031 -3.585644 1.318819 0
M  V30 25 C 1.613195 -4.978175 1.293089 0
M  V30 26 H 1.554560 -8.756257 1.715891 0
M  V30 27 H 4.449120 -5.367096 2.955407 0
M  V30 28 H 4.371026 -2.893635 3.034857 0
M  V30 29 H 2.734209 -0.677289 2.176765 0
M  V30 30 H -1.296574 -1.306912 -0.249355 0
M  V30 31 H -2.490301 0.701358 -0.855612 0
M  V30 32 H -2.571739 2.284370 -2.162879 0
M  V30 33 H -3.905632 4.176705 -2.903203 0
M  V30 34 H -2.648531 6.334296 0.602005 0
M  V30 35 H -1.287231 4.365308 1.330264 0
M  V30 36 H 0.487551 3.166445 1.041147 0
M  V30 37 H 1.715518 1.105860 1.665408 0
M  V30 38 H 0.831406 -5.548102 0.800356 0
M  V30 END ATOM
M  V30 BEGIN BOND
M  V30 1 2 1 2
M  V30 2 1 2 3
M  V30 3 1 2 4
M  V30 4 2 4 5
M  V30 5 1 5 6
M  V30 6 2 6 7
M  V30 7 1 7 8
M  V30 8 1 8 9
M  V30 9 1 9 10
M  V30 10 2 10 11
M  V30 11 1 11 12
M  V30 12 2 12 13
M  V30 13 1 13 14
M  V30 14 2 14 15
M  V30 15 1 15 16
M  V30 16 2 16 17
M  V30 17 1 17 18
M  V30 18 1 17 19
M  V30 19 2 19 20
M  V30 20 1 13 21
M  V30 21 2 21 22
M  V30 22 2 9 23
M  V30 23 1 23 24
M  V30 24 2 24 25
M  V30 25 1 25 4
M  V30 26 1 24 7
M  V30 27 1 22 10
M  V30 28 1 20 14
M  V30 29 1 3 26
M  V30 30 1 5 27
M  V30 31 1 6 28
M  V30 32 1 8 29
M  V30 33 1 11 30
M  V30 34 1 12 31
M  V30 35 1 15 32
M  V30 36 1 16 33
M  V30 37 1 19 34
M  V30 38 1 20 35
M  V30 39 1 21 36
M  V30 40 1 22 37
M  V30 41 1 25 38
M  V30 END BOND
M  V30 END CTAB
M  END
>  <Dataset>  (508) 
ChEMBL_Kinases

>  <Ligand_Instance>  (508) 
nan

>  <PDB_ID>  (508) 
nan

>  <Standardized_SMILES>  (508) 
O=C(O)c1ccc2[nH]c(-c3ccc(-c4ccc(Cl)cc4)cc3)nc2c1

>  <Name>  (508) 
nan

>  <Pocket>  (508) 
nan

>  <ATP_Site>  (508) 
nan

>  <Peripheral>  (508) 
nan

>  <Num_H_Atoms_ProtBoundConf>  (508) 
nan

>  <Num_Resolved_Atoms>  (508) 
nan

>  <Num_Not_Resolved_Atoms>  (508) 
nan

$$$$
CHEMBL3702113
     RDKit          3D

  0  0  0  0  0  0  0  0  0  0999 V3000
M  V30 BEGIN CTAB
M  V30 COUNTS 75 80 0 0 0
M  V30 BEGIN ATOM
M  V30 1 C 6.198160 -2.610472 5.601079 0
M  V30 2 N 5.127219 -3.171476 4.824380 0
M  V30 3 C 3.848211 -2.852998 5.380119 0
M  V30 4 C 5.230493 -2.853209 3.416171 0
M  V30 5 C 4.092338 -3.447937 2.645903 0
M  V30 6 C 4.077206 -2.979114 1.223890 0
M  V30 7 N 4.282911 -1.573960 1.076148 0
M  V30 8 C 3.450868 -0.625501 0.457895 0
M  V30 9 C 2.217824 -0.903404 -0.067383 0
M  V30 10 C 1.507479 0.123213 -0.647203 0
M  V30 11 C 1.933550 1.428898 -0.748018 0
M  V30 12 N 1.208235 2.497277 -1.327188 0
M  V30 13 C -0.095003 2.514855 -1.875830 0
M  V30 14 N -0.451336 3.673707 -2.502063 0
M  V30 15 C -1.651297 3.858087 -3.060019 0
M  V30 16 C -2.557816 2.834762 -2.996085 0
M  V30 17 C -3.847848 2.774358 -3.492766 0
M  V30 18 C -4.597617 3.699403 -4.188223 0
M  V30 19 C -5.876245 3.350629 -4.566973 0
M  V30 20 N -6.316098 2.124322 -4.233938 0
M  V30 21 C -5.573628 1.239950 -3.558697 0
M  V30 22 O -6.115457 -0.001942 -3.263773 0
M  V30 23 C -4.278800 1.502085 -3.136192 0
M  V30 24 N -3.272894 0.869222 -2.463559 0
M  V30 25 C -3.507283 -0.463234 -1.977963 0
M  V30 26 C -2.201180 -1.040317 -1.486407 0
M  V30 27 C -2.414155 -2.374000 -0.774647 0
M  V30 28 C -3.288265 -2.174449 0.447989 0
M  V30 29 C -4.481980 -3.090584 0.366451 0
M  V30 30 C -2.541631 -2.349912 1.729577 0
M  V30 31 C -3.832316 -0.738574 0.454171 0
M  V30 32 C -4.501201 -0.547459 -0.880158 0
M  V30 33 C -2.193522 1.666430 -2.361687 0
M  V30 34 N -0.980931 1.513208 -1.812420 0
M  V30 35 N 3.147000 1.595679 -0.206329 0
M  V30 36 N 3.856556 0.648322 0.354420 0
M  V30 37 C 5.534706 -1.166380 1.677554 0
M  V30 38 C 5.366715 -1.382816 3.172663 0
M  V30 39 H 6.161920 -3.089194 6.613817 0
M  V30 40 H 6.074117 -1.503454 5.739055 0
M  V30 41 H 7.172018 -2.843269 5.158686 0
M  V30 42 H 3.239422 -3.762775 5.589488 0
M  V30 43 H 4.007446 -2.361202 6.361584 0
M  V30 44 H 3.271815 -2.117444 4.768173 0
M  V30 45 H 6.172355 -3.331992 3.045063 0
M  V30 46 H 4.300739 -4.556904 2.594518 0
M  V30 47 H 3.108638 -3.319756 3.121715 0
M  V30 48 H 4.820689 -3.555561 0.606119 0
M  V30 49 H 3.086292 -3.242895 0.804905 0
M  V30 50 H 1.818669 -1.896686 -0.026890 0
M  V30 51 H 0.553699 -0.132478 -1.054730 0
M  V30 52 H 1.759435 3.403821 -1.327684 0
M  V30 53 H -1.880834 4.798177 -3.544490 0
M  V30 54 H -4.233786 4.677228 -4.448569 0
M  V30 55 H -6.564268 3.983188 -5.113979 0
M  V30 56 H -6.018960 -0.703542 -4.003038 0
M  V30 57 H -3.840635 -1.133800 -2.840034 0
M  V30 58 H -1.722134 -0.416692 -0.720464 0
M  V30 59 H -1.464181 -1.233308 -2.289830 0
M  V30 60 H -2.763311 -3.175448 -1.448570 0
M  V30 61 H -1.417993 -2.680055 -0.400712 0
M  V30 62 H -4.627857 -3.475049 -0.684727 0
M  V30 63 H -5.433175 -2.552115 0.610076 0
M  V30 64 H -4.431096 -3.924491 1.097836 0
M  V30 65 H -3.174356 -1.944303 2.552831 0
M  V30 66 H -1.647572 -1.676914 1.695808 0
M  V30 67 H -2.292837 -3.406487 1.902361 0
M  V30 68 H -3.061454 -0.002776 0.665262 0
M  V30 69 H -4.654365 -0.664072 1.221996 0
M  V30 70 H -5.144605 0.345259 -0.759102 0
M  V30 71 H -5.214136 -1.377129 -1.089869 0
M  V30 72 H 6.328293 -1.817366 1.305176 0
M  V30 73 H 5.762244 -0.100708 1.456403 0
M  V30 74 H 4.391548 -0.908360 3.436349 0
M  V30 75 H 6.211365 -0.949229 3.705427 0
M  V30 END ATOM
M  V30 BEGIN BOND
M  V30 1 1 1 2
M  V30 2 1 2 3
M  V30 3 1 2 4
M  V30 4 1 4 5
M  V30 5 1 5 6
M  V30 6 1 6 7
M  V30 7 1 7 8
M  V30 8 2 8 9
M  V30 9 1 9 10
M  V30 10 2 10 11
M  V30 11 1 11 12
M  V30 12 1 12 13
M  V30 13 2 13 14
M  V30 14 1 14 15
M  V30 15 2 15 16
M  V30 16 1 16 17
M  V30 17 2 17 18
M  V30 18 1 18 19
M  V30 19 2 19 20
M  V30 20 1 20 21
M  V30 21 1 21 22
M  V30 22 2 21 23
M  V30 23 1 23 24
M  V30 24 1 24 25
M  V30 25 1 25 26
M  V30 26 1 26 27
M  V30 27 1 27 28
M  V30 28 1 28 29
M  V30 29 1 28 30
M  V30 30 1 28 31
M  V30 31 1 31 32
M  V30 32 1 24 33
M  V30 33 2 33 34
M  V30 34 1 11 35
M  V30 35 2 35 36
M  V30 36 1 7 37
M  V30 37 1 37 38
M  V30 38 1 38 4
M  V30 39 1 36 8
M  V30 40 1 34 13
M  V30 41 1 33 16
M  V30 42 1 23 17
M  V30 43 1 32 25
M  V30 44 1 1 39
M  V30 45 1 1 40
M  V30 46 1 1 41
M  V30 47 1 3 42
M  V30 48 1 3 43
M  V30 49 1 3 44
M  V30 50 1 4 45
M  V30 51 1 5 46
M  V30 52 1 5 47
M  V30 53 1 6 48
M  V30 54 1 6 49
M  V30 55 1 9 50
M  V30 56 1 10 51
M  V30 57 1 12 52
M  V30 58 1 15 53
M  V30 59 1 18 54
M  V30 60 1 19 55
M  V30 61 1 22 56
M  V30 62 1 25 57
M  V30 63 1 26 58
M  V30 64 1 26 59
M  V30 65 1 27 60
M  V30 66 1 27 61
M  V30 67 1 29 62
M  V30 68 1 29 63
M  V30 69 1 29 64
M  V30 70 1 30 65
M  V30 71 1 30 66
M  V30 72 1 30 67
M  V30 73 1 31 68
M  V30 74 1 31 69
M  V30 75 1 32 70
M  V30 76 1 32 71
M  V30 77 1 37 72
M  V30 78 1 37 73
M  V30 79 1 38 74
M  V30 80 1 38 75
M  V30 END BOND
M  V30 END CTAB
M  END
>  <Dataset>  (509) 
ChEMBL_Kinases

>  <Ligand_Instance>  (509) 
nan

>  <PDB_ID>  (509) 
nan

>  <Standardized_SMILES>  (509) 
CN(C)C1CCN(c2ccc(Nc3ncc4c5ccnc(O)c5n(C5CCC(C)(C)CC5)c4n3)nn2)CC1

>  <Name>  (509) 
nan

>  <Pocket>  (509) 
nan

>  <ATP_Site>  (509) 
nan

>  <Peripheral>  (509) 
nan

>  <Num_H_Atoms_ProtBoundConf>  (509) 
nan

>  <Num_Resolved_Atoms>  (509) 
nan

>  <Num_Not_Resolved_Atoms>  (509) 
nan

$$$$
CHEMBL3956374
     RDKit          3D

  0  0  0  0  0  0  0  0  0  0999 V3000
M  V30 BEGIN CTAB
M  V30 COUNTS 67 69 0 0 0
M  V30 BEGIN ATOM
M  V30 1 C 3.635975 -1.151704 1.772323 0
M  V30 2 C 4.715437 -0.616527 0.930617 0 CFG=2
M  V30 3 C 5.113477 0.757483 0.944610 0
M  V30 4 C 4.971361 2.056712 1.293302 0
M  V30 5 C 3.714541 2.070592 2.097887 0
M  V30 6 O 4.385078 1.259694 1.478916 0
M  V30 7 C 2.778375 2.891932 2.884573 0 CFG=1
M  V30 8 O 3.557040 4.111707 3.069832 0
M  V30 9 C 1.544573 3.375671 2.247059 0 CFG=1
M  V30 10 O 1.814604 3.972974 0.996753 0
M  V30 11 C 0.314297 2.565911 2.238874 0
M  V30 12 C 0.160899 1.396787 1.407897 0
M  V30 13 C -0.045365 0.090861 1.205567 0
M  V30 14 C -0.110550 -0.621409 -0.089556 0
M  V30 15 C -1.477731 -0.949417 -0.181464 0
M  V30 16 C -2.038826 -1.615361 -1.251316 0
M  V30 17 N -3.410749 -2.014878 -1.340226 0
M  V30 18 C -4.305377 -1.785343 -0.209155 0
M  V30 19 C -5.670676 -2.342902 -0.438812 0
M  V30 20 C -5.628783 -3.837762 -0.725375 0
M  V30 21 C -4.871699 -4.505496 0.393830 0
M  V30 22 N -5.721103 -4.426574 1.565066 0
M  V30 23 C -5.887506 -3.060207 1.944650 0
M  V30 24 C -6.460198 -2.169839 0.858575 0
M  V30 25 C -1.297003 -2.020048 -2.335129 0
M  V30 26 C 0.038202 -1.706377 -2.252160 0
M  V30 27 O 1.074554 -1.968302 -3.171154 0
M  V30 28 C 0.580327 -1.051771 -1.194395 0
M  V30 29 C 1.942419 -0.695586 -0.989480 0
M  V30 30 O 2.334386 -1.892388 -0.872161 0
M  V30 31 O 3.202601 -0.373108 -0.799602 0
M  V30 32 C 4.398517 -0.998149 -0.542395 0 CFG=1
M  V30 33 C 5.515476 -0.641076 -1.465145 0
M  V30 34 H 3.583237 -2.253066 1.540747 0
M  V30 35 H 3.865909 -1.154150 2.867685 0
M  V30 36 H 2.621647 -0.771631 1.568164 0
M  V30 37 H 5.621678 -1.283786 1.142069 0
M  V30 38 H 6.026231 0.801559 0.331779 0
M  V30 39 H 5.671630 2.897370 1.014590 0
M  V30 40 H 2.628299 2.511065 3.896746 0
M  V30 41 H 4.361573 3.919857 3.584546 0
M  V30 42 H 1.252249 4.306800 2.867778 0
M  V30 43 H 2.677985 4.467717 1.132919 0
M  V30 44 H 0.108650 2.266647 3.332872 0
M  V30 45 H -0.614947 3.227014 2.067279 0
M  V30 46 H 0.299873 1.857736 0.419985 0
M  V30 47 H -0.194150 -0.549039 2.086131 0
M  V30 48 H -2.283591 -0.746169 0.543936 0
M  V30 49 H -3.839966 -2.462215 -2.152544 0
M  V30 50 H -3.890019 -2.075854 0.759543 0
M  V30 51 H -4.445047 -0.665435 -0.129589 0
M  V30 52 H -6.204347 -1.829951 -1.232324 0
M  V30 53 H -5.163810 -3.990744 -1.718345 0
M  V30 54 H -6.652681 -4.210492 -0.706799 0
M  V30 55 H -3.876832 -4.053919 0.587121 0
M  V30 56 H -4.671875 -5.576580 0.119350 0
M  V30 57 H -5.319201 -4.935435 2.382700 0
M  V30 58 H -4.982344 -2.593655 2.396528 0
M  V30 59 H -6.642327 -3.037861 2.788640 0
M  V30 60 H -7.500521 -2.509742 0.665594 0
M  V30 61 H -6.418815 -1.136018 1.191995 0
M  V30 62 H -1.551792 -2.537520 -3.242127 0
M  V30 63 H 0.840384 -2.539662 -3.950471 0
M  V30 64 H 4.307793 -2.084004 -0.521894 0
M  V30 65 H 5.615433 0.410663 -1.728920 0
M  V30 66 H 5.456954 -1.330967 -2.333756 0
M  V30 67 H 6.456927 -0.944845 -0.939958 0
M  V30 END ATOM
M  V30 BEGIN BOND
M  V30 1 1 1 2
M  V30 2 1 2 3
M  V30 3 2 3 4
M  V30 4 1 4 5
M  V30 5 2 5 6
M  V30 6 1 5 7
M  V30 7 1 7 8
M  V30 8 1 7 9
M  V30 9 1 9 10
M  V30 10 1 9 11
M  V30 11 1 11 12
M  V30 12 2 12 13
M  V30 13 1 13 14
M  V30 14 2 14 15
M  V30 15 1 15 16
M  V30 16 1 16 17
M  V30 17 1 17 18
M  V30 18 1 18 19
M  V30 19 1 19 20
M  V30 20 1 20 21
M  V30 21 1 21 22
M  V30 22 1 22 23
M  V30 23 1 23 24
M  V30 24 2 16 25
M  V30 25 1 25 26
M  V30 26 1 26 27
M  V30 27 2 26 28
M  V30 28 1 28 29
M  V30 29 2 29 30
M  V30 30 1 29 31
M  V30 31 1 31 32
M  V30 32 1 32 33
M  V30 33 1 32 2
M  V30 34 1 28 14
M  V30 35 1 24 19
M  V30 36 1 1 34
M  V30 37 1 1 35
M  V30 38 1 1 36
M  V30 39 1 2 37 CFG=1
M  V30 40 1 3 38
M  V30 41 1 4 39
M  V30 42 1 7 40 CFG=1
M  V30 43 1 8 41
M  V30 44 1 9 42 CFG=1
M  V30 45 1 10 43
M  V30 46 1 11 44
M  V30 47 1 11 45
M  V30 48 1 12 46
M  V30 49 1 13 47
M  V30 50 1 15 48
M  V30 51 1 17 49
M  V30 52 1 18 50
M  V30 53 1 18 51
M  V30 54 1 19 52
M  V30 55 1 20 53
M  V30 56 1 20 54
M  V30 57 1 21 55
M  V30 58 1 21 56
M  V30 59 1 22 57
M  V30 60 1 23 58
M  V30 61 1 23 59
M  V30 62 1 24 60
M  V30 63 1 24 61
M  V30 64 1 25 62
M  V30 65 1 27 63
M  V30 66 1 32 64 CFG=1
M  V30 67 1 33 65
M  V30 68 1 33 66
M  V30 69 1 33 67
M  V30 END BOND
M  V30 END CTAB
M  END
>  <Dataset>  (510) 
ChEMBL_Kinases

>  <Ligand_Instance>  (510) 
nan

>  <PDB_ID>  (510) 
nan

>  <Standardized_SMILES>  (510) 
C[C@@H]1/C=C\C(=O)[C@@H](O)[C@@H](O)C/C=C/c2cc(NCC3CCNCC3)cc(O)c2C(=O)O[C@H]1C

>  <Name>  (510) 
nan

>  <Pocket>  (510) 
nan

>  <ATP_Site>  (510) 
nan

>  <Peripheral>  (510) 
nan

>  <Num_H_Atoms_ProtBoundConf>  (510) 
nan

>  <Num_Resolved_Atoms>  (510) 
nan

>  <Num_Not_Resolved_Atoms>  (510) 
nan

$$$$
CHEMBL4874485
     RDKit          3D

  0  0  0  0  0  0  0  0  0  0999 V3000
M  V30 BEGIN CTAB
M  V30 COUNTS 43 46 0 0 0
M  V30 BEGIN ATOM
M  V30 1 C 1.559845 -5.623228 2.604099 0
M  V30 2 S 0.846558 -6.183168 1.082695 0
M  V30 3 O 1.096295 -7.666264 0.999332 0
M  V30 4 O -0.612606 -5.968521 0.995795 0
M  V30 5 N 1.732019 -5.440970 -0.203013 0
M  V30 6 C 1.757002 -4.026903 -0.333159 0
M  V30 7 C 0.598065 -3.270662 -0.206021 0
M  V30 8 C 0.645613 -1.895700 -0.336337 0
M  V30 9 C 1.850184 -1.266415 -0.594444 0
M  V30 10 C 1.790280 0.201101 -0.714916 0
M  V30 11 C 2.620635 0.946728 -1.519236 0
M  V30 12 N 2.515129 2.286938 -1.585324 0
M  V30 13 C 1.598788 2.984085 -0.875928 0
M  V30 14 N 1.268765 4.280579 -0.743521 0
M  V30 15 N 0.253254 4.407844 0.118079 0
M  V30 16 C -0.105457 3.186413 0.571384 0
M  V30 17 C -1.185709 2.909277 1.536303 0
M  V30 18 C -0.935572 2.020888 2.575757 0
M  V30 19 C -1.927403 1.727474 3.511554 0
M  V30 20 C -3.177486 2.309303 3.429897 0
M  V30 21 O -4.119438 1.975467 4.391780 0
M  V30 22 C -3.404041 3.194329 2.381890 0
M  V30 23 C -2.438852 3.499279 1.445443 0
M  V30 24 C 0.740696 2.287036 -0.053306 0
M  V30 25 C 0.849290 0.930440 0.011937 0
M  V30 26 C 3.026649 -1.975329 -0.728707 0
M  V30 27 C 2.938174 -3.364801 -0.590188 0
M  V30 28 H 1.667233 -6.473204 3.336230 0
M  V30 29 H 2.604737 -5.266743 2.442380 0
M  V30 30 H 0.983161 -4.835625 3.093905 0
M  V30 31 H 2.292066 -5.927329 -0.951548 0
M  V30 32 H -0.300336 -3.853890 -0.003711 0
M  V30 33 H -0.322944 -1.444849 -0.214126 0
M  V30 34 H 3.361288 0.400881 -2.094588 0
M  V30 35 H 1.784609 5.033283 -1.277303 0
M  V30 36 H -0.002417 1.517085 2.729687 0
M  V30 37 H -1.724505 1.026623 4.328316 0
M  V30 38 H -5.098285 2.240296 4.313009 0
M  V30 39 H -4.383700 3.629383 2.345497 0
M  V30 40 H -2.638167 4.191937 0.637321 0
M  V30 41 H 0.191860 0.349109 0.646818 0
M  V30 42 H 3.943123 -1.462574 -0.927871 0
M  V30 43 H 3.836570 -3.968984 -0.687071 0
M  V30 END ATOM
M  V30 BEGIN BOND
M  V30 1 1 1 2
M  V30 2 2 2 3
M  V30 3 2 2 4
M  V30 4 1 2 5
M  V30 5 1 5 6
M  V30 6 2 6 7
M  V30 7 1 7 8
M  V30 8 2 8 9
M  V30 9 1 9 10
M  V30 10 2 10 11
M  V30 11 1 11 12
M  V30 12 2 12 13
M  V30 13 1 13 14
M  V30 14 1 14 15
M  V30 15 2 15 16
M  V30 16 1 16 17
M  V30 17 2 17 18
M  V30 18 1 18 19
M  V30 19 2 19 20
M  V30 20 1 20 21
M  V30 21 1 20 22
M  V30 22 2 22 23
M  V30 23 1 16 24
M  V30 24 2 24 25
M  V30 25 1 9 26
M  V30 26 2 26 27
M  V30 27 1 27 6
M  V30 28 1 25 10
M  V30 29 1 24 13
M  V30 30 1 23 17
M  V30 31 1 1 28
M  V30 32 1 1 29
M  V30 33 1 1 30
M  V30 34 1 5 31
M  V30 35 1 7 32
M  V30 36 1 8 33
M  V30 37 1 11 34
M  V30 38 1 14 35
M  V30 39 1 18 36
M  V30 40 1 19 37
M  V30 41 1 21 38
M  V30 42 1 22 39
M  V30 43 1 23 40
M  V30 44 1 25 41
M  V30 45 1 26 42
M  V30 46 1 27 43
M  V30 END BOND
M  V30 END CTAB
M  END
>  <Dataset>  (511) 
ChEMBL_Kinases

>  <Ligand_Instance>  (511) 
nan

>  <PDB_ID>  (511) 
nan

>  <Standardized_SMILES>  (511) 
CS(=O)(=O)Nc1ccc(-c2cnc3[nH]nc(-c4ccc(O)cc4)c3c2)cc1

>  <Name>  (511) 
nan

>  <Pocket>  (511) 
nan

>  <ATP_Site>  (511) 
nan

>  <Peripheral>  (511) 
nan

>  <Num_H_Atoms_ProtBoundConf>  (511) 
nan

>  <Num_Resolved_Atoms>  (511) 
nan

>  <Num_Not_Resolved_Atoms>  (511) 
nan

$$$$
CHEMBL3956314
     RDKit          3D

  0  0  0  0  0  0  0  0  0  0999 V3000
M  V30 BEGIN CTAB
M  V30 COUNTS 53 56 0 0 0
M  V30 BEGIN ATOM
M  V30 1 C 6.588449 -1.467079 4.197482 0
M  V30 2 S 5.966337 -2.906229 3.382059 0
M  V30 3 O 5.796393 -4.048369 4.344596 0
M  V30 4 O 6.928630 -3.296886 2.284930 0
M  V30 5 N 4.472043 -2.512158 2.621508 0
M  V30 6 C 4.206597 -1.565784 1.604537 0
M  V30 7 C 3.096164 -0.755320 1.726604 0
M  V30 8 C 2.772061 0.192073 0.767146 0
M  V30 9 C 3.603847 0.309616 -0.339141 0
M  V30 10 N 3.263941 1.258154 -1.337368 0
M  V30 11 C 1.996867 1.863185 -1.593827 0
M  V30 12 N 1.868755 2.886165 -2.457530 0
M  V30 13 C 0.634697 3.409551 -2.683383 0
M  V30 14 C -0.486860 2.900090 -2.032172 0
M  V30 15 C -0.351539 1.853635 -1.149871 0
M  V30 16 C -1.464139 1.230550 -0.448177 0
M  V30 17 C -2.778593 1.609611 -0.516255 0
M  V30 18 C -3.787056 0.938439 0.179241 0
M  V30 19 C -3.467157 -0.164124 0.979742 0
M  V30 20 O -4.551959 -0.742820 1.616544 0
M  V30 21 C -5.413918 -1.663767 1.117445 0
M  V30 22 C -6.729874 -1.230942 1.106067 0
M  V30 23 C -7.716989 -2.078367 0.618597 0
M  V30 24 C -7.470392 -3.359396 0.129587 0
M  V30 25 C -6.158437 -3.790251 0.140940 0
M  V30 26 C -5.223901 -2.921738 0.629911 0
M  V30 27 N -3.901093 -3.387555 0.623485 0 CHG=1 VAL=4
M  V30 28 O -3.412858 -4.226145 -0.173062 0
M  V30 29 O -2.626505 -3.830787 0.624934 0 CHG=-1 VAL=1
M  V30 30 C -2.136882 -0.562319 1.060239 0
M  V30 31 C -1.162849 0.125284 0.358641 0
M  V30 32 N 0.907671 1.414867 -1.002501 0
M  V30 33 C 4.714875 -0.491332 -0.475866 0
M  V30 34 C 5.037632 -1.438851 0.486267 0
M  V30 35 H 7.312505 -1.699412 5.007425 0
M  V30 36 H 7.083232 -0.852296 3.392255 0
M  V30 37 H 5.770368 -0.861956 4.632717 0
M  V30 38 H 3.604898 -3.040170 2.944432 0
M  V30 39 H 2.465081 -0.885553 2.620363 0
M  V30 40 H 1.895881 0.766983 0.985975 0
M  V30 41 H 4.049623 1.560291 -1.980448 0
M  V30 42 H 0.568825 4.234458 -3.389043 0
M  V30 43 H -1.459941 3.322859 -2.218891 0
M  V30 44 H -3.012490 2.471436 -1.138830 0
M  V30 45 H -4.793329 1.353214 0.034548 0
M  V30 46 H -7.088969 -0.270459 1.450082 0
M  V30 47 H -8.741840 -1.785713 0.592400 0
M  V30 48 H -8.270391 -3.987412 -0.240844 0
M  V30 49 H -5.916518 -4.765874 -0.224286 0
M  V30 50 H -1.946370 -1.412948 1.687172 0
M  V30 51 H -0.178169 -0.297122 0.510871 0
M  V30 52 H 5.316147 -0.348618 -1.364120 0
M  V30 53 H 5.913561 -2.066692 0.374475 0
M  V30 END ATOM
M  V30 BEGIN BOND
M  V30 1 1 1 2
M  V30 2 2 2 3
M  V30 3 2 2 4
M  V30 4 1 2 5
M  V30 5 1 5 6
M  V30 6 2 6 7
M  V30 7 1 7 8
M  V30 8 2 8 9
M  V30 9 1 9 10
M  V30 10 1 10 11
M  V30 11 2 11 12
M  V30 12 1 12 13
M  V30 13 2 13 14
M  V30 14 1 14 15
M  V30 15 1 15 16
M  V30 16 2 16 17
M  V30 17 1 17 18
M  V30 18 2 18 19
M  V30 19 1 19 20
M  V30 20 1 20 21
M  V30 21 2 21 22
M  V30 22 1 22 23
M  V30 23 2 23 24
M  V30 24 1 24 25
M  V30 25 2 25 26
M  V30 26 1 26 27
M  V30 27 2 27 28
M  V30 28 1 27 29
M  V30 29 1 19 30
M  V30 30 2 30 31
M  V30 31 2 15 32
M  V30 32 1 9 33
M  V30 33 2 33 34
M  V30 34 1 34 6
M  V30 35 1 32 11
M  V30 36 1 31 16
M  V30 37 1 26 21
M  V30 38 1 1 35
M  V30 39 1 1 36
M  V30 40 1 1 37
M  V30 41 1 5 38
M  V30 42 1 7 39
M  V30 43 1 8 40
M  V30 44 1 10 41
M  V30 45 1 13 42
M  V30 46 1 14 43
M  V30 47 1 17 44
M  V30 48 1 18 45
M  V30 49 1 22 46
M  V30 50 1 23 47
M  V30 51 1 24 48
M  V30 52 1 25 49
M  V30 53 1 30 50
M  V30 54 1 31 51
M  V30 55 1 33 52
M  V30 56 1 34 53
M  V30 END BOND
M  V30 END CTAB
M  END
>  <Dataset>  (512) 
ChEMBL_Kinases

>  <Ligand_Instance>  (512) 
nan

>  <PDB_ID>  (512) 
nan

>  <Standardized_SMILES>  (512) 
CS(=O)(=O)Nc1ccc(Nc2nccc(-c3ccc(Oc4ccccc4[N+](=O)[O-])cc3)n2)cc1

>  <Name>  (512) 
nan

>  <Pocket>  (512) 
nan

>  <ATP_Site>  (512) 
nan

>  <Peripheral>  (512) 
nan

>  <Num_H_Atoms_ProtBoundConf>  (512) 
nan

>  <Num_Resolved_Atoms>  (512) 
nan

>  <Num_Not_Resolved_Atoms>  (512) 
nan

$$$$
CHEMBL3956151
     RDKit          3D

  0  0  0  0  0  0  0  0  0  0999 V3000
M  V30 BEGIN CTAB
M  V30 COUNTS 45 49 0 0 0
M  V30 BEGIN ATOM
M  V30 1 O 2.190014 -3.366458 5.202356 0
M  V30 2 C 1.972628 -3.345652 3.947269 0
M  V30 3 C 2.376947 -4.373502 2.948017 0
M  V30 4 O 3.077938 -3.684781 1.900739 0
M  V30 5 C 2.454742 -2.622890 1.274871 0
M  V30 6 C 2.667296 -2.245399 -0.022211 0
M  V30 7 C 2.027203 -1.178926 -0.615297 0
M  V30 8 C 1.119413 -0.438223 0.118871 0
M  V30 9 C 0.340813 0.758988 -0.376034 0
M  V30 10 O 0.247483 0.776447 -1.742498 0
M  V30 11 C 0.981529 1.997513 0.196531 0
M  V30 12 C 2.202274 2.525732 -0.136323 0
M  V30 13 C 2.652066 3.683875 0.508608 0
M  V30 14 C 1.816979 4.231801 1.460911 0
M  V30 15 C 0.585703 3.717448 1.811141 0
M  V30 16 C 0.169510 2.570591 1.153897 0
M  V30 17 C -1.020193 1.724889 1.198964 0
M  V30 18 O -1.955911 1.999071 1.993027 0
M  V30 19 N -0.943330 0.659884 0.292152 0
M  V30 20 C -1.896999 -0.360525 0.020302 0
M  V30 21 C -3.113013 -0.452613 0.665582 0
M  V30 22 C -4.062866 -1.427558 0.425263 0
M  V30 23 C -3.728055 -2.367805 -0.548582 0
M  V30 24 C -2.541427 -2.364892 -1.250050 0
M  V30 25 O -2.232419 -3.306907 -2.210108 0
M  V30 26 C -1.647263 -1.335910 -0.931868 0
M  V30 27 C 0.926404 -0.846321 1.429801 0
M  V30 28 C 1.556816 -1.906436 2.034307 0
M  V30 29 N 1.262275 -2.221164 3.407529 0
M  V30 30 H 3.020243 -5.151474 3.385056 0
M  V30 31 H 1.435787 -4.783877 2.517410 0
M  V30 32 H 3.380402 -2.814793 -0.626536 0
M  V30 33 H 2.174207 -0.858469 -1.634255 0
M  V30 34 H 0.213749 1.703245 -2.050919 0
M  V30 35 H 2.890873 2.135324 -0.872172 0
M  V30 36 H 3.585122 4.179712 0.327696 0
M  V30 37 H 2.113132 5.129163 1.994264 0
M  V30 38 H -0.050670 4.165939 2.561407 0
M  V30 39 H -3.388159 0.263617 1.419575 0
M  V30 40 H -5.006298 -1.471045 0.949073 0
M  V30 41 H -4.470905 -3.143183 -0.748098 0
M  V30 42 H -2.619044 -4.223318 -2.176860 0
M  V30 43 H -0.722700 -1.358110 -1.500019 0
M  V30 44 H 0.208752 -0.273865 2.036088 0
M  V30 45 H 0.577785 -1.672145 3.981269 0
M  V30 END ATOM
M  V30 BEGIN BOND
M  V30 1 2 1 2
M  V30 2 1 2 3
M  V30 3 1 3 4
M  V30 4 1 4 5
M  V30 5 2 5 6
M  V30 6 1 6 7
M  V30 7 2 7 8
M  V30 8 1 8 9
M  V30 9 1 9 10
M  V30 10 1 9 11
M  V30 11 2 11 12
M  V30 12 1 12 13
M  V30 13 2 13 14
M  V30 14 1 14 15
M  V30 15 2 15 16
M  V30 16 1 16 17
M  V30 17 2 17 18
M  V30 18 1 17 19
M  V30 19 1 19 20
M  V30 20 2 20 21
M  V30 21 1 21 22
M  V30 22 2 22 23
M  V30 23 1 23 24
M  V30 24 1 24 25
M  V30 25 2 24 26
M  V30 26 1 8 27
M  V30 27 2 27 28
M  V30 28 1 28 29
M  V30 29 1 29 2
M  V30 30 1 28 5
M  V30 31 1 19 9
M  V30 32 1 26 20
M  V30 33 1 16 11
M  V30 34 1 3 30
M  V30 35 1 3 31
M  V30 36 1 6 32
M  V30 37 1 7 33
M  V30 38 1 10 34
M  V30 39 1 12 35
M  V30 40 1 13 36
M  V30 41 1 14 37
M  V30 42 1 15 38
M  V30 43 1 21 39
M  V30 44 1 22 40
M  V30 45 1 23 41
M  V30 46 1 25 42
M  V30 47 1 26 43
M  V30 48 1 27 44
M  V30 49 1 29 45
M  V30 END BOND
M  V30 END CTAB
M  END
>  <Dataset>  (513) 
ChEMBL_Kinases

>  <Ligand_Instance>  (513) 
nan

>  <PDB_ID>  (513) 
nan

>  <Standardized_SMILES>  (513) 
O=C1COc2ccc(C3(O)c4ccccc4C(=O)N3c3cccc(O)c3)cc2N1

>  <Name>  (513) 
nan

>  <Pocket>  (513) 
nan

>  <ATP_Site>  (513) 
nan

>  <Peripheral>  (513) 
nan

>  <Num_H_Atoms_ProtBoundConf>  (513) 
nan

>  <Num_Resolved_Atoms>  (513) 
nan

>  <Num_Not_Resolved_Atoms>  (513) 
nan

$$$$
CHEMBL3955990
     RDKit          3D

  0  0  0  0  0  0  0  0  0  0999 V3000
M  V30 BEGIN CTAB
M  V30 COUNTS 58 62 0 0 0
M  V30 BEGIN ATOM
M  V30 1 F 4.287220 -0.653054 -1.257776 0
M  V30 2 C 4.365719 -2.016968 -1.203402 0
M  V30 3 C 3.409894 -2.759552 -0.494116 0
M  V30 4 O 2.448480 -1.986934 0.091185 0
M  V30 5 C 1.339359 -2.418994 0.838132 0 CFG=1
M  V30 6 C 1.510481 -2.001841 2.274714 0
M  V30 7 C 1.127317 -0.588758 2.545225 0
M  V30 8 C -0.238671 -0.196465 2.047080 0 CFG=2
M  V30 9 C -0.365614 1.280182 2.199356 0
M  V30 10 C -1.654985 1.841924 1.751106 0
M  V30 11 C -1.646400 3.232077 1.894864 0
M  V30 12 C -2.736667 4.021597 1.520956 0
M  V30 13 C -3.858424 3.380612 0.990159 0
M  V30 14 C -3.826430 2.012979 0.866150 0
M  V30 15 N -4.843419 1.164251 0.332581 0
M  V30 16 C -4.667902 0.474160 -0.895337 0
M  V30 17 C -5.471143 -0.339398 -1.640735 0
M  V30 18 C -4.909757 -0.833425 -2.778847 0
M  V30 19 N -3.661645 -0.271188 -2.716015 0
M  V30 20 N -3.509139 0.494421 -1.620992 0
M  V30 21 N -2.762704 1.237445 1.230142 0
M  V30 22 C -1.309516 -0.976311 2.708101 0
M  V30 23 N -2.044693 -2.066729 2.499631 0
M  V30 24 N -2.868820 -2.258801 3.497458 0
M  V30 25 C -2.612338 -1.224829 4.351115 0
M  V30 26 O -1.672261 -0.477790 3.846660 0
M  V30 27 C -0.264421 -0.509618 0.565970 0
M  V30 28 C 0.037509 -1.945884 0.246759 0
M  V30 29 C 3.583489 -4.126195 -0.499901 0
M  V30 30 C 4.645707 -4.679112 -1.175921 0
M  V30 31 C 5.592742 -3.958667 -1.877928 0
M  V30 32 C 5.440247 -2.581851 -1.887204 0
M  V30 33 C 6.382551 -1.652118 -2.614760 0
M  V30 34 F 5.638750 -0.959251 -3.570209 0
M  V30 35 F 6.802007 -0.691648 -1.720560 0
M  V30 36 F 7.429740 -2.345955 -3.118591 0
M  V30 37 H 1.331203 -3.517785 0.817023 0
M  V30 38 H 0.945751 -2.666016 2.959866 0
M  V30 39 H 2.582406 -2.124615 2.539228 0
M  V30 40 H 1.855013 0.160113 2.202493 0
M  V30 41 H 1.082379 -0.467549 3.665293 0
M  V30 42 H 0.406931 1.734129 1.509853 0
M  V30 43 H -0.071731 1.650388 3.205832 0
M  V30 44 H -0.840053 3.841026 2.291232 0
M  V30 45 H -2.766222 5.090251 1.618960 0
M  V30 46 H -4.760205 3.872313 0.666017 0
M  V30 47 H -5.791246 0.968366 0.770781 0
M  V30 48 H -6.495569 -0.577311 -1.347061 0
M  V30 49 H -5.223408 -1.471131 -3.565289 0
M  V30 50 H -2.829113 -0.331725 -3.348900 0
M  V30 51 H -3.258087 -1.298850 5.225505 0
M  V30 52 H 0.431983 0.195866 0.063282 0
M  V30 53 H -1.276006 -0.279268 0.193885 0
M  V30 54 H 0.111117 -2.046759 -0.858846 0
M  V30 55 H -0.822600 -2.564897 0.567145 0
M  V30 56 H 2.837370 -4.666545 0.051286 0
M  V30 57 H 4.767505 -5.757827 -1.169709 0
M  V30 58 H 6.410924 -4.398338 -2.395663 0
M  V30 END ATOM
M  V30 BEGIN BOND
M  V30 1 1 1 2
M  V30 2 2 2 3
M  V30 3 1 3 4
M  V30 4 1 4 5
M  V30 5 1 5 6
M  V30 6 1 6 7
M  V30 7 1 7 8
M  V30 8 1 8 9 CFG=3
M  V30 9 1 9 10
M  V30 10 2 10 11
M  V30 11 1 11 12
M  V30 12 2 12 13
M  V30 13 1 13 14
M  V30 14 1 14 15
M  V30 15 1 15 16
M  V30 16 1 16 17
M  V30 17 2 17 18
M  V30 18 1 18 19
M  V30 19 1 19 20
M  V30 20 2 14 21
M  V30 21 1 8 22
M  V30 22 2 22 23
M  V30 23 1 23 24
M  V30 24 2 24 25
M  V30 25 1 25 26
M  V30 26 1 8 27
M  V30 27 1 27 28
M  V30 28 1 3 29
M  V30 29 2 29 30
M  V30 30 1 30 31
M  V30 31 2 31 32
M  V30 32 1 32 33
M  V30 33 1 33 34
M  V30 34 1 33 35
M  V30 35 1 33 36
M  V30 36 1 32 2
M  V30 37 1 28 5
M  V30 38 1 21 10
M  V30 39 1 26 22
M  V30 40 2 20 16
M  V30 41 1 5 37 CFG=1
M  V30 42 1 6 38
M  V30 43 1 6 39
M  V30 44 1 7 40
M  V30 45 1 7 41
M  V30 46 1 9 42
M  V30 47 1 9 43
M  V30 48 1 11 44
M  V30 49 1 12 45
M  V30 50 1 13 46
M  V30 51 1 15 47
M  V30 52 1 17 48
M  V30 53 1 18 49
M  V30 54 1 19 50
M  V30 55 1 25 51
M  V30 56 1 27 52
M  V30 57 1 27 53
M  V30 58 1 28 54
M  V30 59 1 28 55
M  V30 60 1 29 56
M  V30 61 1 30 57
M  V30 62 1 31 58
M  V30 END BOND
M  V30 END CTAB
M  END
>  <Dataset>  (514) 
ChEMBL_Kinases

>  <Ligand_Instance>  (514) 
nan

>  <PDB_ID>  (514) 
nan

>  <Standardized_SMILES>  (514) 
Fc1c(O[C@H]2CC[C@](Cc3cccc(Nc4cc[nH]n4)n3)(c3nnco3)CC2)cccc1C(F)(F)F

>  <Name>  (514) 
nan

>  <Pocket>  (514) 
nan

>  <ATP_Site>  (514) 
nan

>  <Peripheral>  (514) 
nan

>  <Num_H_Atoms_ProtBoundConf>  (514) 
nan

>  <Num_Resolved_Atoms>  (514) 
nan

>  <Num_Not_Resolved_Atoms>  (514) 
nan

$$$$
CHEMBL395593
     RDKit          3D

  0  0  0  0  0  0  0  0  0  0999 V3000
M  V30 BEGIN CTAB
M  V30 COUNTS 41 44 0 0 0
M  V30 BEGIN ATOM
M  V30 1 C -0.182236 -3.977555 -0.567595 0
M  V30 2 C 1.063215 -3.948439 0.316650 0
M  V30 3 C 1.711608 -5.277629 0.218003 0
M  V30 4 N 2.827176 -5.344095 -0.684130 0
M  V30 5 C 3.659263 -4.221990 -1.034279 0
M  V30 6 O 4.754812 -4.357958 -1.605794 0
M  V30 7 C 3.140165 -2.896225 -0.677093 0
M  V30 8 N 3.683670 -1.672557 -0.872182 0
M  V30 9 C 2.788531 -0.814685 -0.354062 0
M  V30 10 C 2.917795 0.566956 -0.325746 0
M  V30 11 C 1.898291 1.298271 0.247534 0
M  V30 12 C 0.782821 0.683530 0.777848 0
M  V30 13 C -0.338065 1.387101 1.401239 0
M  V30 14 O -1.360829 0.793372 1.885458 0
M  V30 15 N -0.415169 2.800421 1.537568 0
M  V30 16 C -1.655866 3.134352 2.197148 0
M  V30 17 C -1.728083 3.227824 3.588705 0
M  V30 18 C -2.940007 3.552358 4.202454 0
M  V30 19 C -4.036637 3.770291 3.373715 0
M  V30 20 F -5.170514 4.078875 4.038240 0
M  V30 21 C -3.963615 3.677554 1.999154 0
M  V30 22 C -2.769087 3.357499 1.390922 0
M  V30 23 C 0.684922 -0.692816 0.733798 0
M  V30 24 C 1.690481 -1.469666 0.164557 0
M  V30 25 C 1.934484 -2.811920 -0.052600 0
M  V30 26 H -0.982959 -4.489218 0.008206 0
M  V30 27 H 0.042480 -4.642393 -1.429187 0
M  V30 28 H -0.430156 -2.966803 -0.901921 0
M  V30 29 H 0.693343 -3.807652 1.355863 0
M  V30 30 H 0.986574 -6.064483 -0.139898 0
M  V30 31 H 2.065599 -5.676807 1.196596 0
M  V30 32 H 3.099171 -6.244275 -1.147571 0
M  V30 33 H 4.598271 -1.483357 -1.328564 0
M  V30 34 H 3.769390 1.098346 -0.726359 0
M  V30 35 H 1.942705 2.376185 0.298591 0
M  V30 36 H 0.374912 3.381243 1.171879 0
M  V30 37 H -0.821770 3.041245 4.155502 0
M  V30 38 H -2.990463 3.623227 5.276266 0
M  V30 39 H -4.872067 3.863474 1.410956 0
M  V30 40 H -2.721345 3.287202 0.315732 0
M  V30 41 H -0.177979 -1.234854 1.139479 0
M  V30 END ATOM
M  V30 BEGIN BOND
M  V30 1 1 1 2
M  V30 2 1 2 3
M  V30 3 1 3 4
M  V30 4 1 4 5
M  V30 5 2 5 6
M  V30 6 1 5 7
M  V30 7 1 7 8
M  V30 8 1 8 9
M  V30 9 2 9 10
M  V30 10 1 10 11
M  V30 11 2 11 12
M  V30 12 1 12 13
M  V30 13 2 13 14
M  V30 14 1 13 15
M  V30 15 1 15 16
M  V30 16 2 16 17
M  V30 17 1 17 18
M  V30 18 2 18 19
M  V30 19 1 19 20
M  V30 20 1 19 21
M  V30 21 2 21 22
M  V30 22 1 12 23
M  V30 23 2 23 24
M  V30 24 1 24 25
M  V30 25 1 25 2
M  V30 26 2 25 7
M  V30 27 1 24 9
M  V30 28 1 22 16
M  V30 29 1 1 26
M  V30 30 1 1 27
M  V30 31 1 1 28
M  V30 32 1 2 29
M  V30 33 1 3 30
M  V30 34 1 3 31
M  V30 35 1 4 32
M  V30 36 1 8 33
M  V30 37 1 10 34
M  V30 38 1 11 35
M  V30 39 1 15 36
M  V30 40 1 17 37
M  V30 41 1 18 38
M  V30 42 1 21 39
M  V30 43 1 22 40
M  V30 44 1 23 41
M  V30 END BOND
M  V30 END CTAB
M  END
>  <Dataset>  (515) 
ChEMBL_Kinases

>  <Ligand_Instance>  (515) 
nan

>  <PDB_ID>  (515) 
nan

>  <Standardized_SMILES>  (515) 
CC1CNC(=O)c2[nH]c3ccc(C(=O)Nc4ccc(F)cc4)cc3c21

>  <Name>  (515) 
nan

>  <Pocket>  (515) 
nan

>  <ATP_Site>  (515) 
nan

>  <Peripheral>  (515) 
nan

>  <Num_H_Atoms_ProtBoundConf>  (515) 
nan

>  <Num_Resolved_Atoms>  (515) 
nan

>  <Num_Not_Resolved_Atoms>  (515) 
nan

$$$$
CHEMBL395592
     RDKit          3D

  0  0  0  0  0  0  0  0  0  0999 V3000
M  V30 BEGIN CTAB
M  V30 COUNTS 41 44 0 0 0
M  V30 BEGIN ATOM
M  V30 1 C 0.889623 -3.361714 1.146378 0
M  V30 2 C 2.340873 -3.171249 0.895927 0
M  V30 3 C 2.875876 -4.396420 0.184816 0
M  V30 4 N 4.310596 -4.187828 0.013555 0
M  V30 5 C 4.672463 -3.055891 -0.803990 0
M  V30 6 O 5.724001 -3.085596 -1.529948 0
M  V30 7 C 3.770477 -1.886129 -0.750039 0
M  V30 8 N 3.839082 -0.720481 -1.377815 0
M  V30 9 C 2.762942 -0.017743 -0.969056 0
M  V30 10 C 2.383796 1.254256 -1.334268 0
M  V30 11 C 1.221392 1.753397 -0.763516 0
M  V30 12 C 0.443866 1.052282 0.132749 0
M  V30 13 C -0.760942 1.667124 0.675884 0
M  V30 14 O -1.012694 2.832057 0.274227 0
M  V30 15 N -1.584713 0.971914 1.601733 0
M  V30 16 C -2.780880 1.437461 2.212997 0
M  V30 17 C -2.759958 2.112273 3.406794 0
M  V30 18 C -3.956971 2.541175 3.953286 0
M  V30 19 C -5.124365 2.273692 3.276799 0
M  V30 20 C -5.129239 1.593843 2.076934 0
M  V30 21 Cl -6.622925 1.273597 1.250157 0
M  V30 22 C -3.933913 1.154752 1.512179 0
M  V30 23 C 0.897323 -0.212593 0.442066 0
M  V30 24 C 2.029589 -0.774795 -0.076109 0
M  V30 25 C 2.670878 -1.992601 0.077505 0
M  V30 26 H 0.570733 -2.959423 2.151971 0
M  V30 27 H 0.235932 -3.052672 0.321702 0
M  V30 28 H 0.707112 -4.465194 1.255972 0
M  V30 29 H 2.847289 -3.088708 1.871490 0
M  V30 30 H 2.670366 -5.265454 0.841478 0
M  V30 31 H 2.369069 -4.501091 -0.799837 0
M  V30 32 H 5.109580 -4.762768 0.413951 0
M  V30 33 H 4.594313 -0.447923 -2.045326 0
M  V30 34 H 2.974112 1.819907 -2.031318 0
M  V30 35 H 0.969031 2.767698 -1.089942 0
M  V30 36 H -1.375796 0.017456 1.928943 0
M  V30 37 H -1.791367 2.265851 3.847535 0
M  V30 38 H -3.845365 3.063193 4.893507 0
M  V30 39 H -6.030082 2.636087 3.757089 0
M  V30 40 H -3.936681 0.619660 0.567999 0
M  V30 41 H 0.318412 -0.797453 1.140619 0
M  V30 END ATOM
M  V30 BEGIN BOND
M  V30 1 1 1 2
M  V30 2 1 2 3
M  V30 3 1 3 4
M  V30 4 1 4 5
M  V30 5 2 5 6
M  V30 6 1 5 7
M  V30 7 1 7 8
M  V30 8 1 8 9
M  V30 9 2 9 10
M  V30 10 1 10 11
M  V30 11 2 11 12
M  V30 12 1 12 13
M  V30 13 2 13 14
M  V30 14 1 13 15
M  V30 15 1 15 16
M  V30 16 2 16 17
M  V30 17 1 17 18
M  V30 18 2 18 19
M  V30 19 1 19 20
M  V30 20 1 20 21
M  V30 21 2 20 22
M  V30 22 1 12 23
M  V30 23 2 23 24
M  V30 24 1 24 25
M  V30 25 1 25 2
M  V30 26 2 25 7
M  V30 27 1 24 9
M  V30 28 1 22 16
M  V30 29 1 1 26
M  V30 30 1 1 27
M  V30 31 1 1 28
M  V30 32 1 2 29
M  V30 33 1 3 30
M  V30 34 1 3 31
M  V30 35 1 4 32
M  V30 36 1 8 33
M  V30 37 1 10 34
M  V30 38 1 11 35
M  V30 39 1 15 36
M  V30 40 1 17 37
M  V30 41 1 18 38
M  V30 42 1 19 39
M  V30 43 1 22 40
M  V30 44 1 23 41
M  V30 END BOND
M  V30 END CTAB
M  END
>  <Dataset>  (516) 
ChEMBL_Kinases

>  <Ligand_Instance>  (516) 
nan

>  <PDB_ID>  (516) 
nan

>  <Standardized_SMILES>  (516) 
CC1CNC(=O)c2[nH]c3ccc(C(=O)Nc4cccc(Cl)c4)cc3c21

>  <Name>  (516) 
nan

>  <Pocket>  (516) 
nan

>  <ATP_Site>  (516) 
nan

>  <Peripheral>  (516) 
nan

>  <Num_H_Atoms_ProtBoundConf>  (516) 
nan

>  <Num_Resolved_Atoms>  (516) 
nan

>  <Num_Not_Resolved_Atoms>  (516) 
nan

$$$$
CHEMBL3955906
     RDKit          3D

  0  0  0  0  0  0  0  0  0  0999 V3000
M  V30 BEGIN CTAB
M  V30 COUNTS 34 36 0 0 0
M  V30 BEGIN ATOM
M  V30 1 C 0.338543 -1.316274 4.798251 0
M  V30 2 N 0.525671 -1.235953 3.339015 0
M  V30 3 C 1.479065 -2.047644 2.660842 0
M  V30 4 O 2.247286 -2.894803 3.235211 0
M  V30 5 C 1.530329 -1.845979 1.196020 0
M  V30 6 C 1.930073 -2.705318 0.272378 0
M  V30 7 C 1.867626 -2.219214 -1.102253 0
M  V30 8 C 1.392199 -2.957634 -2.191864 0
M  V30 9 C 1.399590 -2.365539 -3.460552 0
M  V30 10 N 1.851075 -1.099946 -3.683654 0
M  V30 11 C 2.316718 -0.374802 -2.621126 0
M  V30 12 C 2.323078 -0.925036 -1.363107 0
M  V30 13 S 0.880192 -0.150308 1.084639 0
M  V30 14 C -0.230923 -0.356402 2.509777 0
M  V30 15 N -1.407180 0.161607 2.706660 0
M  V30 16 C -1.875900 1.020636 1.640478 0
M  V30 17 C -3.039899 0.435471 1.148172 0
M  V30 18 C -3.696194 1.065195 0.095631 0
M  V30 19 C -3.200806 2.251973 -0.451838 0
M  V30 20 C -2.036928 2.793750 0.075494 0
M  V30 21 C -1.368561 2.187568 1.118678 0
M  V30 22 H 1.065409 -0.687238 5.342788 0
M  V30 23 H 0.528891 -2.357267 5.162111 0
M  V30 24 H -0.675243 -0.966650 5.043465 0
M  V30 25 H 2.270498 -3.692050 0.590644 0
M  V30 26 H 1.041773 -3.950284 -1.990464 0
M  V30 27 H 1.012213 -2.990657 -4.283079 0
M  V30 28 H 2.647159 0.611923 -2.899118 0
M  V30 29 H 2.721161 -0.233921 -0.636816 0
M  V30 30 H -3.567805 -0.450836 1.427291 0
M  V30 31 H -4.605718 0.760250 -0.412140 0
M  V30 32 H -3.651745 2.798555 -1.265751 0
M  V30 33 H -1.546144 3.719577 -0.266152 0
M  V30 34 H -0.467107 2.473765 1.638611 0
M  V30 END ATOM
M  V30 BEGIN BOND
M  V30 1 1 1 2
M  V30 2 1 2 3
M  V30 3 2 3 4
M  V30 4 1 3 5
M  V30 5 2 5 6
M  V30 6 1 6 7
M  V30 7 2 7 8
M  V30 8 1 8 9
M  V30 9 2 9 10
M  V30 10 1 10 11
M  V30 11 2 11 12
M  V30 12 1 5 13
M  V30 13 1 13 14
M  V30 14 2 14 15
M  V30 15 1 15 16
M  V30 16 2 16 17
M  V30 17 1 17 18
M  V30 18 2 18 19
M  V30 19 1 19 20
M  V30 20 2 20 21
M  V30 21 1 14 2
M  V30 22 1 21 16
M  V30 23 1 12 7
M  V30 24 1 1 22
M  V30 25 1 1 23
M  V30 26 1 1 24
M  V30 27 1 6 25
M  V30 28 1 8 26
M  V30 29 1 9 27
M  V30 30 1 11 28
M  V30 31 1 12 29
M  V30 32 1 17 30
M  V30 33 1 18 31
M  V30 34 1 19 32
M  V30 35 1 20 33
M  V30 36 1 21 34
M  V30 END BOND
M  V30 END CTAB
M  END
>  <Dataset>  (517) 
ChEMBL_Kinases

>  <Ligand_Instance>  (517) 
nan

>  <PDB_ID>  (517) 
nan

>  <Standardized_SMILES>  (517) 
CN1C(=O)/C(=C/c2ccncc2)S/C1=N\c1ccccc1

>  <Name>  (517) 
nan

>  <Pocket>  (517) 
nan

>  <ATP_Site>  (517) 
nan

>  <Peripheral>  (517) 
nan

>  <Num_H_Atoms_ProtBoundConf>  (517) 
nan

>  <Num_Resolved_Atoms>  (517) 
nan

>  <Num_Not_Resolved_Atoms>  (517) 
nan

$$$$
CHEMBL395307
     RDKit          3D

  0  0  0  0  0  0  0  0  0  0999 V3000
M  V30 BEGIN CTAB
M  V30 COUNTS 57 61 0 0 0
M  V30 BEGIN ATOM
M  V30 1 C 4.311788 -7.860330 1.547708 0
M  V30 2 C 4.121776 -6.452302 1.119419 0
M  V30 3 C 2.883140 -6.023592 0.672531 0
M  V30 4 C 2.670733 -4.704265 0.261909 0
M  V30 5 C 3.750866 -3.845060 0.321042 0
M  V30 6 C 3.679856 -2.436791 -0.075591 0
M  V30 7 N 4.612992 -1.827525 -0.840802 0
M  V30 8 N 4.295931 -0.559683 -1.041896 0
M  V30 9 C 3.129576 -0.357731 -0.386643 0
M  V30 10 C 2.701555 -1.512968 0.238157 0
M  V30 11 C 1.425420 -1.289332 0.954200 0
M  V30 12 C 1.145896 0.161306 0.673209 0
M  V30 13 C 0.072271 0.914755 1.099335 0
M  V30 14 C -0.005047 2.241902 0.732330 0
M  V30 15 C -1.078458 3.231722 1.084106 0
M  V30 16 N -2.112057 3.213558 0.087733 0
M  V30 17 C -2.756632 1.949817 -0.063192 0 CFG=1
M  V30 18 C -3.461344 1.426012 1.140685 0
M  V30 19 C -4.975558 1.624492 1.050971 0
M  V30 20 C -5.602277 0.884765 -0.081192 0 CFG=2
M  V30 21 C -6.139753 -0.463034 0.305078 0
M  V30 22 C -4.624150 0.746631 -1.217060 0
M  V30 23 C -3.716769 1.947742 -1.226682 0
M  V30 24 C 1.025179 2.749548 -0.061046 0
M  V30 25 C 2.108864 2.015919 -0.499561 0
M  V30 26 C 2.149119 0.692478 -0.110877 0
M  V30 27 C 5.006408 -4.256504 0.767838 0
M  V30 28 C 5.183131 -5.569783 1.167276 0
M  V30 29 H 3.376695 -8.368942 1.799274 0
M  V30 30 H 5.065078 -7.874464 2.350872 0
M  V30 31 H 4.768797 -8.387902 0.662565 0
M  V30 32 H 2.014132 -6.682221 0.616197 0
M  V30 33 H 1.722397 -4.324021 -0.094146 0
M  V30 34 H 4.840451 0.139374 -1.595825 0
M  V30 35 H 0.655866 -1.914185 0.448735 0
M  V30 36 H 1.502310 -1.483702 2.031915 0
M  V30 37 H -0.751746 0.576365 1.713205 0
M  V30 38 H -0.618378 4.232943 1.202256 0
M  V30 39 H -1.455687 2.955604 2.078162 0
M  V30 40 H -1.715181 3.467179 -0.841767 0
M  V30 41 H -1.962309 1.192917 -0.334741 0
M  V30 42 H -3.332255 0.313476 1.224846 0
M  V30 43 H -3.173941 1.877316 2.100153 0
M  V30 44 H -5.097211 2.736151 0.956693 0
M  V30 45 H -5.405507 1.267210 2.000017 0
M  V30 46 H -6.464632 1.501038 -0.461513 0
M  V30 47 H -5.399076 -1.040017 0.872647 0
M  V30 48 H -6.409301 -1.013030 -0.607956 0
M  V30 49 H -7.096687 -0.334847 0.881891 0
M  V30 50 H -4.031144 -0.184934 -1.131097 0
M  V30 51 H -5.159805 0.723880 -2.190865 0
M  V30 52 H -4.334239 2.864336 -1.248364 0
M  V30 53 H -3.166577 1.896911 -2.206044 0
M  V30 54 H 1.020839 3.800090 -0.386575 0
M  V30 55 H 2.877786 2.464567 -1.113545 0
M  V30 56 H 5.849430 -3.583383 0.813329 0
M  V30 57 H 6.139455 -5.973205 1.531784 0
M  V30 END ATOM
M  V30 BEGIN BOND
M  V30 1 1 1 2
M  V30 2 2 2 3
M  V30 3 1 3 4
M  V30 4 2 4 5
M  V30 5 1 5 6
M  V30 6 2 6 7
M  V30 7 1 7 8
M  V30 8 1 8 9
M  V30 9 2 9 10
M  V30 10 1 10 11
M  V30 11 1 11 12
M  V30 12 2 12 13
M  V30 13 1 13 14
M  V30 14 1 14 15
M  V30 15 1 15 16
M  V30 16 1 16 17
M  V30 17 1 17 18
M  V30 18 1 18 19
M  V30 19 1 19 20
M  V30 20 1 20 21
M  V30 21 1 20 22
M  V30 22 1 22 23
M  V30 23 2 14 24
M  V30 24 1 24 25
M  V30 25 2 25 26
M  V30 26 1 5 27
M  V30 27 2 27 28
M  V30 28 1 28 2
M  V30 29 1 10 6
M  V30 30 1 26 12
M  V30 31 1 26 9
M  V30 32 1 23 17
M  V30 33 1 1 29
M  V30 34 1 1 30
M  V30 35 1 1 31
M  V30 36 1 3 32
M  V30 37 1 4 33
M  V30 38 1 8 34
M  V30 39 1 11 35
M  V30 40 1 11 36
M  V30 41 1 13 37
M  V30 42 1 15 38
M  V30 43 1 15 39
M  V30 44 1 16 40
M  V30 45 1 17 41 CFG=3
M  V30 46 1 18 42
M  V30 47 1 18 43
M  V30 48 1 19 44
M  V30 49 1 19 45
M  V30 50 1 20 46 CFG=3
M  V30 51 1 21 47
M  V30 52 1 21 48
M  V30 53 1 21 49
M  V30 54 1 22 50
M  V30 55 1 22 51
M  V30 56 1 23 52
M  V30 57 1 23 53
M  V30 58 1 24 54
M  V30 59 1 25 55
M  V30 60 1 27 56
M  V30 61 1 28 57
M  V30 END BOND
M  V30 END CTAB
M  END
>  <Dataset>  (518) 
ChEMBL_Kinases

>  <Ligand_Instance>  (518) 
nan

>  <PDB_ID>  (518) 
nan

>  <Standardized_SMILES>  (518) 
Cc1ccc(-c2n[nH]c3c2Cc2cc(CN[C@H]4CC[C@H](C)CC4)ccc2-3)cc1

>  <Name>  (518) 
nan

>  <Pocket>  (518) 
nan

>  <ATP_Site>  (518) 
nan

>  <Peripheral>  (518) 
nan

>  <Num_H_Atoms_ProtBoundConf>  (518) 
nan

>  <Num_Resolved_Atoms>  (518) 
nan

>  <Num_Not_Resolved_Atoms>  (518) 
nan

$$$$
CHEMBL3955870
     RDKit          3D

  0  0  0  0  0  0  0  0  0  0999 V3000
M  V30 BEGIN CTAB
M  V30 COUNTS 43 47 0 0 0
M  V30 BEGIN ATOM
M  V30 1 O 0.602058 -2.795959 -0.920861 0
M  V30 2 C 1.631931 -2.132624 -1.123810 0
M  V30 3 C 2.958173 -2.428915 -1.669256 0
M  V30 4 C 3.417025 -3.644390 -2.132768 0
M  V30 5 C 4.731458 -3.656319 -2.603771 0
M  V30 6 C 5.538817 -2.529840 -2.613119 0
M  V30 7 C 5.007930 -1.331804 -2.128263 0
M  V30 8 C 3.712353 -1.273314 -1.652480 0
M  V30 9 C 2.931381 -0.135053 -1.093363 0
M  V30 10 N 1.633787 -0.750929 -0.783296 0
M  V30 11 C 0.709807 0.182182 -0.223803 0
M  V30 12 C -0.088922 0.860461 -1.123623 0
M  V30 13 C -0.992972 1.769947 -0.614177 0
M  V30 14 C -1.093126 1.991334 0.742361 0
M  V30 15 C -0.280849 1.297831 1.617378 0
M  V30 16 C -0.233370 1.387388 3.070302 0
M  V30 17 N 0.879434 1.684066 3.750959 0
M  V30 18 N 0.524132 1.684780 5.032297 0
M  V30 19 C -0.804734 1.385485 5.085996 0
M  V30 20 N -1.308239 1.190730 3.832977 0
M  V30 21 C -2.695835 0.846879 3.640352 0
M  V30 22 C -2.939493 -0.618495 3.724176 0
M  V30 23 C -2.211365 -1.435106 2.714538 0
M  V30 24 C -3.560695 -2.183281 2.696896 0
M  V30 25 O -4.182842 -0.991437 3.158929 0
M  V30 26 N 0.593405 0.416219 1.102071 0
M  V30 27 H 2.798628 -4.534940 -2.132449 0
M  V30 28 H 5.134921 -4.588849 -2.977696 0
M  V30 29 H 6.551348 -2.627576 -2.997805 0
M  V30 30 H 5.675265 -0.498856 -2.160222 0
M  V30 31 H 3.414599 0.301894 -0.208835 0
M  V30 32 H 2.726865 0.619155 -1.899351 0
M  V30 33 H -0.008904 0.685173 -2.190321 0
M  V30 34 H -1.642937 2.329957 -1.259513 0
M  V30 35 H -1.770851 2.682456 1.224710 0
M  V30 36 H -1.230874 1.351878 6.079514 0
M  V30 37 H -3.299604 1.324329 4.441935 0
M  V30 38 H -3.019878 1.190388 2.629548 0
M  V30 39 H -2.939629 -1.023152 4.762859 0
M  V30 40 H -2.025032 -0.932879 1.758677 0
M  V30 41 H -1.389490 -2.041819 3.123765 0
M  V30 42 H -3.573642 -2.926896 3.503502 0
M  V30 43 H -3.905070 -2.479482 1.703831 0
M  V30 END ATOM
M  V30 BEGIN BOND
M  V30 1 2 1 2
M  V30 2 1 2 3
M  V30 3 2 3 4
M  V30 4 1 4 5
M  V30 5 2 5 6
M  V30 6 1 6 7
M  V30 7 2 7 8
M  V30 8 1 8 9
M  V30 9 1 9 10
M  V30 10 1 10 11
M  V30 11 2 11 12
M  V30 12 1 12 13
M  V30 13 2 13 14
M  V30 14 1 14 15
M  V30 15 1 15 16
M  V30 16 2 16 17
M  V30 17 1 17 18
M  V30 18 2 18 19
M  V30 19 1 19 20
M  V30 20 1 20 21
M  V30 21 1 21 22
M  V30 22 1 22 23
M  V30 23 1 23 24
M  V30 24 1 24 25
M  V30 25 2 15 26
M  V30 26 1 10 2
M  V30 27 1 26 11
M  V30 28 1 8 3
M  V30 29 1 20 16
M  V30 30 1 25 22
M  V30 31 1 4 27
M  V30 32 1 5 28
M  V30 33 1 6 29
M  V30 34 1 7 30
M  V30 35 1 9 31
M  V30 36 1 9 32
M  V30 37 1 12 33
M  V30 38 1 13 34
M  V30 39 1 14 35
M  V30 40 1 19 36
M  V30 41 1 21 37
M  V30 42 1 21 38
M  V30 43 1 22 39
M  V30 44 1 23 40
M  V30 45 1 23 41
M  V30 46 1 24 42
M  V30 47 1 24 43
M  V30 END BOND
M  V30 END CTAB
M  END
>  <Dataset>  (519) 
ChEMBL_Kinases

>  <Ligand_Instance>  (519) 
nan

>  <PDB_ID>  (519) 
nan

>  <Standardized_SMILES>  (519) 
O=C1c2ccccc2CN1c1cccc(-c2nncn2CC2CCO2)n1

>  <Name>  (519) 
nan

>  <Pocket>  (519) 
nan

>  <ATP_Site>  (519) 
nan

>  <Peripheral>  (519) 
nan

>  <Num_H_Atoms_ProtBoundConf>  (519) 
nan

>  <Num_Resolved_Atoms>  (519) 
nan

>  <Num_Not_Resolved_Atoms>  (519) 
nan

$$$$
CHEMBL3955816
     RDKit          3D

  0  0  0  0  0  0  0  0  0  0999 V3000
M  V30 BEGIN CTAB
M  V30 COUNTS 47 51 0 0 0
M  V30 BEGIN ATOM
M  V30 1 N 7.738521 -5.924329 4.135213 0
M  V30 2 C 6.748785 -5.458334 3.239779 0
M  V30 3 O 6.737777 -6.319152 2.323100 0
M  V30 4 C 5.892919 -4.257687 3.301245 0
M  V30 5 C 5.848867 -3.278097 4.266816 0
M  V30 6 C 4.991566 -2.208156 4.191602 0
M  V30 7 C 4.139803 -2.113996 3.101354 0
M  V30 8 N 3.215322 -1.176550 2.800665 0
M  V30 9 C 2.662495 -1.570318 1.621027 0
M  V30 10 C 1.602832 -0.893381 0.880352 0
M  V30 11 C 1.047607 0.268834 1.362278 0
M  V30 12 C 0.039945 0.879634 0.651185 0
M  V30 13 C -0.482539 0.421386 -0.538746 0
M  V30 14 C -1.576068 0.961337 -1.320907 0
M  V30 15 O -1.453890 0.625535 -2.563360 0
M  V30 16 C -2.737924 1.756649 -1.025888 0
M  V30 17 C -2.993672 2.657644 -0.030047 0
M  V30 18 C -4.178729 3.321744 0.199232 0
M  V30 19 C -5.204075 3.046771 -0.664313 0
M  V30 20 C -5.111270 2.172539 -1.712484 0
M  V30 21 C -3.862044 1.558073 -1.846790 0
M  V30 22 O -6.111019 1.861007 -2.610392 0
M  V30 23 C -7.405393 2.375817 -2.416666 0
M  V30 24 C -7.582213 2.730142 -0.961160 0
M  V30 25 O -6.498630 3.610400 -0.610736 0
M  V30 26 C 0.143096 -0.760989 -0.949663 0
M  V30 27 C 1.150950 -1.430855 -0.299592 0
M  V30 28 N 3.257823 -2.727964 1.233468 0
M  V30 29 C 4.194400 -3.088440 2.155693 0
M  V30 30 C 5.042827 -4.161730 2.214656 0
M  V30 31 H 7.676738 -5.685173 5.145073 0
M  V30 32 H 7.700306 -5.700403 5.145231 0
M  V30 33 H 6.558099 -3.449102 5.076606 0
M  V30 34 H 5.042673 -1.496883 5.008406 0
M  V30 35 H 2.968444 -0.311116 3.365517 0
M  V30 36 H 1.411673 0.695940 2.305646 0
M  V30 37 H -0.322537 1.772284 1.094310 0
M  V30 38 H -2.208336 2.898067 0.654721 0
M  V30 39 H -4.340540 4.022757 0.996422 0
M  V30 40 H -3.776135 0.849117 -2.687589 0
M  V30 41 H -7.486091 3.326461 -3.006658 0
M  V30 42 H -8.190843 1.651097 -2.744920 0
M  V30 43 H -8.548864 3.282512 -0.795920 0
M  V30 44 H -7.557133 1.788228 -0.383406 0
M  V30 45 H -0.168550 -1.249449 -1.887499 0
M  V30 46 H 1.580077 -2.341813 -0.687987 0
M  V30 47 H 4.993037 -4.874328 1.396723 0
M  V30 END ATOM
M  V30 BEGIN BOND
M  V30 1 1 1 2
M  V30 2 2 2 3
M  V30 3 1 2 4
M  V30 4 2 4 5
M  V30 5 1 5 6
M  V30 6 2 6 7
M  V30 7 1 7 8
M  V30 8 1 8 9
M  V30 9 1 9 10
M  V30 10 2 10 11
M  V30 11 1 11 12
M  V30 12 2 12 13
M  V30 13 1 13 14
M  V30 14 2 14 15
M  V30 15 1 14 16
M  V30 16 2 16 17
M  V30 17 1 17 18
M  V30 18 2 18 19
M  V30 19 1 19 20
M  V30 20 2 20 21
M  V30 21 1 20 22
M  V30 22 1 22 23
M  V30 23 1 23 24
M  V30 24 1 24 25
M  V30 25 1 13 26
M  V30 26 2 26 27
M  V30 27 2 9 28
M  V30 28 1 28 29
M  V30 29 2 29 30
M  V30 30 1 30 4
M  V30 31 1 29 7
M  V30 32 1 27 10
M  V30 33 1 21 16
M  V30 34 1 25 19
M  V30 35 1 1 31
M  V30 36 1 1 32
M  V30 37 1 5 33
M  V30 38 1 6 34
M  V30 39 1 8 35
M  V30 40 1 11 36
M  V30 41 1 12 37
M  V30 42 1 17 38
M  V30 43 1 18 39
M  V30 44 1 21 40
M  V30 45 1 23 41
M  V30 46 1 23 42
M  V30 47 1 24 43
M  V30 48 1 24 44
M  V30 49 1 26 45
M  V30 50 1 27 46
M  V30 51 1 30 47
M  V30 END BOND
M  V30 END CTAB
M  END
>  <Dataset>  (520) 
ChEMBL_Kinases

>  <Ligand_Instance>  (520) 
nan

>  <PDB_ID>  (520) 
nan

>  <Standardized_SMILES>  (520) 
NC(=O)c1ccc2[nH]c(-c3ccc(C(=O)c4ccc5c(c4)OCCO5)cc3)nc2c1

>  <Name>  (520) 
nan

>  <Pocket>  (520) 
nan

>  <ATP_Site>  (520) 
nan

>  <Peripheral>  (520) 
nan

>  <Num_H_Atoms_ProtBoundConf>  (520) 
nan

>  <Num_Resolved_Atoms>  (520) 
nan

>  <Num_Not_Resolved_Atoms>  (520) 
nan

$$$$
CHEMBL395575
     RDKit          3D

  0  0  0  0  0  0  0  0  0  0999 V3000
M  V30 BEGIN CTAB
M  V30 COUNTS 48 51 0 0 0
M  V30 BEGIN ATOM
M  V30 1 C 2.791871 -4.440936 -3.086931 0
M  V30 2 C 2.355754 -3.700242 -1.857564 0
M  V30 3 N 3.151440 -2.977318 -1.084078 0
M  V30 4 C 2.447869 -2.428432 -0.041702 0
M  V30 5 C 3.233409 -1.578982 0.878017 0
M  V30 6 N 3.111032 -0.173333 0.606871 0
M  V30 7 C 2.226099 0.898226 0.786280 0
M  V30 8 C 2.492789 2.174740 0.282406 0
M  V30 9 C 1.633626 3.205798 0.493273 0
M  V30 10 Cl 2.059442 4.763631 -0.178290 0
M  V30 11 C 0.477522 3.037847 1.204095 0
M  V30 12 N -0.328022 4.099143 1.379924 0
M  V30 13 C -1.479370 4.017623 2.068656 0
M  V30 14 C -1.849473 2.797664 2.616802 0
M  V30 15 C -3.066554 2.640251 3.364661 0
M  V30 16 N -4.064596 2.501753 3.959304 0
M  V30 17 C -1.021983 1.712989 2.434703 0
M  V30 18 N -1.370210 0.468056 2.981904 0
M  V30 19 C -2.234247 -0.306048 2.153998 0
M  V30 20 C -2.706092 0.160886 0.940010 0
M  V30 21 C -3.553761 -0.573027 0.108870 0
M  V30 22 C -3.942484 -1.850217 0.534509 0
M  V30 23 F -4.772284 -2.523684 -0.317775 0
M  V30 24 C -3.479444 -2.326418 1.739942 0
M  V30 25 Cl -4.054643 -3.932048 2.120704 0
M  V30 26 C -2.645724 -1.583752 2.540359 0
M  V30 27 C 0.150221 1.807496 1.730212 0
M  V30 28 C 1.048932 0.794208 1.491695 0
M  V30 29 C 1.203244 -2.898226 -0.289549 0
M  V30 30 C 0.093368 -2.556253 0.629919 0
M  V30 31 N 1.102466 -3.671621 -1.378633 0
M  V30 32 H 3.577879 -5.197016 -2.816720 0
M  V30 33 H 1.911828 -4.897785 -3.566415 0
M  V30 34 H 3.193268 -3.700580 -3.782790 0
M  V30 35 H 4.295715 -1.877564 0.933879 0
M  V30 36 H 2.793627 -1.742802 1.920729 0
M  V30 37 H 4.003420 0.124763 0.093231 0
M  V30 38 H 3.415032 2.342830 -0.294137 0
M  V30 39 H -2.115594 4.885121 2.199369 0
M  V30 40 H -1.076847 0.069437 3.885250 0
M  V30 41 H -2.415162 1.127896 0.610455 0
M  V30 42 H -3.873538 -0.125798 -0.825519 0
M  V30 43 H -2.332793 -2.020707 3.453977 0
M  V30 44 H 0.739670 -0.136924 1.941834 0
M  V30 45 H -0.655822 -3.381754 0.595595 0
M  V30 46 H 0.426341 -2.471376 1.692670 0
M  V30 47 H -0.388641 -1.615126 0.354726 0
M  V30 48 H 0.235442 -4.109603 -1.713998 0
M  V30 END ATOM
M  V30 BEGIN BOND
M  V30 1 1 1 2
M  V30 2 2 2 3
M  V30 3 1 3 4
M  V30 4 1 4 5
M  V30 5 1 5 6
M  V30 6 1 6 7
M  V30 7 2 7 8
M  V30 8 1 8 9
M  V30 9 1 9 10
M  V30 10 2 9 11
M  V30 11 1 11 12
M  V30 12 2 12 13
M  V30 13 1 13 14
M  V30 14 1 14 15
M  V30 15 3 15 16
M  V30 16 2 14 17
M  V30 17 1 17 18
M  V30 18 1 18 19
M  V30 19 2 19 20
M  V30 20 1 20 21
M  V30 21 2 21 22
M  V30 22 1 22 23
M  V30 23 1 22 24
M  V30 24 1 24 25
M  V30 25 2 24 26
M  V30 26 1 17 27
M  V30 27 2 27 28
M  V30 28 2 4 29
M  V30 29 1 29 30
M  V30 30 1 29 31
M  V30 31 1 31 2
M  V30 32 1 28 7
M  V30 33 1 27 11
M  V30 34 1 26 19
M  V30 35 1 1 32
M  V30 36 1 1 33
M  V30 37 1 1 34
M  V30 38 1 5 35
M  V30 39 1 5 36
M  V30 40 1 6 37
M  V30 41 1 8 38
M  V30 42 1 13 39
M  V30 43 1 18 40
M  V30 44 1 20 41
M  V30 45 1 21 42
M  V30 46 1 26 43
M  V30 47 1 28 44
M  V30 48 1 30 45
M  V30 49 1 30 46
M  V30 50 1 30 47
M  V30 51 1 31 48
M  V30 END BOND
M  V30 END CTAB
M  END
>  <Dataset>  (521) 
ChEMBL_Kinases

>  <Ligand_Instance>  (521) 
nan

>  <PDB_ID>  (521) 
nan

>  <Standardized_SMILES>  (521) 
Cc1nc(CNc2cc(Cl)c3ncc(C#N)c(Nc4ccc(F)c(Cl)c4)c3c2)c(C)[nH]1

>  <Name>  (521) 
nan

>  <Pocket>  (521) 
nan

>  <ATP_Site>  (521) 
nan

>  <Peripheral>  (521) 
nan

>  <Num_H_Atoms_ProtBoundConf>  (521) 
nan

>  <Num_Resolved_Atoms>  (521) 
nan

>  <Num_Not_Resolved_Atoms>  (521) 
nan

$$$$
CHEMBL75267
     RDKit          3D

  0  0  0  0  0  0  0  0  0  0999 V3000
M  V30 BEGIN CTAB
M  V30 COUNTS 29 31 0 0 0
M  V30 BEGIN ATOM
M  V30 1 O -1.734839 -2.064260 3.479302 0
M  V30 2 C -1.129738 -1.470005 2.563033 0
M  V30 3 C -0.033432 -1.992092 1.907824 0
M  V30 4 C 0.662653 -1.369679 0.892244 0
M  V30 5 C 1.812936 -1.964468 0.234314 0
M  V30 6 C 2.346737 -3.200132 0.532165 0
M  V30 7 C 3.442146 -3.724851 -0.120585 0
M  V30 8 C 4.041939 -2.972787 -1.131278 0
M  V30 9 C 3.523761 -1.734407 -1.444852 0
M  V30 10 C 2.427929 -1.246597 -0.768526 0
M  V30 11 O 0.200622 -0.187175 0.563429 0
M  V30 12 C -0.838110 0.356244 1.153587 0
M  V30 13 C -1.186137 1.615175 0.674471 0
M  V30 14 O -0.500659 2.240351 -0.333324 0
M  V30 15 C -2.266586 2.234748 1.254175 0
M  V30 16 O -2.720708 3.506755 0.862007 0
M  V30 17 C -3.018580 1.677737 2.278794 0
M  V30 18 C -2.658310 0.429562 2.740171 0
M  V30 19 C -1.578477 -0.221871 2.181043 0
M  V30 20 H 0.269115 -2.969994 2.251079 0
M  V30 21 H 1.885098 -3.776733 1.308663 0
M  V30 22 H 3.843383 -4.701556 0.133412 0
M  V30 23 H 4.903034 -3.374182 -1.651358 0
M  V30 24 H 3.969238 -1.141716 -2.216962 0
M  V30 25 H 2.028724 -0.255556 -1.033369 0
M  V30 26 H -0.548960 1.858847 -1.276620 0
M  V30 27 H -2.375761 4.337410 1.340045 0
M  V30 28 H -3.864706 2.154223 2.738258 0
M  V30 29 H -3.179414 -0.095390 3.537550 0
M  V30 END ATOM
M  V30 BEGIN BOND
M  V30 1 2 1 2
M  V30 2 1 2 3
M  V30 3 2 3 4
M  V30 4 1 4 5
M  V30 5 2 5 6
M  V30 6 1 6 7
M  V30 7 2 7 8
M  V30 8 1 8 9
M  V30 9 2 9 10
M  V30 10 1 4 11
M  V30 11 1 11 12
M  V30 12 2 12 13
M  V30 13 1 13 14
M  V30 14 1 13 15
M  V30 15 1 15 16
M  V30 16 2 15 17
M  V30 17 1 17 18
M  V30 18 2 18 19
M  V30 19 1 19 2
M  V30 20 1 10 5
M  V30 21 1 19 12
M  V30 22 1 3 20
M  V30 23 1 6 21
M  V30 24 1 7 22
M  V30 25 1 8 23
M  V30 26 1 9 24
M  V30 27 1 10 25
M  V30 28 1 14 26
M  V30 29 1 16 27
M  V30 30 1 17 28
M  V30 31 1 18 29
M  V30 END BOND
M  V30 END CTAB
M  END
>  <Dataset>  (522) 
ChEMBL_Kinases

>  <Ligand_Instance>  (522) 
nan

>  <PDB_ID>  (522) 
nan

>  <Standardized_SMILES>  (522) 
O=c1cc(-c2ccccc2)oc2c(O)c(O)ccc12

>  <Name>  (522) 
7,8-DIHYDROXYFLAVONE

>  <Pocket>  (522) 
nan

>  <ATP_Site>  (522) 
nan

>  <Peripheral>  (522) 
nan

>  <Num_H_Atoms_ProtBoundConf>  (522) 
nan

>  <Num_Resolved_Atoms>  (522) 
nan

>  <Num_Not_Resolved_Atoms>  (522) 
nan

$$$$
CHEMBL3955743
     RDKit          3D

  0  0  0  0  0  0  0  0  0  0999 V3000
M  V30 BEGIN CTAB
M  V30 COUNTS 62 65 0 0 0
M  V30 BEGIN ATOM
M  V30 1 C 1.353254 -3.800936 2.279812 0
M  V30 2 C 1.404242 -2.336949 2.149557 0
M  V30 3 C 2.373858 -1.683272 2.861797 0
M  V30 4 C 2.467260 -0.314425 2.834815 0
M  V30 5 C 1.553787 0.364140 2.069333 0
M  V30 6 N 1.648783 1.779396 2.039710 0
M  V30 7 C 2.502456 2.198323 0.983106 0
M  V30 8 O 2.987338 1.262078 0.307837 0
M  V30 9 C 2.831276 3.581321 0.654294 0
M  V30 10 C 3.686772 3.744595 -0.415546 0
M  V30 11 C 4.044326 5.043742 -0.786298 0
M  V30 12 C 3.534514 6.112965 -0.076360 0
M  V30 13 C 2.677745 5.913202 0.992786 0
M  V30 14 C 2.186388 7.132225 1.688574 0
M  V30 15 F 1.065703 6.726354 2.416388 0
M  V30 16 F 3.103727 7.674380 2.550626 0
M  V30 17 F 1.772682 8.029817 0.726621 0
M  V30 18 C 2.318575 4.633173 1.366786 0
M  V30 19 C 0.597768 -0.331122 1.369969 0
M  V30 20 C 0.471590 -1.719184 1.371079 0
M  V30 21 C -0.613982 -2.234436 0.579360 0
M  V30 22 C -0.823535 -3.490815 0.095662 0
M  V30 23 C -1.850546 -3.925070 -0.680322 0
M  V30 24 N -2.013406 -5.249171 -1.150737 0
M  V30 25 C -3.147266 -5.572133 -1.990681 0
M  V30 26 C -3.874209 -6.736716 -1.343537 0
M  V30 27 O -3.017112 -7.834172 -1.390959 0
M  V30 28 C -1.893193 -7.660505 -0.622688 0
M  V30 29 C -1.152352 -6.366132 -0.885782 0
M  V30 30 N -2.777586 -2.977425 -1.009129 0
M  V30 31 C -2.632578 -1.711776 -0.565590 0
M  V30 32 N -3.569208 -0.691861 -0.881118 0
M  V30 33 C -3.431741 0.663423 -0.413977 0
M  V30 34 C -3.425839 0.796806 1.081602 0
M  V30 35 O -3.290356 2.131059 1.485814 0
M  V30 36 N -1.577261 -1.399868 0.195071 0
M  V30 37 H 1.821295 -4.352619 1.469077 0
M  V30 38 H 0.322077 -4.144877 2.489142 0
M  V30 39 H 1.892997 -4.082588 3.255752 0
M  V30 40 H 3.081653 -2.226525 3.456424 0
M  V30 41 H 3.244630 0.165886 3.408714 0
M  V30 42 H 1.217483 2.544018 2.636338 0
M  V30 43 H 4.106626 2.925739 -0.996381 0
M  V30 44 H 4.726631 5.154597 -1.640803 0
M  V30 45 H 3.874461 7.081636 -0.445437 0
M  V30 46 H 1.650392 4.488404 2.201203 0
M  V30 47 H -0.069600 0.333354 0.797981 0
M  V30 48 H -0.115670 -4.256338 0.298617 0
M  V30 49 H -2.692863 -5.938463 -2.957310 0
M  V30 50 H -3.789498 -4.706760 -2.190368 0
M  V30 51 H -4.206115 -6.457148 -0.343018 0
M  V30 52 H -4.744958 -6.957772 -1.981122 0
M  V30 53 H -2.049529 -7.806096 0.473296 0
M  V30 54 H -1.168431 -8.471748 -0.908364 0
M  V30 55 H -0.471884 -6.222956 -0.024608 0
M  V30 56 H -0.491075 -6.503362 -1.787809 0
M  V30 57 H -4.389122 -0.962340 -1.482593 0
M  V30 58 H -4.273406 1.271914 -0.796618 0
M  V30 59 H -2.519111 1.093947 -0.876799 0
M  V30 60 H -4.424096 0.465910 1.449515 0
M  V30 61 H -2.611682 0.241805 1.564631 0
M  V30 62 H -3.214259 2.749110 0.726372 0
M  V30 END ATOM
M  V30 BEGIN BOND
M  V30 1 1 1 2
M  V30 2 2 2 3
M  V30 3 1 3 4
M  V30 4 2 4 5
M  V30 5 1 5 6
M  V30 6 1 6 7
M  V30 7 2 7 8
M  V30 8 1 7 9
M  V30 9 2 9 10
M  V30 10 1 10 11
M  V30 11 2 11 12
M  V30 12 1 12 13
M  V30 13 1 13 14
M  V30 14 1 14 15
M  V30 15 1 14 16
M  V30 16 1 14 17
M  V30 17 2 13 18
M  V30 18 1 5 19
M  V30 19 2 19 20
M  V30 20 1 20 21
M  V30 21 2 21 22
M  V30 22 1 22 23
M  V30 23 1 23 24
M  V30 24 1 24 25
M  V30 25 1 25 26
M  V30 26 1 26 27
M  V30 27 1 27 28
M  V30 28 1 28 29
M  V30 29 2 23 30
M  V30 30 1 30 31
M  V30 31 1 31 32
M  V30 32 1 32 33
M  V30 33 1 33 34
M  V30 34 1 34 35
M  V30 35 2 31 36
M  V30 36 1 20 2
M  V30 37 1 36 21
M  V30 38 1 18 9
M  V30 39 1 29 24
M  V30 40 1 1 37
M  V30 41 1 1 38
M  V30 42 1 1 39
M  V30 43 1 3 40
M  V30 44 1 4 41
M  V30 45 1 6 42
M  V30 46 1 10 43
M  V30 47 1 11 44
M  V30 48 1 12 45
M  V30 49 1 18 46
M  V30 50 1 19 47
M  V30 51 1 22 48
M  V30 52 1 25 49
M  V30 53 1 25 50
M  V30 54 1 26 51
M  V30 55 1 26 52
M  V30 56 1 28 53
M  V30 57 1 28 54
M  V30 58 1 29 55
M  V30 59 1 29 56
M  V30 60 1 32 57
M  V30 61 1 33 58
M  V30 62 1 33 59
M  V30 63 1 34 60
M  V30 64 1 34 61
M  V30 65 1 35 62
M  V30 END BOND
M  V30 END CTAB
M  END
>  <Dataset>  (523) 
ChEMBL_Kinases

>  <Ligand_Instance>  (523) 
nan

>  <PDB_ID>  (523) 
nan

>  <Standardized_SMILES>  (523) 
Cc1ccc(NC(=O)c2cccc(C(F)(F)F)c2)cc1-c1cc(N2CCOCC2)nc(NCCO)n1

>  <Name>  (523) 
nan

>  <Pocket>  (523) 
nan

>  <ATP_Site>  (523) 
nan

>  <Peripheral>  (523) 
nan

>  <Num_H_Atoms_ProtBoundConf>  (523) 
nan

>  <Num_Resolved_Atoms>  (523) 
nan

>  <Num_Not_Resolved_Atoms>  (523) 
nan

$$$$
CHEMBL73933
     RDKit          3D

  0  0  0  0  0  0  0  0  0  0999 V3000
M  V30 BEGIN CTAB
M  V30 COUNTS 30 32 0 0 0
M  V30 BEGIN ATOM
M  V30 1 O -1.826020 -1.651290 3.514179 0
M  V30 2 C -1.525846 -1.001465 2.489239 0
M  V30 3 C -2.165469 -1.374702 1.204830 0
M  V30 4 C -1.483477 -0.754831 0.013316 0
M  V30 5 C -0.248260 -1.463524 -0.409305 0
M  V30 6 C 0.246129 -2.682255 0.008236 0
M  V30 7 C 1.427820 -3.158723 -0.522978 0
M  V30 8 C 2.170409 -2.481827 -1.469542 0
M  V30 9 O 3.345880 -3.057509 -1.934112 0
M  V30 10 C 1.661713 -1.264554 -1.876110 0
M  V30 11 C 0.486381 -0.755947 -1.369539 0
M  V30 12 O -1.134533 0.593761 0.234409 0
M  V30 13 C -0.365731 0.921826 1.367490 0
M  V30 14 C 0.537117 1.933572 1.456125 0
M  V30 15 C 1.243161 2.177806 2.609832 0
M  V30 16 C 1.018362 1.363959 3.701832 0
M  V30 17 C 0.114409 0.314426 3.685549 0
M  V30 18 C -0.567093 0.118083 2.493826 0
M  V30 19 H -2.230857 -2.458312 1.159434 0
M  V30 20 H -3.202865 -0.944976 1.224982 0
M  V30 21 H -2.179234 -0.779991 -0.854557 0
M  V30 22 H -0.365789 -3.159921 0.738093 0
M  V30 23 H 1.766313 -4.125618 -0.153968 0
M  V30 24 H 3.889828 -2.583643 -2.656484 0
M  V30 25 H 2.253516 -0.726765 -2.629423 0
M  V30 26 H 0.200674 0.206469 -1.772839 0
M  V30 27 H 0.676741 2.548575 0.560761 0
M  V30 28 H 1.947110 2.998510 2.615816 0
M  V30 29 H 1.577321 1.561050 4.607851 0
M  V30 30 H -0.064837 -0.329324 4.545961 0
M  V30 END ATOM
M  V30 BEGIN BOND
M  V30 1 2 1 2
M  V30 2 1 2 3
M  V30 3 1 3 4
M  V30 4 1 4 5
M  V30 5 2 5 6
M  V30 6 1 6 7
M  V30 7 2 7 8
M  V30 8 1 8 9
M  V30 9 1 8 10
M  V30 10 2 10 11
M  V30 11 1 4 12
M  V30 12 1 12 13
M  V30 13 2 13 14
M  V30 14 1 14 15
M  V30 15 2 15 16
M  V30 16 1 16 17
M  V30 17 2 17 18
M  V30 18 1 18 2
M  V30 19 1 11 5
M  V30 20 1 18 13
M  V30 21 1 3 19
M  V30 22 1 3 20
M  V30 23 1 4 21
M  V30 24 1 6 22
M  V30 25 1 7 23
M  V30 26 1 9 24
M  V30 27 1 10 25
M  V30 28 1 11 26
M  V30 29 1 14 27
M  V30 30 1 15 28
M  V30 31 1 16 29
M  V30 32 1 17 30
M  V30 END BOND
M  V30 END CTAB
M  END
>  <Dataset>  (524) 
ChEMBL_Kinases

>  <Ligand_Instance>  (524) 
nan

>  <PDB_ID>  (524) 
nan

>  <Standardized_SMILES>  (524) 
O=C1CC(c2ccc(O)cc2)Oc2ccccc21

>  <Name>  (524) 
4'-HYDROXY-FLAVANONE

>  <Pocket>  (524) 
nan

>  <ATP_Site>  (524) 
nan

>  <Peripheral>  (524) 
nan

>  <Num_H_Atoms_ProtBoundConf>  (524) 
nan

>  <Num_Resolved_Atoms>  (524) 
nan

>  <Num_Not_Resolved_Atoms>  (524) 
nan

$$$$
CHEMBL395573
     RDKit          3D

  0  0  0  0  0  0  0  0  0  0999 V3000
M  V30 BEGIN CTAB
M  V30 COUNTS 45 48 0 0 0
M  V30 BEGIN ATOM
M  V30 1 N -0.844646 -5.816832 3.651828 0
M  V30 2 C -0.219985 -4.867654 3.358257 0
M  V30 3 C 0.535099 -3.690941 3.016545 0
M  V30 4 C 1.755676 -3.456280 3.613997 0
M  V30 5 N 2.463144 -2.364465 3.301204 0
M  V30 6 C 2.018229 -1.471144 2.408440 0
M  V30 7 C 2.785305 -0.369641 2.125887 0
M  V30 8 Cl 4.314728 -0.112549 2.899890 0
M  V30 9 C 2.260598 0.502614 1.197938 0
M  V30 10 C 1.062459 0.363408 0.548997 0
M  V30 11 N 0.530410 1.267047 -0.396436 0
M  V30 12 C 0.966437 2.523821 -0.953218 0
M  V30 13 C 1.024215 3.625411 0.028995 0
M  V30 14 C 2.014243 4.162784 0.812757 0
M  V30 15 C 1.784547 5.200443 1.672967 0
M  V30 16 C 0.519197 5.749195 1.778243 0
M  V30 17 C -0.472694 5.211087 0.992557 0
M  V30 18 N -0.222992 4.175212 0.140392 0 CHG=1 VAL=4
M  V30 19 O -1.377885 3.809304 -0.540835 0 CHG=-1 VAL=1
M  V30 20 C 0.357622 -0.757129 0.883202 0
M  V30 21 C 0.804672 -1.663310 1.786057 0
M  V30 22 C 0.061627 -2.782974 2.095921 0
M  V30 23 N -1.188172 -2.983595 1.456814 0
M  V30 24 C -1.396005 -3.675918 0.250130 0
M  V30 25 C -0.310168 -4.223695 -0.400453 0
M  V30 26 C -0.581647 -4.893333 -1.584749 0
M  V30 27 C -1.875357 -4.987077 -2.056036 0
M  V30 28 F -2.191466 -5.629669 -3.206027 0
M  V30 29 C -2.960130 -4.424941 -1.381216 0
M  V30 30 Cl -4.608539 -4.524807 -1.949024 0
M  V30 31 C -2.695545 -3.759623 -0.205810 0
M  V30 32 H 2.190656 -4.111961 4.336709 0
M  V30 33 H 2.877165 1.361251 0.981363 0
M  V30 34 H -0.411247 1.003664 -0.824156 0
M  V30 35 H 2.047497 2.330509 -1.260379 0
M  V30 36 H 0.447450 2.805321 -1.870165 0
M  V30 37 H 2.952715 3.668194 0.641898 0
M  V30 38 H 2.648116 5.529022 2.231547 0
M  V30 39 H 0.372539 6.558456 2.459044 0
M  V30 40 H -1.431781 5.688923 1.127559 0
M  V30 41 H -0.601235 -0.963562 0.429156 0
M  V30 42 H -1.935116 -2.537998 2.019183 0
M  V30 43 H 0.705919 -4.165488 -0.056056 0
M  V30 44 H 0.175088 -5.371390 -2.198968 0
M  V30 45 H -3.521911 -3.302694 0.356194 0
M  V30 END ATOM
M  V30 BEGIN BOND
M  V30 1 3 1 2
M  V30 2 1 2 3
M  V30 3 2 3 4
M  V30 4 1 4 5
M  V30 5 2 5 6
M  V30 6 1 6 7
M  V30 7 1 7 8
M  V30 8 2 7 9
M  V30 9 1 9 10
M  V30 10 1 10 11
M  V30 11 1 11 12
M  V30 12 1 12 13
M  V30 13 2 13 14
M  V30 14 1 14 15
M  V30 15 2 15 16
M  V30 16 1 16 17
M  V30 17 2 17 18
M  V30 18 1 18 19
M  V30 19 2 10 20
M  V30 20 1 20 21
M  V30 21 2 21 22
M  V30 22 1 22 23
M  V30 23 1 23 24
M  V30 24 2 24 25
M  V30 25 1 25 26
M  V30 26 2 26 27
M  V30 27 1 27 28
M  V30 28 1 27 29
M  V30 29 1 29 30
M  V30 30 2 29 31
M  V30 31 1 22 3
M  V30 32 1 31 24
M  V30 33 1 21 6
M  V30 34 1 18 13
M  V30 35 1 4 32
M  V30 36 1 9 33
M  V30 37 1 11 34
M  V30 38 1 12 35
M  V30 39 1 12 36
M  V30 40 1 14 37
M  V30 41 1 15 38
M  V30 42 1 16 39
M  V30 43 1 17 40
M  V30 44 1 20 41
M  V30 45 1 23 42
M  V30 46 1 25 43
M  V30 47 1 26 44
M  V30 48 1 31 45
M  V30 END BOND
M  V30 END CTAB
M  END
>  <Dataset>  (525) 
ChEMBL_Kinases

>  <Ligand_Instance>  (525) 
nan

>  <PDB_ID>  (525) 
nan

>  <Standardized_SMILES>  (525) 
N#Cc1cnc2c(Cl)cc(NCc3cccc[n+]3[O-])cc2c1Nc1ccc(F)c(Cl)c1

>  <Name>  (525) 
nan

>  <Pocket>  (525) 
nan

>  <ATP_Site>  (525) 
nan

>  <Peripheral>  (525) 
nan

>  <Num_H_Atoms_ProtBoundConf>  (525) 
nan

>  <Num_Resolved_Atoms>  (525) 
nan

>  <Num_Not_Resolved_Atoms>  (525) 
nan

$$$$
CHEMBL3955726
     RDKit          3D

  0  0  0  0  0  0  0  0  0  0999 V3000
M  V30 BEGIN CTAB
M  V30 COUNTS 38 43 0 0 0
M  V30 BEGIN ATOM
M  V30 1 C -1.298453 -4.347655 3.604924 0
M  V30 2 N -0.055367 -3.913964 3.937977 0
M  V30 3 C 0.480577 -3.272395 2.890248 0
M  V30 4 C 1.686976 -2.644634 2.671317 0
M  V30 5 C 1.899620 -2.077386 1.436138 0
M  V30 6 C 0.992539 -2.078404 0.366435 0
M  V30 7 N 1.309719 -1.478947 -0.874081 0
M  V30 8 C 1.911937 -2.259532 -1.789165 0
M  V30 9 N 2.130234 -1.508697 -2.896903 0
M  V30 10 C 1.674956 -0.263800 -2.696609 0
M  V30 11 C 1.659415 0.858215 -3.500167 0
M  V30 12 N 1.108549 1.971615 -2.962936 0
M  V30 13 C 0.608909 1.976974 -1.721589 0
M  V30 14 C 0.055594 3.136043 -1.212534 0
M  V30 15 N -0.442103 3.131785 0.031195 0
M  V30 16 C -0.443075 2.066450 0.833359 0
M  V30 17 C -1.019373 2.216054 2.157418 0
M  V30 18 C -1.065421 1.190157 3.042366 0
M  V30 19 N -1.592289 1.311796 4.264122 0
M  V30 20 S -2.138318 3.098171 4.283845 0
M  V30 21 C -1.589957 3.423609 2.672884 0
M  V30 22 C 0.096430 0.888272 0.373070 0
M  V30 23 C 0.612053 0.870626 -0.898898 0
M  V30 24 C 1.164338 -0.271581 -1.418034 0
M  V30 25 C -0.215250 -2.732515 0.652773 0
M  V30 26 C -0.458775 -3.311051 1.881024 0
M  V30 27 N -1.535734 -3.962924 2.316149 0
M  V30 28 H -2.002100 -4.906329 4.237141 0
M  V30 29 H 2.451198 -2.588618 3.428041 0
M  V30 30 H 2.847463 -1.575778 1.242135 0
M  V30 31 H 2.227144 -3.308174 -1.787634 0
M  V30 32 H 2.067400 0.842234 -4.505090 0
M  V30 33 H 0.012342 4.043967 -1.786299 0
M  V30 34 H -0.716171 0.176497 2.932955 0
M  V30 35 H -1.648008 4.348036 2.123550 0
M  V30 36 H 0.067392 0.069516 1.060101 0
M  V30 37 H -0.931907 -2.750832 -0.146473 0
M  V30 38 H -2.437766 -4.187934 1.839423 0
M  V30 END ATOM
M  V30 BEGIN BOND
M  V30 1 2 1 2
M  V30 2 1 2 3
M  V30 3 2 3 4
M  V30 4 1 4 5
M  V30 5 2 5 6
M  V30 6 1 6 7
M  V30 7 1 7 8
M  V30 8 2 8 9
M  V30 9 1 9 10
M  V30 10 2 10 11
M  V30 11 1 11 12
M  V30 12 2 12 13
M  V30 13 1 13 14
M  V30 14 2 14 15
M  V30 15 1 15 16
M  V30 16 1 16 17
M  V30 17 1 17 18
M  V30 18 2 18 19
M  V30 19 1 19 20
M  V30 20 1 20 21
M  V30 21 2 16 22
M  V30 22 1 22 23
M  V30 23 2 23 24
M  V30 24 1 6 25
M  V30 25 2 25 26
M  V30 26 1 26 27
M  V30 27 1 27 1
M  V30 28 1 26 3
M  V30 29 1 24 7
M  V30 30 1 24 10
M  V30 31 1 23 13
M  V30 32 2 21 17
M  V30 33 1 1 28
M  V30 34 1 4 29
M  V30 35 1 5 30
M  V30 36 1 8 31
M  V30 37 1 11 32
M  V30 38 1 14 33
M  V30 39 1 18 34
M  V30 40 1 21 35
M  V30 41 1 22 36
M  V30 42 1 25 37
M  V30 43 1 27 38
M  V30 END BOND
M  V30 END CTAB
M  END
>  <Dataset>  (526) 
ChEMBL_Kinases

>  <Ligand_Instance>  (526) 
nan

>  <PDB_ID>  (526) 
nan

>  <Standardized_SMILES>  (526) 
c1nc2ccc(-n3cnc4cnc5cnc(-c6cnsc6)cc5c43)cc2[nH]1

>  <Name>  (526) 
nan

>  <Pocket>  (526) 
nan

>  <ATP_Site>  (526) 
nan

>  <Peripheral>  (526) 
nan

>  <Num_H_Atoms_ProtBoundConf>  (526) 
nan

>  <Num_Resolved_Atoms>  (526) 
nan

>  <Num_Not_Resolved_Atoms>  (526) 
nan

$$$$
CHEMBL4874491
     RDKit          3D

  0  0  0  0  0  0  0  0  0  0999 V3000
M  V30 BEGIN CTAB
M  V30 COUNTS 45 47 0 0 0
M  V30 BEGIN ATOM
M  V30 1 C -3.198382 -5.321145 1.676814 0
M  V30 2 N -1.761870 -5.539619 1.841236 0
M  V30 3 C -0.857680 -5.846264 0.809632 0
M  V30 4 C -0.268717 -4.753259 0.191715 0
M  V30 5 C 0.632696 -4.929991 -0.831722 0
M  V30 6 O 1.338668 -4.046048 -1.589847 0
M  V30 7 C 1.343473 -2.688347 -1.558955 0
M  V30 8 C 2.606455 -2.171550 -1.252440 0
M  V30 9 C 2.826745 -0.799895 -1.171124 0
M  V30 10 C 1.790030 0.082175 -1.394328 0
M  V30 11 N 1.868662 1.504641 -1.344893 0
M  V30 12 C 1.602865 2.050033 -0.052943 0
M  V30 13 O 1.339884 1.181960 0.842916 0
M  V30 14 N 1.609326 3.419165 0.291061 0
M  V30 15 C 1.322506 3.833537 1.637963 0
M  V30 16 C 2.203518 4.014649 2.683867 0
M  V30 17 C 1.696436 4.420555 3.900992 0
M  V30 18 C 0.344396 4.640849 4.072572 0
M  V30 19 C -0.553280 4.459864 3.019541 0
M  V30 20 C -2.007059 4.714517 3.267451 0
M  V30 21 F -2.397014 5.981570 2.903596 0
M  V30 22 F -2.312434 4.477734 4.578866 0
M  V30 23 F -2.706443 3.824867 2.462919 0
M  V30 24 C -0.047546 4.054090 1.802267 0
M  V30 25 C 0.540362 -0.416584 -1.697488 0
M  V30 26 C 0.339143 -1.770284 -1.774095 0
M  V30 27 Cl -1.211096 -2.487584 -2.162858 0
M  V30 28 N 0.904799 -6.219373 -1.192156 0
M  V30 29 C 0.327751 -7.272098 -0.585792 0
M  V30 30 N -0.552961 -7.091089 0.414186 0
M  V30 31 H -3.758828 -6.268621 1.525579 0
M  V30 32 H -3.307010 -4.648921 0.797069 0
M  V30 33 H -3.578640 -4.866081 2.606911 0
M  V30 34 H -1.136901 -5.518639 2.691461 0
M  V30 35 H -0.437616 -3.728254 0.430269 0
M  V30 36 H 3.514866 -2.759267 -1.052877 0
M  V30 37 H 3.787624 -0.362360 -0.936985 0
M  V30 38 H 2.088372 2.213423 -2.096683 0
M  V30 39 H 1.830940 4.094749 -0.479348 0
M  V30 40 H 3.225661 3.808739 2.413804 0
M  V30 41 H 2.445898 4.541145 4.671099 0
M  V30 42 H 0.016308 4.955695 5.046356 0
M  V30 43 H -0.810379 3.940868 1.052078 0
M  V30 44 H -0.337634 0.216545 -1.888985 0
M  V30 45 H 0.522940 -8.299101 -0.848557 0
M  V30 END ATOM
M  V30 BEGIN BOND
M  V30 1 1 1 2
M  V30 2 1 2 3
M  V30 3 2 3 4
M  V30 4 1 4 5
M  V30 5 1 5 6
M  V30 6 1 6 7
M  V30 7 2 7 8
M  V30 8 1 8 9
M  V30 9 2 9 10
M  V30 10 1 10 11
M  V30 11 1 11 12
M  V30 12 2 12 13
M  V30 13 1 12 14
M  V30 14 1 14 15
M  V30 15 2 15 16
M  V30 16 1 16 17
M  V30 17 2 17 18
M  V30 18 1 18 19
M  V30 19 1 19 20
M  V30 20 1 20 21
M  V30 21 1 20 22
M  V30 22 1 20 23
M  V30 23 2 19 24
M  V30 24 1 10 25
M  V30 25 2 25 26
M  V30 26 1 26 27
M  V30 27 2 5 28
M  V30 28 1 28 29
M  V30 29 2 29 30
M  V30 30 1 30 3
M  V30 31 1 26 7
M  V30 32 1 24 15
M  V30 33 1 1 31
M  V30 34 1 1 32
M  V30 35 1 1 33
M  V30 36 1 2 34
M  V30 37 1 4 35
M  V30 38 1 8 36
M  V30 39 1 9 37
M  V30 40 1 11 38
M  V30 41 1 14 39
M  V30 42 1 16 40
M  V30 43 1 17 41
M  V30 44 1 18 42
M  V30 45 1 24 43
M  V30 46 1 25 44
M  V30 47 1 29 45
M  V30 END BOND
M  V30 END CTAB
M  END
>  <Dataset>  (527) 
ChEMBL_Kinases

>  <Ligand_Instance>  (527) 
nan

>  <PDB_ID>  (527) 
nan

>  <Standardized_SMILES>  (527) 
CNc1cc(Oc2ccc(NC(=O)Nc3cccc(C(F)(F)F)c3)cc2Cl)ncn1

>  <Name>  (527) 
nan

>  <Pocket>  (527) 
nan

>  <ATP_Site>  (527) 
nan

>  <Peripheral>  (527) 
nan

>  <Num_H_Atoms_ProtBoundConf>  (527) 
nan

>  <Num_Resolved_Atoms>  (527) 
nan

>  <Num_Not_Resolved_Atoms>  (527) 
nan

$$$$
CHEMBL3955283
     RDKit          3D

  0  0  0  0  0  0  0  0  0  0999 V3000
M  V30 BEGIN CTAB
M  V30 COUNTS 49 53 0 0 0
M  V30 BEGIN ATOM
M  V30 1 C 2.557501 -5.221124 6.139116 0
M  V30 2 O 3.648015 -4.854117 5.317361 0
M  V30 3 C 3.645696 -4.313366 4.093251 0
M  V30 4 O 2.383155 -4.389419 4.252089 0
M  V30 5 N 3.675259 -3.747595 2.812843 0
M  V30 6 C 2.769289 -3.308987 1.812077 0
M  V30 7 N 2.383356 -2.019275 1.877933 0
M  V30 8 C 1.530455 -1.738423 0.876044 0
M  V30 9 C 0.825733 -0.618165 0.444472 0
M  V30 10 C -0.006269 -0.671899 -0.679598 0
M  V30 11 C -0.660146 0.574908 -0.986644 0
M  V30 12 O -1.600399 0.358132 -2.001922 0
M  V30 13 C 0.129712 1.727355 -1.360332 0
M  V30 14 C 1.064512 1.907500 -2.342544 0
M  V30 15 C 1.735603 3.116083 -2.554804 0
M  V30 16 C 1.433989 4.179715 -1.725600 0
M  V30 17 C 0.503421 4.071073 -0.715500 0
M  V30 18 C -0.121722 2.836862 -0.567351 0
M  V30 19 C -1.144309 2.486567 0.435637 0
M  V30 20 O -1.703091 3.105966 1.354427 0
M  V30 21 N -1.430231 1.121635 0.136861 0
M  V30 22 C -2.383683 0.253679 0.822218 0
M  V30 23 C -3.763732 0.319361 0.204358 0
M  V30 24 C -4.828854 -0.529749 0.822841 0
M  V30 25 C -4.884774 0.953229 0.991180 0
M  V30 26 C -0.081657 -1.888803 -1.322576 0
M  V30 27 C 0.607624 -3.015876 -0.914427 0
M  V30 28 C 1.426637 -2.937673 0.203310 0
M  V30 29 N 2.175893 -3.904250 0.761976 0
M  V30 30 H 2.945417 -5.502668 7.113907 0
M  V30 31 H 1.884180 -4.333669 6.332284 0
M  V30 32 H 1.903160 -5.974529 5.644915 0
M  V30 33 H 4.686766 -3.833250 3.018253 0
M  V30 34 H 1.011309 0.236154 1.071389 0
M  V30 35 H -1.224950 0.646244 -2.860425 0
M  V30 36 H 1.370920 1.140042 -3.041952 0
M  V30 37 H 2.469438 3.310942 -3.301394 0
M  V30 38 H 1.909467 5.159604 -1.819526 0
M  V30 39 H 0.264527 4.900682 -0.064388 0
M  V30 40 H -1.995852 -0.775218 0.897560 0
M  V30 41 H -2.511877 0.575467 1.894549 0
M  V30 42 H -3.774712 0.492776 -0.903480 0
M  V30 43 H -4.546742 -1.134142 1.709400 0
M  V30 44 H -5.457386 -1.054444 0.103306 0
M  V30 45 H -5.636558 1.510746 0.398881 0
M  V30 46 H -4.703254 1.401406 1.977136 0
M  V30 47 H -0.735053 -1.882566 -2.183515 0
M  V30 48 H 0.501711 -3.945116 -1.469518 0
M  V30 49 H 2.345405 -4.899257 0.541519 0
M  V30 END ATOM
M  V30 BEGIN BOND
M  V30 1 1 1 2
M  V30 2 1 2 3
M  V30 3 2 3 4
M  V30 4 1 3 5
M  V30 5 1 5 6
M  V30 6 2 6 7
M  V30 7 1 7 8
M  V30 8 2 8 9
M  V30 9 1 9 10
M  V30 10 1 10 11
M  V30 11 1 11 12
M  V30 12 1 11 13
M  V30 13 2 13 14
M  V30 14 1 14 15
M  V30 15 2 15 16
M  V30 16 1 16 17
M  V30 17 2 17 18
M  V30 18 1 18 19
M  V30 19 2 19 20
M  V30 20 1 19 21
M  V30 21 1 21 22
M  V30 22 1 22 23
M  V30 23 1 23 24
M  V30 24 1 24 25
M  V30 25 2 10 26
M  V30 26 1 26 27
M  V30 27 2 27 28
M  V30 28 1 28 29
M  V30 29 1 29 6
M  V30 30 1 28 8
M  V30 31 1 21 11
M  V30 32 1 25 23
M  V30 33 1 18 13
M  V30 34 1 1 30
M  V30 35 1 1 31
M  V30 36 1 1 32
M  V30 37 1 5 33
M  V30 38 1 9 34
M  V30 39 1 12 35
M  V30 40 1 14 36
M  V30 41 1 15 37
M  V30 42 1 16 38
M  V30 43 1 17 39
M  V30 44 1 22 40
M  V30 45 1 22 41
M  V30 46 1 23 42
M  V30 47 1 24 43
M  V30 48 1 24 44
M  V30 49 1 25 45
M  V30 50 1 25 46
M  V30 51 1 26 47
M  V30 52 1 27 48
M  V30 53 1 29 49
M  V30 END BOND
M  V30 END CTAB
M  END
>  <Dataset>  (528) 
ChEMBL_Kinases

>  <Ligand_Instance>  (528) 
nan

>  <PDB_ID>  (528) 
nan

>  <Standardized_SMILES>  (528) 
COC(=O)Nc1nc2cc(C3(O)c4ccccc4C(=O)N3CC3CC3)ccc2[nH]1

>  <Name>  (528) 
nan

>  <Pocket>  (528) 
nan

>  <ATP_Site>  (528) 
nan

>  <Peripheral>  (528) 
nan

>  <Num_H_Atoms_ProtBoundConf>  (528) 
nan

>  <Num_Resolved_Atoms>  (528) 
nan

>  <Num_Not_Resolved_Atoms>  (528) 
nan

$$$$
CHEMBL3955234
     RDKit          3D

  0  0  0  0  0  0  0  0  0  0999 V3000
M  V30 BEGIN CTAB
M  V30 COUNTS 51 54 0 0 0
M  V30 BEGIN ATOM
M  V30 1 C 1.759365 -7.955958 1.879367 0
M  V30 2 O 2.957211 -7.212850 1.792555 0
M  V30 3 C 3.112890 -5.878358 1.745465 0
M  V30 4 O 1.858123 -5.821560 1.813993 0
M  V30 5 N 3.511814 -4.538174 1.684424 0
M  V30 6 C 2.796887 -3.313855 1.686713 0
M  V30 7 N 2.431605 -2.820666 0.469691 0
M  V30 8 C 1.768048 -1.668236 0.639469 0
M  V30 9 C 1.192096 -0.779929 -0.242306 0
M  V30 10 C 0.553629 0.361686 0.237313 0
M  V30 11 C -0.092294 1.410135 -0.558384 0
M  V30 12 O 0.255348 1.312474 -1.908384 0
M  V30 13 C 0.372283 2.738264 -0.076161 0
M  V30 14 C 1.682540 3.135584 -0.047641 0
M  V30 15 C 1.994482 4.379974 0.464740 0
M  V30 16 C 0.966875 5.200650 0.940443 0
M  V30 17 C -0.322726 4.720447 0.872272 0
M  V30 18 C -0.681987 3.502935 0.376037 0
M  V30 19 C -1.850859 2.701885 0.118263 0
M  V30 20 O -2.961091 3.236803 0.475151 0
M  V30 21 N -1.531641 1.432328 -0.502409 0
M  V30 22 C -2.679106 0.651523 -0.877512 0
M  V30 23 C -3.218690 -0.281653 0.154782 0
M  V30 24 C -4.441236 -0.966713 -0.491161 0
M  V30 25 C -2.244421 -1.423796 0.404550 0
M  V30 26 C 0.538537 0.536661 1.620804 0
M  V30 27 C 1.122576 -0.363450 2.522482 0
M  V30 28 C 1.754996 -1.499371 1.999497 0
M  V30 29 N 2.376989 -2.491477 2.657059 0
M  V30 30 H 1.007157 -7.628052 1.101073 0
M  V30 31 H 2.038829 -8.989297 1.522376 0
M  V30 32 H 1.301530 -7.959715 2.872299 0
M  V30 33 H 4.465400 -4.954715 1.643671 0
M  V30 34 H 1.198059 -0.903489 -1.298986 0
M  V30 35 H -0.277998 0.652989 -2.398764 0
M  V30 36 H 2.528437 2.561885 -0.394452 0
M  V30 37 H 2.988913 4.791816 0.534285 0
M  V30 38 H 1.103468 6.186453 1.359529 0
M  V30 39 H -1.147389 5.350395 1.240973 0
M  V30 40 H -2.415259 0.002870 -1.767196 0
M  V30 41 H -3.551873 1.272057 -1.224465 0
M  V30 42 H -3.492624 0.185214 1.099449 0
M  V30 43 H -4.167279 -1.174404 -1.545384 0
M  V30 44 H -4.601808 -1.958616 -0.024766 0
M  V30 45 H -5.328345 -0.327683 -0.486987 0
M  V30 46 H -1.668321 -1.236361 1.311627 0
M  V30 47 H -1.589415 -1.456909 -0.466424 0
M  V30 48 H -2.816991 -2.391370 0.468338 0
M  V30 49 H 0.061739 1.399902 2.089995 0
M  V30 50 H 1.080048 -0.176181 3.587155 0
M  V30 51 H 2.549185 -2.678801 3.650206 0
M  V30 END ATOM
M  V30 BEGIN BOND
M  V30 1 1 1 2
M  V30 2 1 2 3
M  V30 3 2 3 4
M  V30 4 1 3 5
M  V30 5 1 5 6
M  V30 6 2 6 7
M  V30 7 1 7 8
M  V30 8 2 8 9
M  V30 9 1 9 10
M  V30 10 1 10 11
M  V30 11 1 11 12
M  V30 12 1 11 13
M  V30 13 2 13 14
M  V30 14 1 14 15
M  V30 15 2 15 16
M  V30 16 1 16 17
M  V30 17 2 17 18
M  V30 18 1 18 19
M  V30 19 2 19 20
M  V30 20 1 19 21
M  V30 21 1 21 22
M  V30 22 1 22 23
M  V30 23 1 23 24
M  V30 24 1 23 25
M  V30 25 2 10 26
M  V30 26 1 26 27
M  V30 27 2 27 28
M  V30 28 1 28 29
M  V30 29 1 29 6
M  V30 30 1 28 8
M  V30 31 1 21 11
M  V30 32 1 18 13
M  V30 33 1 1 30
M  V30 34 1 1 31
M  V30 35 1 1 32
M  V30 36 1 5 33
M  V30 37 1 9 34
M  V30 38 1 12 35
M  V30 39 1 14 36
M  V30 40 1 15 37
M  V30 41 1 16 38
M  V30 42 1 17 39
M  V30 43 1 22 40
M  V30 44 1 22 41
M  V30 45 1 23 42
M  V30 46 1 24 43
M  V30 47 1 24 44
M  V30 48 1 24 45
M  V30 49 1 25 46
M  V30 50 1 25 47
M  V30 51 1 25 48
M  V30 52 1 26 49
M  V30 53 1 27 50
M  V30 54 1 29 51
M  V30 END BOND
M  V30 END CTAB
M  END
>  <Dataset>  (529) 
ChEMBL_Kinases

>  <Ligand_Instance>  (529) 
nan

>  <PDB_ID>  (529) 
nan

>  <Standardized_SMILES>  (529) 
COC(=O)Nc1nc2cc(C3(O)c4ccccc4C(=O)N3CC(C)C)ccc2[nH]1

>  <Name>  (529) 
nan

>  <Pocket>  (529) 
nan

>  <ATP_Site>  (529) 
nan

>  <Peripheral>  (529) 
nan

>  <Num_H_Atoms_ProtBoundConf>  (529) 
nan

>  <Num_Resolved_Atoms>  (529) 
nan

>  <Num_Not_Resolved_Atoms>  (529) 
nan

$$$$
CHEMBL3955876
     RDKit          3D

  0  0  0  0  0  0  0  0  0  0999 V3000
M  V30 BEGIN CTAB
M  V30 COUNTS 41 44 0 0 0
M  V30 BEGIN ATOM
M  V30 1 N 0.260172 -4.671843 1.852411 0
M  V30 2 C 1.081050 -4.687501 0.681819 0
M  V30 3 N 1.479927 -5.791322 -0.017714 0
M  V30 4 N 2.223010 -5.354372 -1.023185 0
M  V30 5 C 2.335783 -4.002404 -1.022605 0
M  V30 6 C 2.995527 -3.122162 -1.856258 0
M  V30 7 C 2.900371 -1.770088 -1.558520 0
M  V30 8 C 2.189057 -1.257523 -0.484391 0
M  V30 9 C 2.098343 0.140641 -0.186288 0
M  V30 10 O 3.184410 0.765429 0.075044 0
M  V30 11 N 0.896685 0.899690 -0.154996 0
M  V30 12 C -0.385540 0.271203 -0.438893 0
M  V30 13 C -1.390672 1.397765 -0.471355 0
M  V30 14 C -0.753453 2.385848 0.520649 0 CFG=1
M  V30 15 C -1.001358 1.980045 1.922101 0
M  V30 16 C -0.339506 1.021432 2.653790 0
M  V30 17 C -0.682583 0.724874 3.954521 0
M  V30 18 C -1.726154 1.379659 4.617110 0
M  V30 19 Cl -2.052507 0.901201 6.268090 0
M  V30 20 C -2.410162 2.356168 3.891892 0
M  V30 21 C -2.042554 2.628875 2.592217 0
M  V30 22 C 0.686964 2.298788 0.121715 0
M  V30 23 C 1.547731 -2.190835 0.316676 0
M  V30 24 C 1.607981 -3.552140 0.067380 0
M  V30 25 H 0.434151 -4.622613 2.893783 0
M  V30 26 H -0.793396 -4.706652 1.993063 0
M  V30 27 H 2.639335 -6.044523 -1.696695 0
M  V30 28 H 3.559591 -3.491299 -2.705094 0
M  V30 29 H 3.415750 -1.072599 -2.209263 0
M  V30 30 H -0.721018 -0.428688 0.338346 0
M  V30 31 H -0.393660 -0.197755 -1.452618 0
M  V30 32 H -2.410883 1.109377 -0.180166 0
M  V30 33 H -1.305550 1.882262 -1.463705 0
M  V30 34 H -1.207623 3.397787 0.354147 0
M  V30 35 H 0.462641 0.518858 2.160502 0
M  V30 36 H -0.104018 -0.048987 4.455699 0
M  V30 37 H -3.204910 2.842872 4.422946 0
M  V30 38 H -2.642007 3.415900 2.103371 0
M  V30 39 H 1.380744 2.695157 0.885481 0
M  V30 40 H 0.781165 2.833768 -0.849136 0
M  V30 41 H 0.960002 -1.930340 1.183211 0
M  V30 END ATOM
M  V30 BEGIN BOND
M  V30 1 1 1 2
M  V30 2 2 2 3
M  V30 3 1 3 4
M  V30 4 1 4 5
M  V30 5 2 5 6
M  V30 6 1 6 7
M  V30 7 2 7 8
M  V30 8 1 8 9
M  V30 9 2 9 10
M  V30 10 1 9 11
M  V30 11 1 11 12
M  V30 12 1 12 13
M  V30 13 1 13 14
M  V30 14 1 14 15
M  V30 15 2 15 16
M  V30 16 1 16 17
M  V30 17 2 17 18
M  V30 18 1 18 19
M  V30 19 1 18 20
M  V30 20 2 20 21
M  V30 21 1 14 22
M  V30 22 1 8 23
M  V30 23 2 23 24
M  V30 24 1 24 2
M  V30 25 1 24 5
M  V30 26 1 22 11
M  V30 27 1 21 15
M  V30 28 1 1 25
M  V30 29 1 1 26
M  V30 30 1 4 27
M  V30 31 1 6 28
M  V30 32 1 7 29
M  V30 33 1 12 30
M  V30 34 1 12 31
M  V30 35 1 13 32
M  V30 36 1 13 33
M  V30 37 1 14 34 CFG=1
M  V30 38 1 16 35
M  V30 39 1 17 36
M  V30 40 1 20 37
M  V30 41 1 21 38
M  V30 42 1 22 39
M  V30 43 1 22 40
M  V30 44 1 23 41
M  V30 END BOND
M  V30 END CTAB
M  END
>  <Dataset>  (530) 
ChEMBL_Kinases

>  <Ligand_Instance>  (530) 
nan

>  <PDB_ID>  (530) 
nan

>  <Standardized_SMILES>  (530) 
Nc1n[nH]c2ccc(C(=O)N3CC[C@@H](c4ccc(Cl)cc4)C3)cc12

>  <Name>  (530) 
nan

>  <Pocket>  (530) 
nan

>  <ATP_Site>  (530) 
nan

>  <Peripheral>  (530) 
nan

>  <Num_H_Atoms_ProtBoundConf>  (530) 
nan

>  <Num_Resolved_Atoms>  (530) 
nan

>  <Num_Not_Resolved_Atoms>  (530) 
nan

$$$$
CHEMBL4874062
     RDKit          3D

  0  0  0  0  0  0  0  0  0  0999 V3000
M  V30 BEGIN CTAB
M  V30 COUNTS 46 49 0 0 0
M  V30 BEGIN ATOM
M  V30 1 O 2.140451 0.599490 4.438155 0
M  V30 2 S 1.973031 0.092794 3.029929 0
M  V30 3 O 2.223565 -1.407128 3.137646 0
M  V30 4 N 3.133048 0.764373 2.080383 0
M  V30 5 C 3.336717 0.411236 0.743994 0
M  V30 6 C 3.064544 1.499080 -0.260662 0
M  V30 7 C 3.480839 1.124512 -1.638930 0
M  V30 8 C 4.906104 0.607158 -1.711134 0
M  V30 9 C 4.920022 -0.665014 -0.893313 0
M  V30 10 C 4.643682 -0.312561 0.526473 0
M  V30 11 C 0.306204 0.261675 2.610746 0
M  V30 12 C -0.425543 1.351314 3.091298 0
M  V30 13 C -1.762500 1.590380 2.822897 0
M  V30 14 C -2.415003 0.677769 2.018313 0
M  V30 15 C -1.746601 -0.419502 1.512638 0
M  V30 16 C -2.374671 -1.427229 0.653646 0
M  V30 17 N -1.886546 -1.971220 -0.474707 0
M  V30 18 N -2.731533 -2.844680 -0.977615 0
M  V30 19 C -3.828363 -2.914504 -0.190699 0
M  V30 20 C -4.998591 -3.655925 -0.253563 0
M  V30 21 C -5.987050 -3.524515 0.718586 0
M  V30 22 F -7.138042 -4.256001 0.653719 0
M  V30 23 C -5.738545 -2.625822 1.734966 0
M  V30 24 C -4.575430 -1.880012 1.809483 0
M  V30 25 C -3.622099 -2.025706 0.846229 0
M  V30 26 C -0.411459 -0.611621 1.811187 0
M  V30 27 H 3.162711 1.814521 2.196275 0
M  V30 28 H 2.572258 -0.379741 0.504399 0
M  V30 29 H 3.464472 2.483982 0.020680 0
M  V30 30 H 1.950382 1.634862 -0.295510 0
M  V30 31 H 3.461467 2.033582 -2.277011 0
M  V30 32 H 2.833898 0.335715 -2.087975 0
M  V30 33 H 5.110653 0.343744 -2.754061 0
M  V30 34 H 5.658380 1.321662 -1.376835 0
M  V30 35 H 5.943938 -1.070423 -0.939619 0
M  V30 36 H 4.229966 -1.385598 -1.356411 0
M  V30 37 H 4.560579 -1.278315 1.103140 0
M  V30 38 H 5.526672 0.215543 0.916912 0
M  V30 39 H 0.109363 2.058549 3.724109 0
M  V30 40 H -2.247823 2.462072 3.239139 0
M  V30 41 H -3.460333 0.811194 1.773455 0
M  V30 42 H -2.551191 -3.390656 -1.861336 0
M  V30 43 H -5.145402 -4.349261 -1.073785 0
M  V30 44 H -6.478160 -2.481372 2.524787 0
M  V30 45 H -4.453758 -1.194988 2.638671 0
M  V30 46 H 0.153991 -1.469883 1.429214 0
M  V30 END ATOM
M  V30 BEGIN BOND
M  V30 1 2 1 2
M  V30 2 2 2 3
M  V30 3 1 2 4
M  V30 4 1 4 5
M  V30 5 1 5 6
M  V30 6 1 6 7
M  V30 7 1 7 8
M  V30 8 1 8 9
M  V30 9 1 9 10
M  V30 10 1 2 11
M  V30 11 2 11 12
M  V30 12 1 12 13
M  V30 13 2 13 14
M  V30 14 1 14 15
M  V30 15 1 15 16
M  V30 16 2 16 17
M  V30 17 1 17 18
M  V30 18 1 18 19
M  V30 19 2 19 20
M  V30 20 1 20 21
M  V30 21 1 21 22
M  V30 22 2 21 23
M  V30 23 1 23 24
M  V30 24 2 24 25
M  V30 25 2 15 26
M  V30 26 1 10 5
M  V30 27 1 26 11
M  V30 28 1 25 16
M  V30 29 1 25 19
M  V30 30 1 4 27
M  V30 31 1 5 28
M  V30 32 1 6 29
M  V30 33 1 6 30
M  V30 34 1 7 31
M  V30 35 1 7 32
M  V30 36 1 8 33
M  V30 37 1 8 34
M  V30 38 1 9 35
M  V30 39 1 9 36
M  V30 40 1 10 37
M  V30 41 1 10 38
M  V30 42 1 12 39
M  V30 43 1 13 40
M  V30 44 1 14 41
M  V30 45 1 18 42
M  V30 46 1 20 43
M  V30 47 1 23 44
M  V30 48 1 24 45
M  V30 49 1 26 46
M  V30 END BOND
M  V30 END CTAB
M  END
>  <Dataset>  (531) 
ChEMBL_Kinases

>  <Ligand_Instance>  (531) 
nan

>  <PDB_ID>  (531) 
nan

>  <Standardized_SMILES>  (531) 
O=S(=O)(NC1CCCCC1)c1cccc(-c2n[nH]c3cc(F)ccc23)c1

>  <Name>  (531) 
nan

>  <Pocket>  (531) 
nan

>  <ATP_Site>  (531) 
nan

>  <Peripheral>  (531) 
nan

>  <Num_H_Atoms_ProtBoundConf>  (531) 
nan

>  <Num_Resolved_Atoms>  (531) 
nan

>  <Num_Not_Resolved_Atoms>  (531) 
nan

$$$$
CHEMBL3702105
     RDKit          3D

  0  0  0  0  0  0  0  0  0  0999 V3000
M  V30 BEGIN CTAB
M  V30 COUNTS 69 75 0 0 0
M  V30 BEGIN ATOM
M  V30 1 C 4.156338 0.486192 8.650508 0
M  V30 2 C 4.400019 -0.351338 7.587185 0
M  V30 3 C 3.567166 -0.205306 6.487963 0
M  V30 4 C 3.553510 -0.880616 5.287985 0
M  V30 5 C 4.340221 -1.899733 4.799897 0
M  V30 6 N 4.095878 -2.369094 3.591475 0
M  V30 7 C 3.125640 -1.932333 2.774936 0
M  V30 8 N 2.984486 -2.557398 1.508706 0
M  V30 9 C 2.088265 -2.259557 0.453435 0
M  V30 10 C 1.158359 -1.246189 0.419149 0
M  V30 11 C 0.271794 -0.961762 -0.595812 0
M  V30 12 C 0.318028 -1.780801 -1.702657 0
M  V30 13 N -0.546470 -1.587874 -2.812669 0
M  V30 14 C -1.419746 -0.457393 -3.012751 0
M  V30 15 C -2.825996 -0.920688 -2.706515 0
M  V30 16 C -3.220835 -1.930121 -3.740233 0
M  V30 17 N -3.840439 -1.284414 -4.909599 0
M  V30 18 C -4.225746 -2.262386 -5.876822 0
M  V30 19 C -5.452177 -1.677726 -6.538200 0
M  V30 20 C -6.147311 -1.011681 -5.378009 0
M  V30 21 C -5.024938 -0.581929 -4.493392 0
M  V30 22 C -2.166127 -2.895759 -4.127881 0
M  V30 23 C -0.755080 -2.438007 -3.932734 0
M  V30 24 C 1.241615 -2.797808 -1.685831 0
M  V30 25 N 2.078269 -3.017977 -0.658013 0
M  V30 26 N 2.346138 -0.924937 3.253414 0
M  V30 27 C 2.554985 -0.414721 4.475511 0
M  V30 28 N 1.963243 0.549404 5.196517 0
M  V30 29 C 0.863651 1.387915 4.884270 0
M  V30 30 C 1.354106 2.843958 4.835475 0
M  V30 31 C 1.793364 3.075968 3.406535 0
M  V30 32 C 0.831426 2.218315 2.617690 0
M  V30 33 C 0.196010 1.243920 3.585383 0
M  V30 34 C 2.534859 0.709810 6.405130 0
M  V30 35 N 2.393940 1.472448 7.504720 0
M  V30 36 N 3.147814 1.385533 8.577669 0
M  V30 37 H 4.787035 0.404003 9.536311 0
M  V30 38 H 5.179320 -1.090483 7.570521 0
M  V30 39 H 5.145272 -2.330136 5.362415 0
M  V30 40 H 3.633505 -3.359989 1.313394 0
M  V30 41 H 1.114773 -0.594218 1.276951 0
M  V30 42 H -0.411726 -0.143217 -0.511988 0
M  V30 43 H -1.215548 0.366076 -2.295369 0
M  V30 44 H -1.350833 0.006184 -4.014751 0
M  V30 45 H -3.547920 -0.089309 -2.677730 0
M  V30 46 H -2.817900 -1.445029 -1.720994 0
M  V30 47 H -4.098060 -2.485188 -3.282239 0
M  V30 48 H -3.479306 -2.415754 -6.681934 0
M  V30 49 H -4.564777 -3.242115 -5.435115 0
M  V30 50 H -5.132408 -0.979155 -7.336339 0
M  V30 51 H -6.065990 -2.513208 -6.953126 0
M  V30 52 H -6.738925 -0.164412 -5.784148 0
M  V30 53 H -6.802078 -1.767561 -4.873008 0
M  V30 54 H -4.866555 0.509989 -4.630928 0
M  V30 55 H -5.291700 -0.805139 -3.422156 0
M  V30 56 H -2.331201 -3.848325 -3.541268 0
M  V30 57 H -2.265270 -3.200471 -5.193800 0
M  V30 58 H -0.117904 -3.341230 -3.844009 0
M  V30 59 H -0.361225 -1.904904 -4.840740 0
M  V30 60 H 1.373792 -3.501989 -2.493576 0
M  V30 61 H 0.090825 1.378172 5.714677 0
M  V30 62 H 2.261564 2.992272 5.452337 0
M  V30 63 H 0.598792 3.550643 5.176140 0
M  V30 64 H 2.856086 2.799986 3.234244 0
M  V30 65 H 1.661724 4.164307 3.229240 0
M  V30 66 H 0.098370 2.933879 2.166493 0
M  V30 67 H 1.335306 1.739529 1.764331 0
M  V30 68 H 0.068890 0.229677 3.206242 0
M  V30 69 H -0.871354 1.615420 3.701811 0
M  V30 END ATOM
M  V30 BEGIN BOND
M  V30 1 2 1 2
M  V30 2 1 2 3
M  V30 3 1 3 4
M  V30 4 2 4 5
M  V30 5 1 5 6
M  V30 6 2 6 7
M  V30 7 1 7 8
M  V30 8 1 8 9
M  V30 9 2 9 10
M  V30 10 1 10 11
M  V30 11 2 11 12
M  V30 12 1 12 13
M  V30 13 1 13 14
M  V30 14 1 14 15
M  V30 15 1 15 16
M  V30 16 1 16 17
M  V30 17 1 17 18
M  V30 18 1 18 19
M  V30 19 1 19 20
M  V30 20 1 20 21
M  V30 21 1 16 22
M  V30 22 1 22 23
M  V30 23 1 12 24
M  V30 24 2 24 25
M  V30 25 1 7 26
M  V30 26 2 26 27
M  V30 27 1 27 28
M  V30 28 1 28 29
M  V30 29 1 29 30
M  V30 30 1 30 31
M  V30 31 1 31 32
M  V30 32 1 32 33
M  V30 33 1 28 34
M  V30 34 1 34 35
M  V30 35 2 35 36
M  V30 36 1 36 1
M  V30 37 2 34 3
M  V30 38 1 27 4
M  V30 39 1 33 29
M  V30 40 1 25 9
M  V30 41 1 23 13
M  V30 42 1 21 17
M  V30 43 1 1 37
M  V30 44 1 2 38
M  V30 45 1 5 39
M  V30 46 1 8 40
M  V30 47 1 10 41
M  V30 48 1 11 42
M  V30 49 1 14 43
M  V30 50 1 14 44
M  V30 51 1 15 45
M  V30 52 1 15 46
M  V30 53 1 16 47
M  V30 54 1 18 48
M  V30 55 1 18 49
M  V30 56 1 19 50
M  V30 57 1 19 51
M  V30 58 1 20 52
M  V30 59 1 20 53
M  V30 60 1 21 54
M  V30 61 1 21 55
M  V30 62 1 22 56
M  V30 63 1 22 57
M  V30 64 1 23 58
M  V30 65 1 23 59
M  V30 66 1 24 60
M  V30 67 1 29 61
M  V30 68 1 30 62
M  V30 69 1 30 63
M  V30 70 1 31 64
M  V30 71 1 31 65
M  V30 72 1 32 66
M  V30 73 1 32 67
M  V30 74 1 33 68
M  V30 75 1 33 69
M  V30 END BOND
M  V30 END CTAB
M  END
>  <Dataset>  (532) 
ChEMBL_Kinases

>  <Ligand_Instance>  (532) 
nan

>  <PDB_ID>  (532) 
nan

>  <Standardized_SMILES>  (532) 
c1cc2c3cnc(Nc4ccc(N5CCC(N6CCCC6)CC5)cn4)nc3n(C3CCCC3)c2nn1

>  <Name>  (532) 
nan

>  <Pocket>  (532) 
nan

>  <ATP_Site>  (532) 
nan

>  <Peripheral>  (532) 
nan

>  <Num_H_Atoms_ProtBoundConf>  (532) 
nan

>  <Num_Resolved_Atoms>  (532) 
nan

>  <Num_Not_Resolved_Atoms>  (532) 
nan

$$$$
CHEMBL4874090
     RDKit          3D

  0  0  0  0  0  0  0  0  0  0999 V3000
M  V30 BEGIN CTAB
M  V30 COUNTS 66 71 0 0 0
M  V30 BEGIN ATOM
M  V30 1 C 6.986841 1.417992 0.987052 0
M  V30 2 C 6.467631 0.578880 0.112324 0
M  V30 3 C 5.554461 -0.574466 0.149560 0
M  V30 4 N 4.372182 -0.383349 -0.634662 0
M  V30 5 C 4.132582 -0.688337 -1.937296 0
M  V30 6 O 4.965891 -1.223676 -2.708708 0
M  V30 7 C 2.837314 -0.315407 -2.262723 0
M  V30 8 C 2.110117 -0.400058 -3.409590 0
M  V30 9 N 0.845760 0.071216 -3.361211 0
M  V30 10 C 0.308674 0.603271 -2.245945 0
M  V30 11 N -1.026038 0.986782 -2.534170 0
M  V30 12 C -2.089230 0.262143 -1.925293 0
M  V30 13 C -1.835924 -0.610552 -0.887555 0
M  V30 14 C -2.795655 -1.360698 -0.240171 0
M  V30 15 C -4.094648 -1.207600 -0.684437 0
M  V30 16 N -5.126877 -1.945928 -0.048171 0
M  V30 17 C -6.462743 -2.236240 -0.575474 0
M  V30 18 C -6.653100 -3.734912 -0.478699 0
M  V30 19 N -5.421943 -4.350339 -0.173163 0
M  V30 20 C -5.016524 -5.484606 -0.895068 0
M  V30 21 C -4.775764 -4.024633 1.035593 0
M  V30 22 C -5.023336 -2.538687 1.275266 0
M  V30 23 C -4.385271 -0.345347 -1.719101 0
M  V30 24 C -3.401003 0.412012 -2.368339 0
M  V30 25 N 1.048870 0.678871 -1.112161 0
M  V30 26 C 2.328080 0.219740 -1.100669 0
M  V30 27 N 3.274693 0.159900 -0.154028 0
M  V30 28 C 3.060286 0.622727 1.169427 0
M  V30 29 C 2.707899 -0.469170 1.971753 0
M  V30 30 C 2.438112 -0.300522 3.336379 0
M  V30 31 C 2.541889 0.989146 3.825218 0
M  V30 32 C 2.889437 2.056525 3.029123 0
M  V30 33 N 3.142288 1.840944 1.705616 0
M  V30 34 C 2.925813 3.319895 3.809489 0
M  V30 35 F 3.936454 4.157671 3.387641 0
M  V30 36 F 1.706302 3.934221 3.682514 0
M  V30 37 C 3.107796 2.813092 5.207386 0
M  V30 38 C 2.331439 1.510987 5.183062 0
M  V30 39 H 7.553404 2.224429 1.411551 0
M  V30 40 H 6.760393 1.343662 2.046768 0
M  V30 41 H 6.883069 0.920606 -0.827330 0
M  V30 42 H 6.103394 -1.449099 -0.254781 0
M  V30 43 H 5.289339 -0.841962 1.213911 0
M  V30 44 H 2.604513 -0.836952 -4.262418 0
M  V30 45 H -1.243717 1.778562 -3.173256 0
M  V30 46 H -0.807804 -0.724258 -0.545670 0
M  V30 47 H -2.489973 -2.016047 0.563837 0
M  V30 48 H -6.546260 -1.884503 -1.629452 0
M  V30 49 H -7.202774 -1.758409 0.081896 0
M  V30 50 H -7.054588 -4.156680 -1.427048 0
M  V30 51 H -7.390695 -3.973375 0.343581 0
M  V30 52 H -5.895197 -5.966775 -1.370020 0
M  V30 53 H -4.393901 -6.208853 -0.332841 0
M  V30 54 H -4.370670 -5.123321 -1.750270 0
M  V30 55 H -3.659981 -4.103814 0.849184 0
M  V30 56 H -4.969494 -4.652207 1.908836 0
M  V30 57 H -4.134217 -2.111142 1.755012 0
M  V30 58 H -5.925885 -2.352994 1.897148 0
M  V30 59 H -5.408751 -0.217262 -2.076717 0
M  V30 60 H -3.644620 1.078850 -3.169440 0
M  V30 61 H 2.602434 -1.523042 1.670154 0
M  V30 62 H 2.161008 -1.105777 4.000129 0
M  V30 63 H 2.724203 3.514745 5.960210 0
M  V30 64 H 4.194012 2.586089 5.367390 0
M  V30 65 H 2.669900 0.810167 5.975596 0
M  V30 66 H 1.236884 1.733572 5.280511 0
M  V30 END ATOM
M  V30 BEGIN BOND
M  V30 1 2 1 2
M  V30 2 1 2 3
M  V30 3 1 3 4
M  V30 4 1 4 5
M  V30 5 2 5 6
M  V30 6 1 5 7
M  V30 7 2 7 8
M  V30 8 1 8 9
M  V30 9 2 9 10
M  V30 10 1 10 11
M  V30 11 1 11 12
M  V30 12 2 12 13
M  V30 13 1 13 14
M  V30 14 2 14 15
M  V30 15 1 15 16
M  V30 16 1 16 17
M  V30 17 1 17 18
M  V30 18 1 18 19
M  V30 19 1 19 20
M  V30 20 1 19 21
M  V30 21 1 21 22
M  V30 22 1 15 23
M  V30 23 2 23 24
M  V30 24 1 10 25
M  V30 25 2 25 26
M  V30 26 1 26 27
M  V30 27 1 27 28
M  V30 28 2 28 29
M  V30 29 1 29 30
M  V30 30 2 30 31
M  V30 31 1 31 32
M  V30 32 2 32 33
M  V30 33 1 32 34
M  V30 34 1 34 35
M  V30 35 1 34 36
M  V30 36 1 34 37
M  V30 37 1 37 38
M  V30 38 1 27 4
M  V30 39 1 33 28
M  V30 40 1 26 7
M  V30 41 1 38 31
M  V30 42 1 24 12
M  V30 43 1 22 16
M  V30 44 1 1 39
M  V30 45 1 1 40
M  V30 46 1 2 41
M  V30 47 1 3 42
M  V30 48 1 3 43
M  V30 49 1 8 44
M  V30 50 1 11 45
M  V30 51 1 13 46
M  V30 52 1 14 47
M  V30 53 1 17 48
M  V30 54 1 17 49
M  V30 55 1 18 50
M  V30 56 1 18 51
M  V30 57 1 20 52
M  V30 58 1 20 53
M  V30 59 1 20 54
M  V30 60 1 21 55
M  V30 61 1 21 56
M  V30 62 1 22 57
M  V30 63 1 22 58
M  V30 64 1 23 59
M  V30 65 1 24 60
M  V30 66 1 29 61
M  V30 67 1 30 62
M  V30 68 1 37 63
M  V30 69 1 37 64
M  V30 70 1 38 65
M  V30 71 1 38 66
M  V30 END BOND
M  V30 END CTAB
M  END
>  <Dataset>  (533) 
ChEMBL_Kinases

>  <Ligand_Instance>  (533) 
nan

>  <PDB_ID>  (533) 
nan

>  <Standardized_SMILES>  (533) 
C=CCn1c(=O)c2cnc(Nc3ccc(N4CCN(C)CC4)cc3)nc2n1-c1ccc2c(n1)C(F)(F)CC2

>  <Name>  (533) 
nan

>  <Pocket>  (533) 
nan

>  <ATP_Site>  (533) 
nan

>  <Peripheral>  (533) 
nan

>  <Num_H_Atoms_ProtBoundConf>  (533) 
nan

>  <Num_Resolved_Atoms>  (533) 
nan

>  <Num_Not_Resolved_Atoms>  (533) 
nan

$$$$
CHEMBL4874174
     RDKit          3D

  0  0  0  0  0  0  0  0  0  0999 V3000
M  V30 BEGIN CTAB
M  V30 COUNTS 54 57 0 0 0
M  V30 BEGIN ATOM
M  V30 1 C 8.839394 -3.689105 -0.363177 0
M  V30 2 N 7.767948 -3.110805 -1.151926 0
M  V30 3 C 6.893205 -2.041887 -0.810156 0
M  V30 4 O 7.030701 -1.495866 0.315557 0
M  V30 5 C 5.875161 -1.628451 -1.784356 0
M  V30 6 C 5.045631 -0.587568 -1.415383 0
M  V30 7 C 4.076502 -0.176620 -2.314172 0
M  V30 8 O 3.236021 0.882597 -1.932739 0
M  V30 9 C 2.048419 0.559187 -1.265344 0
M  V30 10 C 1.994501 0.464966 0.111006 0
M  V30 11 C 0.795841 0.142409 0.719319 0
M  V30 12 C -0.373250 -0.094075 -0.009426 0
M  V30 13 N -1.600069 -0.425196 0.630598 0
M  V30 14 C -2.468037 0.623818 1.003942 0
M  V30 15 O -1.817715 1.651289 0.591277 0
M  V30 16 C -3.741834 0.817296 1.642333 0
M  V30 17 N -4.372885 1.948181 1.207942 0
M  V30 18 C -5.569620 2.043709 1.831410 0
M  V30 19 S -6.828974 3.317095 1.654541 0
M  V30 20 C -7.934494 2.773772 0.317925 0
M  V30 21 N -5.681298 0.984555 2.646959 0
M  V30 22 C -4.576946 0.233303 2.543916 0
M  V30 23 C -4.286632 -0.995060 3.231614 0
M  V30 24 C -5.419259 -1.594361 3.781578 0
M  V30 25 C -5.329278 -2.752785 4.514799 0
M  V30 26 C -4.137214 -3.394954 4.756467 0
M  V30 27 F -4.007294 -4.535923 5.471842 0
M  V30 28 C -3.013125 -2.811425 4.219317 0
M  V30 29 C -3.140553 -1.659546 3.496304 0
M  V30 30 C -0.269385 0.012654 -1.395373 0
M  V30 31 C 0.914887 0.333179 -2.027453 0
M  V30 32 C 3.922730 -0.777802 -3.557512 0
M  V30 33 C 4.792383 -1.825413 -3.872289 0
M  V30 34 N 5.746187 -2.235715 -2.997372 0
M  V30 35 H 9.141704 -3.003015 0.477108 0
M  V30 36 H 9.732464 -3.793798 -0.984009 0
M  V30 37 H 8.458193 -4.653658 0.031149 0
M  V30 38 H 7.666798 -3.582711 -2.095952 0
M  V30 39 H 5.138124 -0.090524 -0.443831 0
M  V30 40 H 2.895185 0.646093 0.690197 0
M  V30 41 H 0.707505 0.057757 1.794362 0
M  V30 42 H -2.036659 -1.366860 0.880744 0
M  V30 43 H -8.775710 3.484188 0.164241 0
M  V30 44 H -8.270200 1.748511 0.563996 0
M  V30 45 H -7.398998 2.704278 -0.655819 0
M  V30 46 H -6.526625 0.798971 3.265543 0
M  V30 47 H -6.439275 -1.195185 3.671381 0
M  V30 48 H -6.217580 -3.204244 4.931849 0
M  V30 49 H -2.063403 -3.264168 4.374162 0
M  V30 50 H -2.249255 -1.222991 3.133394 0
M  V30 51 H -1.157846 -0.165078 -1.982781 0
M  V30 52 H 0.991456 0.415118 -3.104198 0
M  V30 53 H 3.160296 -0.452952 -4.262059 0
M  V30 54 H 4.723138 -2.338642 -4.832746 0
M  V30 END ATOM
M  V30 BEGIN BOND
M  V30 1 1 1 2
M  V30 2 1 2 3
M  V30 3 2 3 4
M  V30 4 1 3 5
M  V30 5 2 5 6
M  V30 6 1 6 7
M  V30 7 1 7 8
M  V30 8 1 8 9
M  V30 9 2 9 10
M  V30 10 1 10 11
M  V30 11 2 11 12
M  V30 12 1 12 13
M  V30 13 1 13 14
M  V30 14 2 14 15
M  V30 15 1 14 16
M  V30 16 1 16 17
M  V30 17 2 17 18
M  V30 18 1 18 19
M  V30 19 1 19 20
M  V30 20 1 18 21
M  V30 21 1 21 22
M  V30 22 1 22 23
M  V30 23 2 23 24
M  V30 24 1 24 25
M  V30 25 2 25 26
M  V30 26 1 26 27
M  V30 27 1 26 28
M  V30 28 2 28 29
M  V30 29 1 12 30
M  V30 30 2 30 31
M  V30 31 2 7 32
M  V30 32 1 32 33
M  V30 33 2 33 34
M  V30 34 1 34 5
M  V30 35 1 31 9
M  V30 36 2 22 16
M  V30 37 1 29 23
M  V30 38 1 1 35
M  V30 39 1 1 36
M  V30 40 1 1 37
M  V30 41 1 2 38
M  V30 42 1 6 39
M  V30 43 1 10 40
M  V30 44 1 11 41
M  V30 45 1 13 42
M  V30 46 1 20 43
M  V30 47 1 20 44
M  V30 48 1 20 45
M  V30 49 1 21 46
M  V30 50 1 24 47
M  V30 51 1 25 48
M  V30 52 1 28 49
M  V30 53 1 29 50
M  V30 54 1 30 51
M  V30 55 1 31 52
M  V30 56 1 32 53
M  V30 57 1 33 54
M  V30 END BOND
M  V30 END CTAB
M  END
>  <Dataset>  (534) 
ChEMBL_Kinases

>  <Ligand_Instance>  (534) 
nan

>  <PDB_ID>  (534) 
nan

>  <Standardized_SMILES>  (534) 
CNC(=O)c1cc(Oc2ccc(NC(=O)c3nc(SC)[nH]c3-c3ccc(F)cc3)cc2)ccn1

>  <Name>  (534) 
nan

>  <Pocket>  (534) 
nan

>  <ATP_Site>  (534) 
nan

>  <Peripheral>  (534) 
nan

>  <Num_H_Atoms_ProtBoundConf>  (534) 
nan

>  <Num_Resolved_Atoms>  (534) 
nan

>  <Num_Not_Resolved_Atoms>  (534) 
nan

$$$$
CHEMBL75680
     RDKit          3D

  0  0  0  0  0  0  0  0  0  0999 V3000
M  V30 BEGIN CTAB
M  V30 COUNTS 37 39 0 0 0
M  V30 BEGIN ATOM
M  V30 1 C -1.941715 -0.476070 3.658094 0
M  V30 2 C -1.341666 -1.847865 3.442568 0
M  V30 3 C -0.600741 -1.979384 2.136682 0
M  V30 4 C 0.524915 -0.978768 2.111773 0
M  V30 5 C 1.338459 -0.982808 0.899365 0
M  V30 6 C 1.036657 -0.446350 -0.319332 0
M  V30 7 C -0.092474 0.279252 -0.836618 0
M  V30 8 C -0.075452 0.681053 -2.154514 0
M  V30 9 C -1.097410 1.381431 -2.749860 0
M  V30 10 C -2.230698 1.735915 -2.054731 0
M  V30 11 O -3.249536 2.441448 -2.672145 0
M  V30 12 C -2.287781 1.353232 -0.733347 0
M  V30 13 C -1.233686 0.655895 -0.199406 0
M  V30 14 N 2.097956 -0.723460 -1.093213 0
M  V30 15 C 3.043824 -1.401349 -0.426748 0
M  V30 16 N 4.256356 -1.908024 -0.711236 0
M  V30 17 C 4.969776 -2.556868 0.224058 0
M  V30 18 C 4.536375 -2.754749 1.517523 0
M  V30 19 N 3.323803 -2.241995 1.783469 0
M  V30 20 C 2.592680 -1.587523 0.857833 0
M  V30 21 H -1.188014 0.279996 3.930961 0
M  V30 22 H -2.578587 -0.162540 2.824548 0
M  V30 23 H -2.625940 -0.546463 4.553778 0
M  V30 24 H -0.757180 -2.176083 4.314871 0
M  V30 25 H -2.203576 -2.571048 3.380225 0
M  V30 26 H -1.312706 -1.883874 1.318699 0
M  V30 27 H -0.119558 -2.990784 2.171987 0
M  V30 28 H 0.126753 0.008978 2.401986 0
M  V30 29 H 1.168466 -1.242355 3.022878 0
M  V30 30 H 0.746382 0.485212 -2.855386 0
M  V30 31 H -1.062524 1.684043 -3.777154 0
M  V30 32 H -3.008451 3.214751 -3.257248 0
M  V30 33 H -3.164755 1.617798 -0.164443 0
M  V30 34 H -1.389882 0.416683 0.829335 0
M  V30 35 H 2.319739 -0.509019 -2.110922 0
M  V30 36 H 5.948421 -2.947831 -0.062838 0
M  V30 37 H 5.129417 -3.276901 2.241479 0
M  V30 END ATOM
M  V30 BEGIN BOND
M  V30 1 1 1 2
M  V30 2 1 2 3
M  V30 3 1 3 4
M  V30 4 1 4 5
M  V30 5 2 5 6
M  V30 6 1 6 7
M  V30 7 2 7 8
M  V30 8 1 8 9
M  V30 9 2 9 10
M  V30 10 1 10 11
M  V30 11 1 10 12
M  V30 12 2 12 13
M  V30 13 1 6 14
M  V30 14 1 14 15
M  V30 15 2 15 16
M  V30 16 1 16 17
M  V30 17 2 17 18
M  V30 18 1 18 19
M  V30 19 2 19 20
M  V30 20 1 20 5
M  V30 21 1 13 7
M  V30 22 1 20 15
M  V30 23 1 1 21
M  V30 24 1 1 22
M  V30 25 1 1 23
M  V30 26 1 2 24
M  V30 27 1 2 25
M  V30 28 1 3 26
M  V30 29 1 3 27
M  V30 30 1 4 28
M  V30 31 1 4 29
M  V30 32 1 8 30
M  V30 33 1 9 31
M  V30 34 1 11 32
M  V30 35 1 12 33
M  V30 36 1 13 34
M  V30 37 1 14 35
M  V30 38 1 17 36
M  V30 39 1 18 37
M  V30 END BOND
M  V30 END CTAB
M  END
>  <Dataset>  (535) 
ChEMBL_Kinases

>  <Ligand_Instance>  (535) 
nan

>  <PDB_ID>  (535) 
nan

>  <Standardized_SMILES>  (535) 
CCCCc1c(-c2ccc(O)cc2)[nH]c2nccnc12

>  <Name>  (535) 
ALOISINE A

>  <Pocket>  (535) 
nan

>  <ATP_Site>  (535) 
nan

>  <Peripheral>  (535) 
nan

>  <Num_H_Atoms_ProtBoundConf>  (535) 
nan

>  <Num_Resolved_Atoms>  (535) 
nan

>  <Num_Not_Resolved_Atoms>  (535) 
nan

$$$$
CHEMBL4874247
     RDKit          3D

  0  0  0  0  0  0  0  0  0  0999 V3000
M  V30 BEGIN CTAB
M  V30 COUNTS 42 45 0 0 0
M  V30 BEGIN ATOM
M  V30 1 C 1.440117 -7.348100 1.543768 0
M  V30 2 C 1.441475 -5.960971 0.986533 0
M  V30 3 O 0.389701 -5.267182 1.128374 0
M  V30 4 N 2.504479 -5.303386 0.297901 0
M  V30 5 C 2.058913 -3.995198 -0.049021 0
M  V30 6 C 2.219329 -2.880680 0.770907 0
M  V30 7 C 1.757093 -1.653156 0.354119 0
M  V30 8 C 1.139935 -1.564725 -0.882035 0
M  V30 9 C 0.672621 -0.222449 -1.258419 0
M  V30 10 C 0.626816 0.208166 -2.568416 0
M  V30 11 N 0.196462 1.440321 -2.901497 0
M  V30 12 C -0.203767 2.286498 -1.935479 0
M  V30 13 N -0.677907 3.560261 -1.946697 0
M  V30 14 N -0.939430 3.969518 -0.704476 0
M  V30 15 C -0.651718 2.988500 0.188279 0
M  V30 16 C -0.797717 3.038087 1.639820 0
M  V30 17 C 0.221515 2.562580 2.439834 0
M  V30 18 C 0.153446 2.576790 3.834056 0
M  V30 19 C -0.977375 3.086288 4.440486 0
M  V30 20 O -1.091951 3.121750 5.842095 0
M  V30 21 C -2.030102 3.576898 3.658901 0
M  V30 22 C -1.913446 3.540313 2.279519 0
M  V30 23 C -0.194216 1.944902 -0.590222 0
M  V30 24 C 0.251099 0.681295 -0.294209 0
M  V30 25 C 0.980693 -2.668788 -1.694915 0
M  V30 26 C 1.445409 -3.897560 -1.273522 0
M  V30 27 H 2.436208 -7.720612 1.793255 0
M  V30 28 H 0.935498 -8.053423 0.863773 0
M  V30 29 H 0.862578 -7.292070 2.501174 0
M  V30 30 H 3.378772 -5.899294 0.187694 0
M  V30 31 H 2.719342 -3.088853 1.712504 0
M  V30 32 H 1.917509 -0.835753 1.043774 0
M  V30 33 H 0.949486 -0.468296 -3.370109 0
M  V30 34 H -0.814862 4.133347 -2.822847 0
M  V30 35 H 1.141872 2.146750 2.066547 0
M  V30 36 H 0.943804 2.207896 4.474809 0
M  V30 37 H -1.033619 2.251609 6.387019 0
M  V30 38 H -2.930577 3.982783 4.124104 0
M  V30 39 H -2.724005 3.918465 1.640534 0
M  V30 40 H 0.285199 0.348360 0.731623 0
M  V30 41 H 0.488559 -2.515026 -2.644399 0
M  V30 42 H 1.287656 -4.728400 -1.963422 0
M  V30 END ATOM
M  V30 BEGIN BOND
M  V30 1 1 1 2
M  V30 2 2 2 3
M  V30 3 1 2 4
M  V30 4 1 4 5
M  V30 5 2 5 6
M  V30 6 1 6 7
M  V30 7 2 7 8
M  V30 8 1 8 9
M  V30 9 2 9 10
M  V30 10 1 10 11
M  V30 11 2 11 12
M  V30 12 1 12 13
M  V30 13 1 13 14
M  V30 14 2 14 15
M  V30 15 1 15 16
M  V30 16 2 16 17
M  V30 17 1 17 18
M  V30 18 2 18 19
M  V30 19 1 19 20
M  V30 20 1 19 21
M  V30 21 2 21 22
M  V30 22 1 15 23
M  V30 23 2 23 24
M  V30 24 1 8 25
M  V30 25 2 25 26
M  V30 26 1 26 5
M  V30 27 1 24 9
M  V30 28 1 23 12
M  V30 29 1 22 16
M  V30 30 1 1 27
M  V30 31 1 1 28
M  V30 32 1 1 29
M  V30 33 1 4 30
M  V30 34 1 6 31
M  V30 35 1 7 32
M  V30 36 1 10 33
M  V30 37 1 13 34
M  V30 38 1 17 35
M  V30 39 1 18 36
M  V30 40 1 20 37
M  V30 41 1 21 38
M  V30 42 1 22 39
M  V30 43 1 24 40
M  V30 44 1 25 41
M  V30 45 1 26 42
M  V30 END BOND
M  V30 END CTAB
M  END
>  <Dataset>  (536) 
ChEMBL_Kinases

>  <Ligand_Instance>  (536) 
nan

>  <PDB_ID>  (536) 
nan

>  <Standardized_SMILES>  (536) 
CC(=O)Nc1ccc(-c2cnc3[nH]nc(-c4ccc(O)cc4)c3c2)cc1

>  <Name>  (536) 
nan

>  <Pocket>  (536) 
nan

>  <ATP_Site>  (536) 
nan

>  <Peripheral>  (536) 
nan

>  <Num_H_Atoms_ProtBoundConf>  (536) 
nan

>  <Num_Resolved_Atoms>  (536) 
nan

>  <Num_Not_Resolved_Atoms>  (536) 
nan

$$$$
CHEMBL4874250
     RDKit          3D

  0  0  0  0  0  0  0  0  0  0999 V3000
M  V30 BEGIN CTAB
M  V30 COUNTS 60 64 0 0 0
M  V30 BEGIN ATOM
M  V30 1 C 7.253058 -0.546140 4.041707 0
M  V30 2 O 6.879191 -1.164387 2.841468 0
M  V30 3 C 5.718131 -0.845481 2.143507 0
M  V30 4 C 4.849672 0.122790 2.608841 0
M  V30 5 C 3.719765 0.397317 1.881172 0
M  V30 6 O 2.767118 1.349342 2.242578 0
M  V30 7 C 3.024808 2.053196 3.445571 0
M  V30 8 C 3.451171 -0.283377 0.698893 0
M  V30 9 C 2.240839 -0.000048 -0.095284 0
M  V30 10 C 1.116733 -0.769027 0.238408 0
M  V30 11 C -0.065849 -0.578516 -0.447825 0
M  V30 12 C -0.168184 0.354498 -1.458010 0
M  V30 13 C -1.382189 0.483128 -2.099279 0
M  V30 14 N -2.551448 -0.264549 -1.809461 0
M  V30 15 C -3.373911 -0.395945 -0.661393 0
M  V30 16 C -3.203131 0.373086 0.461507 0
M  V30 17 C -4.027182 0.206366 1.550255 0
M  V30 18 N -4.974342 -0.718535 1.455438 0
M  V30 19 C -5.176596 -1.499033 0.364759 0
M  V30 20 C -6.257206 -2.475229 0.401579 0
M  V30 21 C -6.580445 -3.333010 -0.626699 0
M  V30 22 C -7.602526 -4.247013 -0.574865 0
M  V30 23 F -7.909741 -5.076715 -1.578900 0
M  V30 24 C -8.360231 -4.329278 0.557158 0
M  V30 25 C -8.094476 -3.505822 1.619810 0
M  V30 26 C -7.054368 -2.604941 1.513306 0
M  V30 27 F -6.831271 -1.813329 2.589876 0
M  V30 28 C -4.361926 -1.347697 -0.736430 0
M  V30 29 C -1.356990 1.455630 -3.106624 0
M  V30 30 C -0.261285 2.219377 -3.447875 0
M  V30 31 N 0.869998 2.007240 -2.752790 0
M  V30 32 C 0.946977 1.101156 -1.772703 0
M  V30 33 C 2.141648 0.928960 -1.100537 0
M  V30 34 C 4.312178 -1.267246 0.205197 0
M  V30 35 O 4.027622 -1.936699 -0.977437 0
M  V30 36 C 4.965894 -2.919252 -1.394319 0
M  V30 37 C 5.454529 -1.522820 0.970612 0
M  V30 38 H 6.374266 -0.327922 4.701300 0
M  V30 39 H 7.874536 -1.290744 4.606959 0
M  V30 40 H 7.879095 0.353877 3.919486 0
M  V30 41 H 5.030798 0.664889 3.518567 0
M  V30 42 H 2.307110 2.860695 3.629039 0
M  V30 43 H 4.033527 2.512573 3.355222 0
M  V30 44 H 3.103405 1.350654 4.313853 0
M  V30 45 H 1.164146 -1.520560 1.037903 0
M  V30 46 H -0.887587 -1.186894 -0.164626 0
M  V30 47 H -2.723224 -0.766932 -2.704722 0
M  V30 48 H -2.404173 1.092466 0.429789 0
M  V30 49 H -3.884185 0.815170 2.426039 0
M  V30 50 H -6.002957 -3.297254 -1.539054 0
M  V30 51 H -9.178623 -5.030568 0.654679 0
M  V30 52 H -8.682979 -3.562150 2.513008 0
M  V30 53 H -4.493066 -1.949345 -1.619017 0
M  V30 54 H -2.280109 1.623264 -3.668113 0
M  V30 55 H -0.353203 2.936776 -4.237211 0
M  V30 56 H 3.039270 1.492394 -1.314731 0
M  V30 57 H 5.938107 -2.382175 -1.541390 0
M  V30 58 H 4.684324 -3.435036 -2.312452 0
M  V30 59 H 5.119914 -3.629017 -0.559701 0
M  V30 60 H 6.152246 -2.277124 0.628834 0
M  V30 END ATOM
M  V30 BEGIN BOND
M  V30 1 1 1 2
M  V30 2 1 2 3
M  V30 3 2 3 4
M  V30 4 1 4 5
M  V30 5 1 5 6
M  V30 6 1 6 7
M  V30 7 2 5 8
M  V30 8 1 8 9
M  V30 9 2 9 10
M  V30 10 1 10 11
M  V30 11 2 11 12
M  V30 12 1 12 13
M  V30 13 1 13 14
M  V30 14 1 14 15
M  V30 15 2 15 16
M  V30 16 1 16 17
M  V30 17 2 17 18
M  V30 18 1 18 19
M  V30 19 1 19 20
M  V30 20 2 20 21
M  V30 21 1 21 22
M  V30 22 1 22 23
M  V30 23 2 22 24
M  V30 24 1 24 25
M  V30 25 2 25 26
M  V30 26 1 26 27
M  V30 27 2 19 28
M  V30 28 2 13 29
M  V30 29 1 29 30
M  V30 30 2 30 31
M  V30 31 1 31 32
M  V30 32 2 32 33
M  V30 33 1 8 34
M  V30 34 1 34 35
M  V30 35 1 35 36
M  V30 36 2 34 37
M  V30 37 1 37 3
M  V30 38 1 33 9
M  V30 39 1 32 12
M  V30 40 1 28 15
M  V30 41 1 26 20
M  V30 42 1 1 38
M  V30 43 1 1 39
M  V30 44 1 1 40
M  V30 45 1 4 41
M  V30 46 1 7 42
M  V30 47 1 7 43
M  V30 48 1 7 44
M  V30 49 1 10 45
M  V30 50 1 11 46
M  V30 51 1 14 47
M  V30 52 1 16 48
M  V30 53 1 17 49
M  V30 54 1 21 50
M  V30 55 1 24 51
M  V30 56 1 25 52
M  V30 57 1 28 53
M  V30 58 1 29 54
M  V30 59 1 30 55
M  V30 60 1 33 56
M  V30 61 1 36 57
M  V30 62 1 36 58
M  V30 63 1 36 59
M  V30 64 1 37 60
M  V30 END BOND
M  V30 END CTAB
M  END
>  <Dataset>  (537) 
ChEMBL_Kinases

>  <Ligand_Instance>  (537) 
nan

>  <PDB_ID>  (537) 
nan

>  <Standardized_SMILES>  (537) 
COc1cc(OC)c(-c2ccc3c(Nc4ccnc(-c5cc(F)ccc5F)c4)ccnc3c2)c(OC)c1

>  <Name>  (537) 
nan

>  <Pocket>  (537) 
nan

>  <ATP_Site>  (537) 
nan

>  <Peripheral>  (537) 
nan

>  <Num_H_Atoms_ProtBoundConf>  (537) 
nan

>  <Num_Resolved_Atoms>  (537) 
nan

>  <Num_Not_Resolved_Atoms>  (537) 
nan

$$$$
CHEMBL3702107
     RDKit          3D

  0  0  0  0  0  0  0  0  0  0999 V3000
M  V30 BEGIN CTAB
M  V30 COUNTS 75 80 0 0 0
M  V30 BEGIN ATOM
M  V30 1 C 4.410847 -1.500411 5.172345 0
M  V30 2 N 4.490058 -2.449185 4.091841 0
M  V30 3 C 3.522219 -3.493747 4.278162 0
M  V30 4 C 4.422793 -1.827620 2.798838 0
M  V30 5 C 4.503631 -2.824422 1.666326 0
M  V30 6 C 4.540290 -2.026287 0.381663 0
M  V30 7 N 4.401804 -0.603508 0.598388 0
M  V30 8 C 3.348753 0.234077 0.165819 0
M  V30 9 C 2.251274 -0.303919 -0.470759 0
M  V30 10 C 1.283439 0.595012 -0.858468 0
M  V30 11 C 1.325321 1.957851 -0.664192 0
M  V30 12 N 0.331093 2.890892 -1.043347 0
M  V30 13 C -0.990217 2.618327 -1.482370 0
M  V30 14 N -1.712183 3.705637 -1.893005 0
M  V30 15 C -2.976777 3.634605 -2.322182 0
M  V30 16 C -3.600449 2.427403 -2.361631 0
M  V30 17 C -4.873235 2.065485 -2.747730 0
M  V30 18 C -5.947963 2.782936 -3.227360 0
M  V30 19 C -7.120375 2.124670 -3.535769 0
M  V30 20 N -7.153335 0.792874 -3.348841 0
M  V30 21 C -6.114448 0.099855 -2.885160 0
M  V30 22 C -4.901294 0.688166 -2.552025 0
M  V30 23 N -3.690627 0.276014 -2.071873 0
M  V30 24 C -3.530424 -1.108268 -1.795917 0
M  V30 25 C -4.204744 -1.537879 -0.505975 0
M  V30 26 C -3.643247 -2.867929 -0.018334 0
M  V30 27 C -2.260681 -2.677547 0.503042 0
M  V30 28 C -2.234412 -2.406770 1.992308 0
M  V30 29 C -1.475374 -3.943495 0.259456 0
M  V30 30 C -1.585466 -1.540383 -0.242399 0
M  V30 31 C -2.077236 -1.481082 -1.656007 0
M  V30 32 C -2.855019 1.346414 -1.943537 0
M  V30 33 N -1.589855 1.416107 -1.514372 0
M  V30 34 C 2.474826 2.360311 -0.017956 0
M  V30 35 N 3.459817 1.550912 0.389986 0
M  V30 36 C 5.527241 -0.093956 1.357718 0
M  V30 37 C 5.608341 -0.895326 2.643745 0
M  V30 38 H 3.943540 -0.573926 4.781750 0
M  V30 39 H 3.763526 -1.849910 6.004264 0
M  V30 40 H 5.426809 -1.235495 5.513690 0
M  V30 41 H 3.870540 -4.501843 3.968375 0
M  V30 42 H 3.290708 -3.562167 5.365447 0
M  V30 43 H 2.534833 -3.233277 3.806336 0
M  V30 44 H 3.450103 -1.314657 2.713931 0
M  V30 45 H 3.659339 -3.527938 1.621193 0
M  V30 46 H 5.433357 -3.428296 1.709695 0
M  V30 47 H 5.530404 -2.152602 -0.144340 0
M  V30 48 H 3.806569 -2.437424 -0.345692 0
M  V30 49 H 2.120859 -1.351504 -0.670513 0
M  V30 50 H 0.424274 0.198315 -1.362037 0
M  V30 51 H 0.640979 3.881094 -0.980191 0
M  V30 52 H -3.490938 4.540515 -2.634202 0
M  V30 53 H -5.854374 3.857196 -3.355271 0
M  V30 54 H -7.944169 2.722284 -3.910452 0
M  V30 55 H -6.222349 -0.949030 -2.768505 0
M  V30 56 H -3.912884 -1.699890 -2.659037 0
M  V30 57 H -5.272885 -1.715052 -0.721896 0
M  V30 58 H -4.069703 -0.819942 0.302384 0
M  V30 59 H -3.668672 -3.657718 -0.785372 0
M  V30 60 H -4.326914 -3.215777 0.806184 0
M  V30 61 H -3.205039 -2.593234 2.488049 0
M  V30 62 H -1.433425 -2.988194 2.522017 0
M  V30 63 H -1.960851 -1.335665 2.136453 0
M  V30 64 H -0.395739 -3.676965 0.290819 0
M  V30 65 H -1.620382 -4.671664 1.089116 0
M  V30 66 H -1.788584 -4.462342 -0.662792 0
M  V30 67 H -1.735074 -0.649910 0.361991 0
M  V30 68 H -0.485667 -1.726932 -0.305199 0
M  V30 69 H -1.922041 -2.530930 -2.058815 0
M  V30 70 H -1.462524 -0.857930 -2.319390 0
M  V30 71 H 2.624880 3.428270 0.194757 0
M  V30 72 H 5.392085 0.999554 1.579703 0
M  V30 73 H 6.423432 -0.211424 0.714642 0
M  V30 74 H 5.728640 -0.225211 3.517991 0
M  V30 75 H 6.499069 -1.537309 2.555336 0
M  V30 END ATOM
M  V30 BEGIN BOND
M  V30 1 1 1 2
M  V30 2 1 2 3
M  V30 3 1 2 4
M  V30 4 1 4 5
M  V30 5 1 5 6
M  V30 6 1 6 7
M  V30 7 1 7 8
M  V30 8 2 8 9
M  V30 9 1 9 10
M  V30 10 2 10 11
M  V30 11 1 11 12
M  V30 12 1 12 13
M  V30 13 2 13 14
M  V30 14 1 14 15
M  V30 15 2 15 16
M  V30 16 1 16 17
M  V30 17 2 17 18
M  V30 18 1 18 19
M  V30 19 2 19 20
M  V30 20 1 20 21
M  V30 21 2 21 22
M  V30 22 1 22 23
M  V30 23 1 23 24
M  V30 24 1 24 25
M  V30 25 1 25 26
M  V30 26 1 26 27
M  V30 27 1 27 28
M  V30 28 1 27 29
M  V30 29 1 27 30
M  V30 30 1 30 31
M  V30 31 1 23 32
M  V30 32 2 32 33
M  V30 33 1 11 34
M  V30 34 2 34 35
M  V30 35 1 7 36
M  V30 36 1 36 37
M  V30 37 1 37 4
M  V30 38 1 35 8
M  V30 39 1 33 13
M  V30 40 1 32 16
M  V30 41 1 22 17
M  V30 42 1 31 24
M  V30 43 1 1 38
M  V30 44 1 1 39
M  V30 45 1 1 40
M  V30 46 1 3 41
M  V30 47 1 3 42
M  V30 48 1 3 43
M  V30 49 1 4 44
M  V30 50 1 5 45
M  V30 51 1 5 46
M  V30 52 1 6 47
M  V30 53 1 6 48
M  V30 54 1 9 49
M  V30 55 1 10 50
M  V30 56 1 12 51
M  V30 57 1 15 52
M  V30 58 1 18 53
M  V30 59 1 19 54
M  V30 60 1 21 55
M  V30 61 1 24 56
M  V30 62 1 25 57
M  V30 63 1 25 58
M  V30 64 1 26 59
M  V30 65 1 26 60
M  V30 66 1 28 61
M  V30 67 1 28 62
M  V30 68 1 28 63
M  V30 69 1 29 64
M  V30 70 1 29 65
M  V30 71 1 29 66
M  V30 72 1 30 67
M  V30 73 1 30 68
M  V30 74 1 31 69
M  V30 75 1 31 70
M  V30 76 1 34 71
M  V30 77 1 36 72
M  V30 78 1 36 73
M  V30 79 1 37 74
M  V30 80 1 37 75
M  V30 END BOND
M  V30 END CTAB
M  END
>  <Dataset>  (538) 
ChEMBL_Kinases

>  <Ligand_Instance>  (538) 
nan

>  <PDB_ID>  (538) 
nan

>  <Standardized_SMILES>  (538) 
CN(C)C1CCN(c2ccc(Nc3ncc4c5ccncc5n(C5CCC(C)(C)CC5)c4n3)cn2)CC1

>  <Name>  (538) 
nan

>  <Pocket>  (538) 
nan

>  <ATP_Site>  (538) 
nan

>  <Peripheral>  (538) 
nan

>  <Num_H_Atoms_ProtBoundConf>  (538) 
nan

>  <Num_Resolved_Atoms>  (538) 
nan

>  <Num_Not_Resolved_Atoms>  (538) 
nan

$$$$
CHEMBL4874269
     RDKit          3D

  0  0  0  0  0  0  0  0  0  0999 V3000
M  V30 BEGIN CTAB
M  V30 COUNTS 47 49 0 0 0
M  V30 BEGIN ATOM
M  V30 1 C -1.290932 -4.280413 3.554479 0
M  V30 2 O -2.263587 -4.097579 2.543326 0
M  V30 3 C -2.199715 -3.063463 1.621585 0
M  V30 4 C -1.136689 -2.169307 1.693309 0
M  V30 5 C -1.059810 -1.140161 0.787467 0
M  V30 6 N 0.062577 -0.316253 0.976734 0
M  V30 7 C 0.417209 0.796297 0.231791 0
M  V30 8 O -0.267613 1.224981 -0.755537 0
M  V30 9 C 1.359706 1.895687 0.001697 0 CFG=2
M  V30 10 N 0.842959 2.827431 -1.005802 0
M  V30 11 C 2.749980 1.489855 -0.400772 0
M  V30 12 C 3.522158 2.790065 -0.587609 0
M  V30 13 C 4.346151 3.172198 0.590808 0
M  V30 14 C 3.818649 2.771658 1.924113 0
M  V30 15 C 3.326741 1.339540 1.997957 0
M  V30 16 C 3.391033 0.659699 0.656837 0
M  V30 17 C -2.041462 -1.041875 -0.151556 0
M  V30 18 C -3.088656 -1.935327 -0.210296 0
M  V30 19 C -3.202619 -2.983126 0.681199 0
M  V30 20 C -4.334199 -3.891271 0.563605 0
M  V30 21 C -4.659517 -4.989959 1.321071 0
M  V30 22 N -5.798666 -5.555176 0.872988 0
M  V30 23 C -6.155751 -4.778483 -0.168580 0
M  V30 24 O -5.291228 -3.809224 -0.338939 0
M  V30 25 H -1.556528 -5.148559 4.166800 0
M  V30 26 H -1.259530 -3.318563 4.116600 0
M  V30 27 H -0.305899 -4.346811 3.049407 0
M  V30 28 H -0.401102 -2.346283 2.494548 0
M  V30 29 H 0.803850 -0.383775 1.693387 0
M  V30 30 H 1.431011 2.503466 0.923452 0
M  V30 31 H -0.042973 3.235560 -0.689794 0
M  V30 32 H 0.869585 2.465279 -1.960996 0
M  V30 33 H 2.690686 0.905747 -1.338916 0
M  V30 34 H 2.826968 3.562568 -0.956825 0
M  V30 35 H 4.226994 2.590755 -1.446472 0
M  V30 36 H 4.395585 4.296455 0.596577 0
M  V30 37 H 5.423816 2.875061 0.443622 0
M  V30 38 H 3.098588 3.511985 2.321579 0
M  V30 39 H 4.690007 2.833462 2.640750 0
M  V30 40 H 2.296007 1.348184 2.363329 0
M  V30 41 H 3.921423 0.715866 2.697034 0
M  V30 42 H 2.924344 -0.331687 0.721773 0
M  V30 43 H 4.481815 0.478550 0.393580 0
M  V30 44 H -1.989644 -0.248724 -0.856114 0
M  V30 45 H -3.839203 -1.804763 -0.980598 0
M  V30 46 H -4.127357 -5.399091 2.166341 0
M  V30 47 H -7.015079 -4.854746 -0.837344 0
M  V30 END ATOM
M  V30 BEGIN BOND
M  V30 1 1 1 2
M  V30 2 1 2 3
M  V30 3 2 3 4
M  V30 4 1 4 5
M  V30 5 1 5 6
M  V30 6 1 6 7
M  V30 7 2 7 8
M  V30 8 1 7 9
M  V30 9 1 9 10
M  V30 10 1 9 11
M  V30 11 1 11 12
M  V30 12 1 12 13
M  V30 13 1 13 14
M  V30 14 1 14 15
M  V30 15 1 15 16
M  V30 16 2 5 17
M  V30 17 1 17 18
M  V30 18 2 18 19
M  V30 19 1 19 20
M  V30 20 2 20 21
M  V30 21 1 21 22
M  V30 22 2 22 23
M  V30 23 1 23 24
M  V30 24 1 19 3
M  V30 25 1 24 20
M  V30 26 1 16 11
M  V30 27 1 1 25
M  V30 28 1 1 26
M  V30 29 1 1 27
M  V30 30 1 4 28
M  V30 31 1 6 29
M  V30 32 1 9 30 CFG=1
M  V30 33 1 10 31
M  V30 34 1 10 32
M  V30 35 1 11 33
M  V30 36 1 12 34
M  V30 37 1 12 35
M  V30 38 1 13 36
M  V30 39 1 13 37
M  V30 40 1 14 38
M  V30 41 1 14 39
M  V30 42 1 15 40
M  V30 43 1 15 41
M  V30 44 1 16 42
M  V30 45 1 16 43
M  V30 46 1 17 44
M  V30 47 1 18 45
M  V30 48 1 21 46
M  V30 49 1 23 47
M  V30 END BOND
M  V30 END CTAB
M  END
>  <Dataset>  (539) 
ChEMBL_Kinases

>  <Ligand_Instance>  (539) 
nan

>  <PDB_ID>  (539) 
nan

>  <Standardized_SMILES>  (539) 
COc1cc(NC(=O)[C@H](N)C2CCCCC2)ccc1-c1cnco1

>  <Name>  (539) 
nan

>  <Pocket>  (539) 
nan

>  <ATP_Site>  (539) 
nan

>  <Peripheral>  (539) 
nan

>  <Num_H_Atoms_ProtBoundConf>  (539) 
nan

>  <Num_Resolved_Atoms>  (539) 
nan

>  <Num_Not_Resolved_Atoms>  (539) 
nan

$$$$
CHEMBL4874353
     RDKit          3D

  0  0  0  0  0  0  0  0  0  0999 V3000
M  V30 BEGIN CTAB
M  V30 COUNTS 43 46 0 0 0
M  V30 BEGIN ATOM
M  V30 1 C 3.144619 -0.879122 1.476721 0
M  V30 2 C 2.573860 0.457127 1.091524 0
M  V30 3 C 3.136116 1.604513 0.563064 0
M  V30 4 C 4.580643 1.502371 0.318544 0
M  V30 5 O 5.346423 2.091542 1.142985 0
M  V30 6 N 4.997009 0.741820 -0.835709 0
M  V30 7 C 4.013127 0.117560 -1.724572 0
M  V30 8 C 6.415554 0.615863 -1.068678 0
M  V30 9 O 2.242320 2.528834 0.399970 0
M  V30 10 C 1.052935 2.080880 0.794655 0
M  V30 11 C -0.183499 2.682243 0.817611 0
M  V30 12 C -1.304329 2.027017 1.275128 0
M  V30 13 C -1.186139 0.730524 1.724220 0
M  V30 14 N -2.097979 -0.220543 2.258701 0
M  V30 15 C -2.641557 -1.169656 1.341931 0
M  V30 16 N -2.411427 -1.101228 0.020009 0
M  V30 17 C -2.919953 -2.021199 -0.841284 0
M  V30 18 N -3.688046 -3.063494 -0.413478 0
M  V30 19 C -3.937467 -3.162504 0.900225 0
M  V30 20 C -4.701470 -4.204072 1.386501 0
M  V30 21 C -4.918414 -4.264522 2.745924 0
M  V30 22 C -4.395248 -3.317399 3.625136 0
M  V30 23 Cl -4.647401 -3.366626 5.358465 0
M  V30 24 N -3.662784 -2.333012 3.084336 0
M  V30 25 C -3.425250 -2.232524 1.775721 0
M  V30 26 C 0.069676 0.109045 1.705653 0
M  V30 27 C 1.216483 0.766100 1.241866 0
M  V30 28 H 3.910580 -1.248285 0.804977 0
M  V30 29 H 3.553374 -0.747806 2.504460 0
M  V30 30 H 2.321611 -1.618791 1.510151 0
M  V30 31 H 2.999926 0.467446 -1.435452 0
M  V30 32 H 4.032836 -0.987213 -1.626882 0
M  V30 33 H 4.197412 0.354303 -2.791448 0
M  V30 34 H 6.856009 -0.203460 -0.469674 0
M  V30 35 H 6.583567 0.406730 -2.136308 0
M  V30 36 H 6.925748 1.547663 -0.731281 0
M  V30 37 H -0.345166 3.698608 0.481827 0
M  V30 38 H -2.319959 2.357609 1.357275 0
M  V30 39 H -2.405780 -0.290914 3.261869 0
M  V30 40 H -2.715938 -1.929319 -1.905150 0
M  V30 41 H -5.099283 -4.923461 0.703089 0
M  V30 42 H -5.520350 -5.084636 3.171294 0
M  V30 43 H 0.332574 -0.897392 2.024874 0
M  V30 END ATOM
M  V30 BEGIN BOND
M  V30 1 1 1 2
M  V30 2 2 2 3
M  V30 3 1 3 4
M  V30 4 2 4 5
M  V30 5 1 4 6
M  V30 6 1 6 7
M  V30 7 1 6 8
M  V30 8 1 3 9
M  V30 9 1 9 10
M  V30 10 2 10 11
M  V30 11 1 11 12
M  V30 12 2 12 13
M  V30 13 1 13 14
M  V30 14 1 14 15
M  V30 15 2 15 16
M  V30 16 1 16 17
M  V30 17 2 17 18
M  V30 18 1 18 19
M  V30 19 2 19 20
M  V30 20 1 20 21
M  V30 21 2 21 22
M  V30 22 1 22 23
M  V30 23 1 22 24
M  V30 24 2 24 25
M  V30 25 1 13 26
M  V30 26 2 26 27
M  V30 27 1 27 2
M  V30 28 1 27 10
M  V30 29 1 25 15
M  V30 30 1 25 19
M  V30 31 1 1 28
M  V30 32 1 1 29
M  V30 33 1 1 30
M  V30 34 1 7 31
M  V30 35 1 7 32
M  V30 36 1 7 33
M  V30 37 1 8 34
M  V30 38 1 8 35
M  V30 39 1 8 36
M  V30 40 1 11 37
M  V30 41 1 12 38
M  V30 42 1 14 39
M  V30 43 1 17 40
M  V30 44 1 20 41
M  V30 45 1 21 42
M  V30 46 1 26 43
M  V30 END BOND
M  V30 END CTAB
M  END
>  <Dataset>  (540) 
ChEMBL_Kinases

>  <Ligand_Instance>  (540) 
nan

>  <PDB_ID>  (540) 
nan

>  <Standardized_SMILES>  (540) 
Cc1c(C(=O)N(C)C)oc2ccc(Nc3ncnc4ccc(Cl)nc34)cc12

>  <Name>  (540) 
nan

>  <Pocket>  (540) 
nan

>  <ATP_Site>  (540) 
nan

>  <Peripheral>  (540) 
nan

>  <Num_H_Atoms_ProtBoundConf>  (540) 
nan

>  <Num_Resolved_Atoms>  (540) 
nan

>  <Num_Not_Resolved_Atoms>  (540) 
nan

$$$$
CHEMBL4874370
     RDKit          3D

  0  0  0  0  0  0  0  0  0  0999 V3000
M  V30 BEGIN CTAB
M  V30 COUNTS 26 28 0 0 0
M  V30 BEGIN ATOM
M  V30 1 O 1.094301 -5.095818 0.194737 0
M  V30 2 C 0.569651 -4.457663 1.142002 0
M  V30 3 O 0.213934 -5.259731 2.193818 0
M  V30 4 C 0.368971 -3.008119 1.104507 0
M  V30 5 C -0.222290 -2.363637 2.196830 0
M  V30 6 C -0.401819 -0.993840 2.139035 0
M  V30 7 C -0.007695 -0.291338 1.035391 0
M  V30 8 C 0.572328 -0.948764 -0.027805 0
M  V30 9 C 0.779682 -2.333575 -0.026503 0
M  V30 10 C 1.006120 -0.323991 -1.193302 0
M  V30 11 C 0.823168 1.041578 -1.242153 0
M  V30 12 Br 1.387142 1.986175 -2.801320 0
M  V30 13 C 0.243151 1.703483 -0.180456 0
M  V30 14 C 0.083356 3.071255 -0.281214 0
M  V30 15 C -0.501281 3.686274 0.806225 0
M  V30 16 Cl -0.703701 5.431383 0.674478 0
M  V30 17 N -0.921055 3.083900 1.933345 0
M  V30 18 C -0.755306 1.747779 2.010450 0
M  V30 19 C -0.179454 1.064925 0.964906 0
M  V30 20 H -0.282273 -6.138194 2.114291 0
M  V30 21 H -0.510855 -2.981683 3.039284 0
M  V30 22 H -0.854574 -0.596495 3.007368 0
M  V30 23 H 1.233695 -2.870586 -0.851314 0
M  V30 24 H 1.452964 -0.828533 -2.013023 0
M  V30 25 H 0.394649 3.624305 -1.152342 0
M  V30 26 H -1.106850 1.313981 2.930910 0
M  V30 END ATOM
M  V30 BEGIN BOND
M  V30 1 2 1 2
M  V30 2 1 2 3
M  V30 3 1 2 4
M  V30 4 2 4 5
M  V30 5 1 5 6
M  V30 6 2 6 7
M  V30 7 1 7 8
M  V30 8 2 8 9
M  V30 9 1 8 10
M  V30 10 2 10 11
M  V30 11 1 11 12
M  V30 12 1 11 13
M  V30 13 2 13 14
M  V30 14 1 14 15
M  V30 15 1 15 16
M  V30 16 2 15 17
M  V30 17 1 17 18
M  V30 18 2 18 19
M  V30 19 1 9 4
M  V30 20 1 19 13
M  V30 21 1 19 7
M  V30 22 1 3 20
M  V30 23 1 5 21
M  V30 24 1 6 22
M  V30 25 1 9 23
M  V30 26 1 10 24
M  V30 27 1 14 25
M  V30 28 1 18 26
M  V30 END BOND
M  V30 END CTAB
M  END
>  <Dataset>  (541) 
ChEMBL_Kinases

>  <Ligand_Instance>  (541) 
nan

>  <PDB_ID>  (541) 
nan

>  <Standardized_SMILES>  (541) 
O=C(O)c1ccc2c(c1)cc(Br)c1cc(Cl)ncc12

>  <Name>  (541) 
nan

>  <Pocket>  (541) 
nan

>  <ATP_Site>  (541) 
nan

>  <Peripheral>  (541) 
nan

>  <Num_H_Atoms_ProtBoundConf>  (541) 
nan

>  <Num_Resolved_Atoms>  (541) 
nan

>  <Num_Not_Resolved_Atoms>  (541) 
nan

$$$$
CHEMBL4874460
     RDKit          3D

  0  0  0  0  0  0  0  0  0  0999 V3000
M  V30 BEGIN CTAB
M  V30 COUNTS 50 53 0 0 0
M  V30 BEGIN ATOM
M  V30 1 C 1.350257 -0.094420 3.768360 0
M  V30 2 C 2.396128 -0.903314 4.456202 0 CFG=2
M  V30 3 N 3.750687 -0.486551 4.212791 0
M  V30 4 C 4.827695 -0.644969 4.999792 0
M  V30 5 N 5.895683 -0.098927 4.380936 0
M  V30 6 N 5.487966 0.400279 3.207943 0
M  V30 7 C 4.160432 0.155851 3.113270 0
M  V30 8 C 3.538202 0.633506 1.892098 0
M  V30 9 C 3.605565 2.002321 1.613859 0
M  V30 10 C 3.086643 2.663601 0.492770 0
M  V30 11 C 2.441467 1.815686 -0.413906 0
M  V30 12 C 2.370699 0.463092 -0.145819 0
M  V30 13 N 1.702352 -0.281936 -1.156376 0
M  V30 14 C 0.338156 -0.384072 -1.046048 0
M  V30 15 O -0.266179 0.187725 -0.053467 0
M  V30 16 C -0.994831 -0.690118 -1.253152 0
M  V30 17 C -0.481234 -1.462725 -2.461042 0
M  V30 18 C -1.210214 -2.231759 -3.442470 0
M  V30 19 C -2.613659 -2.323724 -3.327689 0
M  V30 20 C -3.151103 -1.651284 -2.262301 0
M  V30 21 C -2.294434 -0.992536 -1.461178 0
M  V30 22 O -2.603885 -0.229267 -0.303190 0
M  V30 23 C -3.944218 0.093690 0.048869 0
M  V30 24 C -4.973356 -0.540834 -0.820565 0
M  V30 25 N -4.468949 -1.487457 -1.783907 0
M  V30 26 C -5.389416 -2.457733 -2.403496 0
M  V30 27 N 2.897757 -0.092434 0.958361 0
M  V30 28 C 2.206987 -2.367371 4.064038 0
M  V30 29 F 0.919272 -2.710233 4.491424 0
M  V30 30 F 2.189384 -2.521280 2.696389 0
M  V30 31 F 3.153024 -3.185981 4.638073 0
M  V30 32 H 0.907786 -0.562882 2.867538 0
M  V30 33 H 0.458733 0.084804 4.443683 0
M  V30 34 H 1.698337 0.926391 3.517110 0
M  V30 35 H 2.169552 -0.898059 5.568629 0
M  V30 36 H 4.815788 -1.140033 5.983017 0
M  V30 37 H 4.119694 2.634740 2.354085 0
M  V30 38 H 3.220835 3.729763 0.427316 0
M  V30 39 H 2.034806 2.303345 -1.286698 0
M  V30 40 H 1.826729 -0.831600 -2.029776 0
M  V30 41 H 0.468605 -1.741450 -3.030953 0
M  V30 42 H -1.062524 -2.840461 -4.347112 0
M  V30 43 H -3.420437 -2.782561 -3.848941 0
M  V30 44 H -4.094350 -0.261338 1.093677 0
M  V30 45 H -4.020400 1.202186 0.001339 0
M  V30 46 H -5.713169 -1.125155 -0.199319 0
M  V30 47 H -5.510295 0.257396 -1.386395 0
M  V30 48 H -5.094238 -3.503019 -2.174494 0
M  V30 49 H -5.422177 -2.350819 -3.496231 0
M  V30 50 H -6.408632 -2.319508 -1.987780 0
M  V30 END ATOM
M  V30 BEGIN BOND
M  V30 1 1 1 2
M  V30 2 1 2 3
M  V30 3 1 3 4
M  V30 4 2 4 5
M  V30 5 1 5 6
M  V30 6 2 6 7
M  V30 7 1 7 8
M  V30 8 2 8 9
M  V30 9 1 9 10
M  V30 10 2 10 11
M  V30 11 1 11 12
M  V30 12 1 12 13
M  V30 13 1 13 14
M  V30 14 2 14 15
M  V30 15 1 14 16
M  V30 16 2 16 17
M  V30 17 1 17 18
M  V30 18 2 18 19
M  V30 19 1 19 20
M  V30 20 2 20 21
M  V30 21 1 21 22
M  V30 22 1 22 23
M  V30 23 1 23 24
M  V30 24 1 24 25
M  V30 25 1 25 26
M  V30 26 2 12 27
M  V30 27 1 2 28
M  V30 28 1 28 29
M  V30 29 1 28 30
M  V30 30 1 28 31
M  V30 31 1 7 3
M  V30 32 1 27 8
M  V30 33 1 21 16
M  V30 34 1 25 20
M  V30 35 1 1 32
M  V30 36 1 1 33
M  V30 37 1 1 34
M  V30 38 1 2 35 CFG=1
M  V30 39 1 4 36
M  V30 40 1 9 37
M  V30 41 1 10 38
M  V30 42 1 11 39
M  V30 43 1 13 40
M  V30 44 1 17 41
M  V30 45 1 18 42
M  V30 46 1 19 43
M  V30 47 1 23 44
M  V30 48 1 23 45
M  V30 49 1 24 46
M  V30 50 1 24 47
M  V30 51 1 26 48
M  V30 52 1 26 49
M  V30 53 1 26 50
M  V30 END BOND
M  V30 END CTAB
M  END
>  <Dataset>  (542) 
ChEMBL_Kinases

>  <Ligand_Instance>  (542) 
nan

>  <PDB_ID>  (542) 
nan

>  <Standardized_SMILES>  (542) 
C[C@H](n1cnnc1-c1cccc(NC(=O)c2cccc3c2OCCN3C)n1)C(F)(F)F

>  <Name>  (542) 
nan

>  <Pocket>  (542) 
nan

>  <ATP_Site>  (542) 
nan

>  <Peripheral>  (542) 
nan

>  <Num_H_Atoms_ProtBoundConf>  (542) 
nan

>  <Num_Resolved_Atoms>  (542) 
nan

>  <Num_Not_Resolved_Atoms>  (542) 
nan

$$$$
CHEMBL3702108
     RDKit          3D

  0  0  0  0  0  0  0  0  0  0999 V3000
M  V30 BEGIN CTAB
M  V30 COUNTS 79 85 0 0 0
M  V30 BEGIN ATOM
M  V30 1 C 3.488683 -2.509655 3.758528 0
M  V30 2 C 3.220648 -1.170738 3.110575 0
M  V30 3 C 1.970431 -0.602468 3.773256 0
M  V30 4 C 3.021362 -1.312346 1.609630 0
M  V30 5 C 4.363821 -1.380562 0.963041 0
M  V30 6 C 5.020259 -0.042046 0.987122 0
M  V30 7 N 4.779293 0.730273 -0.200590 0
M  V30 8 C 5.427608 1.851885 -0.522182 0
M  V30 9 C 6.430454 2.621085 0.028054 0
M  V30 10 N 6.907738 3.746713 -0.537478 0
M  V30 11 C 6.446320 4.227147 -1.699913 0
M  V30 12 C 5.441426 3.509276 -2.309042 0
M  V30 13 C 4.956486 2.360657 -1.728888 0
M  V30 14 C 3.974191 1.513383 -2.169651 0
M  V30 15 C 3.177812 1.528818 -3.291999 0
M  V30 16 N 2.297145 0.545794 -3.447669 0
M  V30 17 C 2.197161 -0.435547 -2.520953 0
M  V30 18 N 1.207426 -1.435434 -2.799129 0
M  V30 19 C 0.040021 -1.818453 -2.073769 0
M  V30 20 C -0.777914 -2.819131 -2.572989 0
M  V30 21 C -1.873895 -3.143152 -1.807306 0
M  V30 22 C -2.191988 -2.545337 -0.609933 0
M  V30 23 N -3.304233 -2.865897 0.185272 0
M  V30 24 C -3.660576 -2.266869 1.456885 0
M  V30 25 C -5.148848 -1.897167 1.384719 0
M  V30 26 C -5.579820 -1.766922 -0.058353 0
M  V30 27 N -6.776188 -1.048127 -0.146583 0
M  V30 28 C -6.638164 0.311933 0.318526 0
M  V30 29 C -6.828749 1.231524 -0.870747 0
M  V30 30 C -7.111179 0.327801 -2.057670 0
M  V30 31 C -7.472175 -0.946697 -1.361765 0
M  V30 32 C -5.552967 -3.151880 -0.636800 0
M  V30 33 C -4.284795 -3.880885 -0.169447 0
M  V30 34 C -1.324831 -1.559845 -0.188249 0
M  V30 35 N -0.239582 -1.211996 -0.908130 0
M  V30 36 N 2.986913 -0.447400 -1.411332 0
M  V30 37 C 3.891314 0.527248 -1.213209 0
M  V30 38 C 4.676138 0.676192 2.251957 0
M  V30 39 C 4.405172 -0.277491 3.403876 0
M  V30 40 H 4.102494 -3.129637 3.080886 0
M  V30 41 H 4.081270 -2.304637 4.688777 0
M  V30 42 H 2.553897 -3.052075 4.006737 0
M  V30 43 H 2.228799 0.043271 4.628322 0
M  V30 44 H 1.438611 -0.007732 3.021616 0
M  V30 45 H 1.334450 -1.438453 4.148906 0
M  V30 46 H 2.444066 -2.258190 1.459342 0
M  V30 47 H 2.408875 -0.418327 1.315027 0
M  V30 48 H 4.347922 -1.849290 -0.042641 0
M  V30 49 H 4.985901 -2.078530 1.578387 0
M  V30 50 H 6.133860 -0.231871 0.999336 0
M  V30 51 H 6.880469 2.328859 0.963435 0
M  V30 52 H 6.909551 5.138041 -2.051641 0
M  V30 53 H 5.068721 3.900229 -3.250149 0
M  V30 54 H 3.287724 2.329802 -4.010318 0
M  V30 55 H 1.444003 -1.930716 -3.704289 0
M  V30 56 H -0.585140 -3.323891 -3.499389 0
M  V30 57 H -2.505688 -3.913743 -2.189111 0
M  V30 58 H -3.148112 -1.321184 1.676283 0
M  V30 59 H -3.554753 -2.992147 2.292274 0
M  V30 60 H -5.390236 -1.005939 1.973748 0
M  V30 61 H -5.759807 -2.723558 1.855329 0
M  V30 62 H -4.757164 -1.155945 -0.538111 0
M  V30 63 H -7.340683 0.554016 1.138496 0
M  V30 64 H -5.606997 0.538291 0.702496 0
M  V30 65 H -7.694870 1.901950 -0.697745 0
M  V30 66 H -5.935882 1.835877 -1.106778 0
M  V30 67 H -6.226233 0.178947 -2.706969 0
M  V30 68 H -7.942210 0.699880 -2.679021 0
M  V30 69 H -8.570188 -0.861239 -1.098900 0
M  V30 70 H -7.428363 -1.822704 -2.033338 0
M  V30 71 H -6.382548 -3.783885 -0.334002 0
M  V30 72 H -5.437062 -3.032172 -1.734214 0
M  V30 73 H -3.980047 -4.557510 -0.962215 0
M  V30 74 H -4.531293 -4.530877 0.707251 0
M  V30 75 H -1.412062 -0.983807 0.720734 0
M  V30 76 H 3.756009 1.288754 2.101918 0
M  V30 77 H 5.499523 1.322538 2.618937 0
M  V30 78 H 4.131788 0.356663 4.276571 0
M  V30 79 H 5.309941 -0.859022 3.670159 0
M  V30 END ATOM
M  V30 BEGIN BOND
M  V30 1 1 1 2
M  V30 2 1 2 3
M  V30 3 1 2 4
M  V30 4 1 4 5
M  V30 5 1 5 6
M  V30 6 1 6 7
M  V30 7 1 7 8
M  V30 8 2 8 9
M  V30 9 1 9 10
M  V30 10 2 10 11
M  V30 11 1 11 12
M  V30 12 2 12 13
M  V30 13 1 13 14
M  V30 14 2 14 15
M  V30 15 1 15 16
M  V30 16 2 16 17
M  V30 17 1 17 18
M  V30 18 1 18 19
M  V30 19 2 19 20
M  V30 20 1 20 21
M  V30 21 2 21 22
M  V30 22 1 22 23
M  V30 23 1 23 24
M  V30 24 1 24 25
M  V30 25 1 25 26
M  V30 26 1 26 27
M  V30 27 1 27 28
M  V30 28 1 28 29
M  V30 29 1 29 30
M  V30 30 1 30 31
M  V30 31 1 26 32
M  V30 32 1 32 33
M  V30 33 1 22 34
M  V30 34 2 34 35
M  V30 35 1 17 36
M  V30 36 2 36 37
M  V30 37 1 6 38
M  V30 38 1 38 39
M  V30 39 1 39 2
M  V30 40 1 37 7
M  V30 41 1 13 8
M  V30 42 1 37 14
M  V30 43 1 35 19
M  V30 44 1 33 23
M  V30 45 1 31 27
M  V30 46 1 1 40
M  V30 47 1 1 41
M  V30 48 1 1 42
M  V30 49 1 3 43
M  V30 50 1 3 44
M  V30 51 1 3 45
M  V30 52 1 4 46
M  V30 53 1 4 47
M  V30 54 1 5 48
M  V30 55 1 5 49
M  V30 56 1 6 50
M  V30 57 1 9 51
M  V30 58 1 11 52
M  V30 59 1 12 53
M  V30 60 1 15 54
M  V30 61 1 18 55
M  V30 62 1 20 56
M  V30 63 1 21 57
M  V30 64 1 24 58
M  V30 65 1 24 59
M  V30 66 1 25 60
M  V30 67 1 25 61
M  V30 68 1 26 62
M  V30 69 1 28 63
M  V30 70 1 28 64
M  V30 71 1 29 65
M  V30 72 1 29 66
M  V30 73 1 30 67
M  V30 74 1 30 68
M  V30 75 1 31 69
M  V30 76 1 31 70
M  V30 77 1 32 71
M  V30 78 1 32 72
M  V30 79 1 33 73
M  V30 80 1 33 74
M  V30 81 1 34 75
M  V30 82 1 38 76
M  V30 83 1 38 77
M  V30 84 1 39 78
M  V30 85 1 39 79
M  V30 END BOND
M  V30 END CTAB
M  END
>  <Dataset>  (543) 
ChEMBL_Kinases

>  <Ligand_Instance>  (543) 
nan

>  <PDB_ID>  (543) 
nan

>  <Standardized_SMILES>  (543) 
CC1(C)CCC(n2c3cnccc3c3cnc(Nc4ccc(N5CCC(N6CCCC6)CC5)cn4)nc32)CC1

>  <Name>  (543) 
nan

>  <Pocket>  (543) 
nan

>  <ATP_Site>  (543) 
nan

>  <Peripheral>  (543) 
nan

>  <Num_H_Atoms_ProtBoundConf>  (543) 
nan

>  <Num_Resolved_Atoms>  (543) 
nan

>  <Num_Not_Resolved_Atoms>  (543) 
nan

$$$$
CHEMBL4874424
     RDKit          3D

  0  0  0  0  0  0  0  0  0  0999 V3000
M  V30 BEGIN CTAB
M  V30 COUNTS 50 53 0 0 0
M  V30 BEGIN ATOM
M  V30 1 C -0.564583 -1.372772 4.641196 0
M  V30 2 C 0.297236 -2.576614 4.237814 0
M  V30 3 C 0.861275 -2.321629 2.885918 0
M  V30 4 C 0.246807 -2.682556 1.709915 0
M  V30 5 C 1.027976 -2.301740 0.639227 0
M  V30 6 N 0.998402 -2.372527 -0.801771 0
M  V30 7 C 0.168534 -1.246150 -1.120063 0
M  V30 8 N 0.738683 -0.008700 -1.103767 0
M  V30 9 C -0.005275 1.087247 -1.387566 0
M  V30 10 N 0.355760 2.451649 -1.442903 0
M  V30 11 C 0.366940 3.391893 -0.341995 0
M  V30 12 C 1.373267 2.921096 0.643246 0
M  V30 13 C 2.670341 3.409878 0.456440 0
M  V30 14 C 3.761936 3.117861 1.243572 0
M  V30 15 C 3.554149 2.265014 2.313595 0
M  V30 16 Cl 4.861986 1.815630 3.391090 0
M  V30 17 C 2.278392 1.758649 2.532349 0
M  V30 18 C 1.212254 2.076552 1.718772 0
M  V30 19 N -1.316741 0.945884 -1.686742 0
M  V30 20 C -1.903251 -0.271805 -1.709804 0
M  V30 21 C -3.256090 -0.424741 -2.023647 0
M  V30 22 C -3.782495 -1.694215 -2.032434 0
M  V30 23 C -3.073857 -2.839576 -1.753351 0
M  V30 24 C -1.723790 -2.706599 -1.438483 0
M  V30 25 O -0.923198 -3.788618 -1.144933 0
M  V30 26 C -1.464748 -5.091402 -1.159191 0
M  V30 27 C -1.187182 -1.414280 -1.428783 0
M  V30 28 N 2.125486 -1.703742 1.190598 0
M  V30 29 N 2.016951 -1.720543 2.528820 0
M  V30 30 H -0.162804 -0.839999 5.512209 0
M  V30 31 H -0.541785 -0.616096 3.808255 0
M  V30 32 H -1.632496 -1.628823 4.745366 0
M  V30 33 H -0.429495 -3.441670 4.166209 0
M  V30 34 H 1.069707 -2.769811 5.001320 0
M  V30 35 H -0.670366 -3.174338 1.504399 0
M  V30 36 H 1.468642 -3.075604 -1.414864 0
M  V30 37 H 0.636507 2.767376 -2.401182 0
M  V30 38 H 0.636149 4.413231 -0.675547 0
M  V30 39 H -0.625345 3.410257 0.166467 0
M  V30 40 H 2.892722 4.090244 -0.379915 0
M  V30 41 H 4.735533 3.522620 1.050224 0
M  V30 42 H 2.108382 1.096571 3.361990 0
M  V30 43 H 0.193948 1.715335 1.836925 0
M  V30 44 H -3.871884 0.426051 -2.253236 0
M  V30 45 H -4.829798 -1.815634 -2.275324 0
M  V30 46 H -3.559970 -3.804706 -1.780462 0
M  V30 47 H -2.102315 -5.163435 -2.077532 0
M  V30 48 H -2.169972 -5.261133 -0.295471 0
M  V30 49 H -0.660185 -5.857185 -1.213293 0
M  V30 50 H 2.701182 -1.337834 3.225604 0
M  V30 END ATOM
M  V30 BEGIN BOND
M  V30 1 1 1 2
M  V30 2 1 2 3
M  V30 3 2 3 4
M  V30 4 1 4 5
M  V30 5 1 5 6
M  V30 6 1 6 7
M  V30 7 2 7 8
M  V30 8 1 8 9
M  V30 9 1 9 10
M  V30 10 1 10 11
M  V30 11 1 11 12
M  V30 12 2 12 13
M  V30 13 1 13 14
M  V30 14 2 14 15
M  V30 15 1 15 16
M  V30 16 1 15 17
M  V30 17 2 17 18
M  V30 18 2 9 19
M  V30 19 1 19 20
M  V30 20 2 20 21
M  V30 21 1 21 22
M  V30 22 2 22 23
M  V30 23 1 23 24
M  V30 24 1 24 25
M  V30 25 1 25 26
M  V30 26 2 24 27
M  V30 27 2 5 28
M  V30 28 1 28 29
M  V30 29 1 29 3
M  V30 30 1 27 7
M  V30 31 1 18 12
M  V30 32 1 27 20
M  V30 33 1 1 30
M  V30 34 1 1 31
M  V30 35 1 1 32
M  V30 36 1 2 33
M  V30 37 1 2 34
M  V30 38 1 4 35
M  V30 39 1 6 36
M  V30 40 1 10 37
M  V30 41 1 11 38
M  V30 42 1 11 39
M  V30 43 1 13 40
M  V30 44 1 14 41
M  V30 45 1 17 42
M  V30 46 1 18 43
M  V30 47 1 21 44
M  V30 48 1 22 45
M  V30 49 1 23 46
M  V30 50 1 26 47
M  V30 51 1 26 48
M  V30 52 1 26 49
M  V30 53 1 29 50
M  V30 END BOND
M  V30 END CTAB
M  END
>  <Dataset>  (544) 
ChEMBL_Kinases

>  <Ligand_Instance>  (544) 
nan

>  <PDB_ID>  (544) 
nan

>  <Standardized_SMILES>  (544) 
CCc1cc(Nc2nc(NCc3ccc(Cl)cc3)nc3cccc(OC)c23)n[nH]1

>  <Name>  (544) 
nan

>  <Pocket>  (544) 
nan

>  <ATP_Site>  (544) 
nan

>  <Peripheral>  (544) 
nan

>  <Num_H_Atoms_ProtBoundConf>  (544) 
nan

>  <Num_Resolved_Atoms>  (544) 
nan

>  <Num_Not_Resolved_Atoms>  (544) 
nan

$$$$
CHEMBL3956891
     RDKit          3D

  0  0  0  0  0  0  0  0  0  0999 V3000
M  V30 BEGIN CTAB
M  V30 COUNTS 44 47 0 0 0
M  V30 BEGIN ATOM
M  V30 1 C -5.187457 -2.469673 4.466499 0
M  V30 2 O -5.003260 -3.756262 3.901709 0
M  V30 3 C -4.708479 -3.938386 2.558652 0
M  V30 4 C -4.561412 -2.948435 1.609797 0
M  V30 5 C -4.266680 -3.228912 0.283990 0
M  V30 6 O -4.164454 -2.092155 -0.490148 0
M  V30 7 C -3.000853 -1.388846 -0.751445 0
M  V30 8 C -2.416634 -0.373807 -0.026128 0
M  V30 9 C -1.243660 0.206469 -0.464253 0
M  V30 10 C -0.614572 -0.193235 -1.623819 0
M  V30 11 C 0.619216 0.461306 -2.037785 0
M  V30 12 N 1.365176 0.239033 -3.131106 0
M  V30 13 C 2.426005 1.081894 -3.121572 0
M  V30 14 C 3.480934 1.298007 -3.962224 0
M  V30 15 C 4.365769 2.271078 -3.596465 0
M  V30 16 C 5.520759 2.616073 -4.387294 0
M  V30 17 N 6.613506 2.906299 -5.184943 0
M  V30 18 O 5.577888 1.877795 -5.443690 0
M  V30 19 C 4.282392 3.046674 -2.458583 0
M  V30 20 C 3.212501 2.843872 -1.582969 0
M  V30 21 C 2.339239 1.857125 -1.980386 0
M  V30 22 N 1.225901 1.443944 -1.353261 0
M  V30 23 C -1.192684 -1.210206 -2.357821 0
M  V30 24 C -2.382356 -1.815216 -1.934468 0
M  V30 25 C -4.109919 -4.540988 -0.128445 0
M  V30 26 C -4.256371 -5.541230 0.815801 0
M  V30 27 C -4.552303 -5.269037 2.150985 0
M  V30 28 Br -4.742893 -6.707117 3.408758 0
M  V30 29 H -5.794456 -1.824241 3.802174 0
M  V30 30 H -4.233871 -1.962688 4.676031 0
M  V30 31 H -5.739319 -2.531309 5.441146 0
M  V30 32 H -4.704073 -1.958575 2.034084 0
M  V30 33 H -2.948586 -0.107719 0.862675 0
M  V30 34 H -0.880465 0.988812 0.184475 0
M  V30 35 H 3.592780 0.719279 -4.865599 0
M  V30 36 H 7.199902 3.715623 -4.809725 0
M  V30 37 H 7.132004 3.721700 -4.729833 0
M  V30 38 H 4.984472 3.826509 -2.157926 0
M  V30 39 H 3.087206 3.410090 -0.679072 0
M  V30 40 H 0.864717 1.834497 -0.438015 0
M  V30 41 H -0.687931 -1.517248 -3.266856 0
M  V30 42 H -2.757929 -2.604980 -2.580485 0
M  V30 43 H -3.882185 -4.680344 -1.166889 0
M  V30 44 H -4.130913 -6.576511 0.481490 0
M  V30 END ATOM
M  V30 BEGIN BOND
M  V30 1 1 1 2
M  V30 2 1 2 3
M  V30 3 2 3 4
M  V30 4 1 4 5
M  V30 5 1 5 6
M  V30 6 1 6 7
M  V30 7 2 7 8
M  V30 8 1 8 9
M  V30 9 2 9 10
M  V30 10 1 10 11
M  V30 11 2 11 12
M  V30 12 1 12 13
M  V30 13 2 13 14
M  V30 14 1 14 15
M  V30 15 1 15 16
M  V30 16 1 16 17
M  V30 17 2 16 18
M  V30 18 2 15 19
M  V30 19 1 19 20
M  V30 20 2 20 21
M  V30 21 1 21 22
M  V30 22 1 10 23
M  V30 23 2 23 24
M  V30 24 2 5 25
M  V30 25 1 25 26
M  V30 26 2 26 27
M  V30 27 1 27 28
M  V30 28 1 27 3
M  V30 29 1 24 7
M  V30 30 1 22 11
M  V30 31 1 21 13
M  V30 32 1 1 29
M  V30 33 1 1 30
M  V30 34 1 1 31
M  V30 35 1 4 32
M  V30 36 1 8 33
M  V30 37 1 9 34
M  V30 38 1 14 35
M  V30 39 1 17 36
M  V30 40 1 17 37
M  V30 41 1 19 38
M  V30 42 1 20 39
M  V30 43 1 22 40
M  V30 44 1 23 41
M  V30 45 1 24 42
M  V30 46 1 25 43
M  V30 47 1 26 44
M  V30 END BOND
M  V30 END CTAB
M  END
>  <Dataset>  (545) 
ChEMBL_Kinases

>  <Ligand_Instance>  (545) 
nan

>  <PDB_ID>  (545) 
nan

>  <Standardized_SMILES>  (545) 
COc1cc(Oc2ccc(-c3nc4cc(C(N)=O)ccc4[nH]3)cc2)ccc1Br

>  <Name>  (545) 
nan

>  <Pocket>  (545) 
nan

>  <ATP_Site>  (545) 
nan

>  <Peripheral>  (545) 
nan

>  <Num_H_Atoms_ProtBoundConf>  (545) 
nan

>  <Num_Resolved_Atoms>  (545) 
nan

>  <Num_Not_Resolved_Atoms>  (545) 
nan

$$$$
CHEMBL3956719
     RDKit          3D

  0  0  0  0  0  0  0  0  0  0999 V3000
M  V30 BEGIN CTAB
M  V30 COUNTS 42 45 0 0 0
M  V30 BEGIN ATOM
M  V30 1 C -0.405358 -5.349871 1.171403 0
M  V30 2 C 0.948189 -4.836945 1.517904 0
M  V30 3 N 1.815292 -5.498919 2.308983 0
M  V30 4 N 2.926197 -4.791752 2.431460 0
M  V30 5 C 2.847314 -3.652153 1.741444 0
M  V30 6 C 3.676139 -2.560014 1.513680 0
M  V30 7 C 3.266833 -1.487915 0.709142 0
M  V30 8 C 2.012082 -1.548156 0.146919 0
M  V30 9 C 1.470774 -0.494964 -0.702175 0
M  V30 10 O 1.247342 -0.406104 -1.912223 0
M  V30 11 N 0.979134 0.857445 -0.502882 0
M  V30 12 C 0.591382 1.320397 -1.846425 0
M  V30 13 C 0.053170 2.711141 -1.513686 0
M  V30 14 C 0.759265 3.123254 -0.258346 0
M  V30 15 C 0.756997 1.872139 0.542518 0 CFG=1
M  V30 16 C -0.508716 1.562114 1.200009 0
M  V30 17 C -1.533106 2.483950 1.299740 0
M  V30 18 C -2.742160 2.205624 1.943572 0
M  V30 19 C -2.956675 0.969813 2.515495 0
M  V30 20 Cl -4.454401 0.584479 3.332983 0
M  V30 21 C -1.972787 0.027597 2.442770 0
M  V30 22 C -0.791278 0.353026 1.792343 0
M  V30 23 C 1.114855 -2.602280 0.321029 0
M  V30 24 C 1.581962 -3.644857 1.136528 0
M  V30 25 H -1.005036 -5.491043 2.095963 0
M  V30 26 H -0.959597 -4.591685 0.557659 0
M  V30 27 H -0.306543 -6.319793 0.630219 0
M  V30 28 H 3.805888 -4.994217 2.966297 0
M  V30 29 H 4.638073 -2.561691 1.967558 0
M  V30 30 H 3.910200 -0.636620 0.527839 0
M  V30 31 H -0.279189 0.708942 -2.179783 0
M  V30 32 H 1.424263 1.368676 -2.546713 0
M  V30 33 H -1.050183 2.729587 -1.395480 0
M  V30 34 H 0.312733 3.339138 -2.395520 0
M  V30 35 H 1.838358 3.315733 -0.541318 0
M  V30 36 H 0.328489 4.018009 0.225944 0
M  V30 37 H 1.583881 1.823138 1.290920 0
M  V30 38 H -1.485316 3.470176 0.895257 0
M  V30 39 H -3.547894 2.937535 2.018025 0
M  V30 40 H -2.104256 -0.971219 2.890590 0
M  V30 41 H -0.060714 -0.440394 1.780495 0
M  V30 42 H 0.139287 -2.693864 -0.088423 0
M  V30 END ATOM
M  V30 BEGIN BOND
M  V30 1 1 1 2
M  V30 2 2 2 3
M  V30 3 1 3 4
M  V30 4 1 4 5
M  V30 5 2 5 6
M  V30 6 1 6 7
M  V30 7 2 7 8
M  V30 8 1 8 9
M  V30 9 2 9 10
M  V30 10 1 9 11
M  V30 11 1 11 12
M  V30 12 1 12 13
M  V30 13 1 13 14
M  V30 14 1 14 15
M  V30 15 1 15 16
M  V30 16 2 16 17
M  V30 17 1 17 18
M  V30 18 2 18 19
M  V30 19 1 19 20
M  V30 20 1 19 21
M  V30 21 2 21 22
M  V30 22 1 8 23
M  V30 23 2 23 24
M  V30 24 1 24 2
M  V30 25 1 24 5
M  V30 26 1 15 11
M  V30 27 1 22 16
M  V30 28 1 1 25
M  V30 29 1 1 26
M  V30 30 1 1 27
M  V30 31 1 4 28
M  V30 32 1 6 29
M  V30 33 1 7 30
M  V30 34 1 12 31
M  V30 35 1 12 32
M  V30 36 1 13 33
M  V30 37 1 13 34
M  V30 38 1 14 35
M  V30 39 1 14 36
M  V30 40 1 15 37 CFG=1
M  V30 41 1 17 38
M  V30 42 1 18 39
M  V30 43 1 21 40
M  V30 44 1 22 41
M  V30 45 1 23 42
M  V30 END BOND
M  V30 END CTAB
M  END
>  <Dataset>  (546) 
ChEMBL_Kinases

>  <Ligand_Instance>  (546) 
nan

>  <PDB_ID>  (546) 
nan

>  <Standardized_SMILES>  (546) 
Cc1n[nH]c2ccc(C(=O)N3CCC[C@H]3c3ccc(Cl)cc3)cc12

>  <Name>  (546) 
nan

>  <Pocket>  (546) 
nan

>  <ATP_Site>  (546) 
nan

>  <Peripheral>  (546) 
nan

>  <Num_H_Atoms_ProtBoundConf>  (546) 
nan

>  <Num_Resolved_Atoms>  (546) 
nan

>  <Num_Not_Resolved_Atoms>  (546) 
nan

$$$$
CHEMBL3956680
     RDKit          3D

  0  0  0  0  0  0  0  0  0  0999 V3000
M  V30 BEGIN CTAB
M  V30 COUNTS 42 45 0 0 0
M  V30 BEGIN ATOM
M  V30 1 N 2.807774 -8.589210 -0.883225 0
M  V30 2 C 3.282533 -7.265488 -0.664807 0
M  V30 3 O 4.529525 -7.210284 -0.502557 0
M  V30 4 C 2.281489 -6.201258 -0.661753 0
M  V30 5 C 0.925313 -6.437623 -0.859376 0
M  V30 6 C 0.101161 -5.330792 -0.829135 0
M  V30 7 C 0.563345 -4.043283 -0.616679 0
M  V30 8 N -0.100444 -2.868627 -0.558276 0
M  V30 9 C 0.810185 -1.899185 -0.328109 0
M  V30 10 C 0.524955 -0.468827 -0.191738 0
M  V30 11 C -0.789373 -0.053232 -0.305780 0
M  V30 12 C -1.064615 1.312095 -0.175977 0
M  V30 13 C -0.008086 2.187609 0.061124 0
M  V30 14 O -0.301195 3.558416 0.189354 0
M  V30 15 C -0.597149 4.119916 1.423260 0
M  V30 16 C 0.439707 4.620381 2.181550 0
M  V30 17 C 0.134700 5.184764 3.423770 0
M  V30 18 C -1.190770 5.199745 3.802630 0
M  V30 19 N -1.494715 5.778157 5.073450 0
M  V30 20 C -2.224573 4.699138 3.043248 0
M  V30 21 C -1.933987 4.136464 1.808331 0
M  V30 22 C 1.312109 1.752175 0.173514 0
M  V30 23 C 1.578803 0.396596 0.043816 0
M  V30 24 N 2.013922 -2.496287 -0.249708 0
M  V30 25 C 1.912255 -3.827873 -0.422483 0
M  V30 26 C 2.746028 -4.923168 -0.450137 0
M  V30 27 H 3.143893 -9.417042 -1.423561 0
M  V30 28 H 2.085111 -9.320043 -0.710075 0
M  V30 29 H 0.583400 -7.448142 -1.023527 0
M  V30 30 H -0.956591 -5.507370 -0.982332 0
M  V30 31 H -1.138304 -2.704696 -0.668056 0
M  V30 32 H -1.611825 -0.723530 -0.488997 0
M  V30 33 H -2.059708 1.739943 -0.248709 0
M  V30 34 H 1.455654 4.570101 1.811272 0
M  V30 35 H 0.943837 5.576573 4.018110 0
M  V30 36 H -1.812586 5.073917 5.803708 0
M  V30 37 H -1.529157 6.684543 5.602051 0
M  V30 38 H -3.242632 4.752835 3.421108 0
M  V30 39 H -2.724124 3.740080 1.199577 0
M  V30 40 H 2.077561 2.504299 0.359456 0
M  V30 41 H 2.606065 0.086803 0.134754 0
M  V30 42 H 3.785400 -4.731136 -0.297372 0
M  V30 END ATOM
M  V30 BEGIN BOND
M  V30 1 1 1 2
M  V30 2 2 2 3
M  V30 3 1 2 4
M  V30 4 2 4 5
M  V30 5 1 5 6
M  V30 6 2 6 7
M  V30 7 1 7 8
M  V30 8 1 8 9
M  V30 9 1 9 10
M  V30 10 2 10 11
M  V30 11 1 11 12
M  V30 12 2 12 13
M  V30 13 1 13 14
M  V30 14 1 14 15
M  V30 15 2 15 16
M  V30 16 1 16 17
M  V30 17 2 17 18
M  V30 18 1 18 19
M  V30 19 1 18 20
M  V30 20 2 20 21
M  V30 21 1 13 22
M  V30 22 2 22 23
M  V30 23 2 9 24
M  V30 24 1 24 25
M  V30 25 2 25 26
M  V30 26 1 26 4
M  V30 27 1 25 7
M  V30 28 1 23 10
M  V30 29 1 21 15
M  V30 30 1 1 27
M  V30 31 1 1 28
M  V30 32 1 5 29
M  V30 33 1 6 30
M  V30 34 1 8 31
M  V30 35 1 11 32
M  V30 36 1 12 33
M  V30 37 1 16 34
M  V30 38 1 17 35
M  V30 39 1 19 36
M  V30 40 1 19 37
M  V30 41 1 20 38
M  V30 42 1 21 39
M  V30 43 1 22 40
M  V30 44 1 23 41
M  V30 45 1 26 42
M  V30 END BOND
M  V30 END CTAB
M  END
>  <Dataset>  (547) 
ChEMBL_Kinases

>  <Ligand_Instance>  (547) 
nan

>  <PDB_ID>  (547) 
nan

>  <Standardized_SMILES>  (547) 
NC(=O)c1ccc2[nH]c(-c3ccc(Oc4ccc(N)cc4)cc3)nc2c1

>  <Name>  (547) 
nan

>  <Pocket>  (547) 
nan

>  <ATP_Site>  (547) 
nan

>  <Peripheral>  (547) 
nan

>  <Num_H_Atoms_ProtBoundConf>  (547) 
nan

>  <Num_Resolved_Atoms>  (547) 
nan

>  <Num_Not_Resolved_Atoms>  (547) 
nan

$$$$
CHEMBL3956671
     RDKit          3D

  0  0  0  0  0  0  0  0  0  0999 V3000
M  V30 BEGIN CTAB
M  V30 COUNTS 45 48 0 0 0
M  V30 BEGIN ATOM
M  V30 1 N -1.551995 -8.938889 -1.605775 0
M  V30 2 C -1.882822 -7.816670 -0.820228 0
M  V30 3 O -2.828683 -8.025425 -0.008465 0
M  V30 4 C -1.147031 -6.562341 -0.993433 0
M  V30 5 C -0.119748 -6.395109 -1.899937 0
M  V30 6 C 0.492234 -5.139111 -1.954749 0
M  V30 7 C 0.084304 -4.106551 -1.133655 0
M  V30 8 N 0.503571 -2.816268 -0.990877 0
M  V30 9 C -0.235161 -2.218139 -0.037570 0
M  V30 10 C -0.092426 -0.833211 0.407834 0
M  V30 11 C 0.874570 -0.043153 -0.179923 0
M  V30 12 C 0.942341 1.250167 0.298242 0
M  V30 13 C 0.143864 1.791085 1.284405 0
M  V30 14 C 0.191250 3.115683 1.801392 0
M  V30 15 O -0.584958 3.551904 2.697218 0
M  V30 16 C 0.996625 4.319267 1.572363 0
M  V30 17 C 0.511353 5.491713 2.384744 0
M  V30 18 C 1.035619 5.522495 3.783680 0
M  V30 19 O 2.353129 5.122106 3.907973 0
M  V30 20 C 2.605194 3.883662 3.318522 0
M  V30 21 C 2.469250 4.106222 1.836985 0
M  V30 22 C -0.805923 0.955922 1.836776 0
M  V30 23 C -0.920731 -0.346100 1.399572 0
M  V30 24 N -1.109256 -3.135534 0.408532 0
M  V30 25 C -0.952559 -4.309038 -0.232836 0
M  V30 26 C -1.574839 -5.547600 -0.160913 0
M  V30 27 H -1.999538 -9.426057 -2.409645 0
M  V30 28 H -0.713186 -9.552505 -1.520177 0
M  V30 29 H 0.167155 -7.231197 -2.523524 0
M  V30 30 H 1.293676 -5.021507 -2.667344 0
M  V30 31 H 1.272321 -2.355754 -1.528535 0
M  V30 32 H 1.549251 -0.370696 -0.958684 0
M  V30 33 H 1.687754 1.893004 -0.145768 0
M  V30 34 H 0.900454 4.591465 0.505880 0
M  V30 35 H 0.711899 6.462239 1.870820 0
M  V30 36 H -0.590532 5.429425 2.434588 0
M  V30 37 H 0.987163 6.562345 4.170172 0
M  V30 38 H 0.435179 4.899984 4.481827 0
M  V30 39 H 1.758044 3.223125 3.668575 0
M  V30 40 H 3.577906 3.497057 3.620266 0
M  V30 41 H 2.948693 3.391389 1.192730 0
M  V30 42 H 2.954976 5.099538 1.604230 0
M  V30 43 H -1.487044 1.291053 2.624839 0
M  V30 44 H -1.665466 -1.036097 1.817943 0
M  V30 45 H -2.357045 -5.596901 0.562078 0
M  V30 END ATOM
M  V30 BEGIN BOND
M  V30 1 1 1 2
M  V30 2 2 2 3
M  V30 3 1 2 4
M  V30 4 2 4 5
M  V30 5 1 5 6
M  V30 6 2 6 7
M  V30 7 1 7 8
M  V30 8 1 8 9
M  V30 9 1 9 10
M  V30 10 2 10 11
M  V30 11 1 11 12
M  V30 12 2 12 13
M  V30 13 1 13 14
M  V30 14 2 14 15
M  V30 15 1 14 16
M  V30 16 1 16 17
M  V30 17 1 17 18
M  V30 18 1 18 19
M  V30 19 1 19 20
M  V30 20 1 20 21
M  V30 21 1 13 22
M  V30 22 2 22 23
M  V30 23 2 9 24
M  V30 24 1 24 25
M  V30 25 2 25 26
M  V30 26 1 26 4
M  V30 27 1 25 7
M  V30 28 1 23 10
M  V30 29 1 21 16
M  V30 30 1 1 27
M  V30 31 1 1 28
M  V30 32 1 5 29
M  V30 33 1 6 30
M  V30 34 1 8 31
M  V30 35 1 11 32
M  V30 36 1 12 33
M  V30 37 1 16 34
M  V30 38 1 17 35
M  V30 39 1 17 36
M  V30 40 1 18 37
M  V30 41 1 18 38
M  V30 42 1 20 39
M  V30 43 1 20 40
M  V30 44 1 21 41
M  V30 45 1 21 42
M  V30 46 1 22 43
M  V30 47 1 23 44
M  V30 48 1 26 45
M  V30 END BOND
M  V30 END CTAB
M  END
>  <Dataset>  (548) 
ChEMBL_Kinases

>  <Ligand_Instance>  (548) 
nan

>  <PDB_ID>  (548) 
nan

>  <Standardized_SMILES>  (548) 
NC(=O)c1ccc2[nH]c(-c3ccc(C(=O)C4CCOCC4)cc3)nc2c1

>  <Name>  (548) 
nan

>  <Pocket>  (548) 
nan

>  <ATP_Site>  (548) 
nan

>  <Peripheral>  (548) 
nan

>  <Num_H_Atoms_ProtBoundConf>  (548) 
nan

>  <Num_Resolved_Atoms>  (548) 
nan

>  <Num_Not_Resolved_Atoms>  (548) 
nan

$$$$
CHEMBL3956654
     RDKit          3D

  0  0  0  0  0  0  0  0  0  0999 V3000
M  V30 BEGIN CTAB
M  V30 COUNTS 53 56 0 0 0
M  V30 BEGIN ATOM
M  V30 1 C -0.582712 -2.058993 -2.630372 0
M  V30 2 C 0.276199 -1.361986 -1.658714 0
M  V30 3 C 1.485934 -0.899210 -2.123846 0
M  V30 4 C 2.337315 -0.201008 -1.311234 0
M  V30 5 C 1.933912 0.016556 -0.018889 0
M  V30 6 N 2.817052 0.740851 0.825925 0
M  V30 7 C 2.950207 2.116611 1.095225 0
M  V30 8 O 2.140200 2.859901 0.478120 0
M  V30 9 C 3.975641 2.565825 2.032231 0
M  V30 10 C 4.875201 1.782383 2.722236 0
M  V30 11 C 5.791636 2.354842 3.578783 0
M  V30 12 C 5.840282 3.719048 3.773728 0
M  V30 13 C 4.929298 4.507375 3.074393 0
M  V30 14 C 4.936577 6.003681 3.248356 0
M  V30 15 F 3.681222 6.409769 3.658826 0
M  V30 16 F 5.932842 6.397125 4.096858 0
M  V30 17 F 5.083828 6.529190 1.959737 0
M  V30 18 C 4.014438 3.950189 2.220919 0
M  V30 19 C 0.719946 -0.461208 0.409323 0
M  V30 20 C -0.167677 -1.172421 -0.382455 0
M  V30 21 C -1.398497 -1.570916 0.247672 0
M  V30 22 C -2.319450 -2.510430 -0.095700 0
M  V30 23 C -3.452321 -2.855329 0.574889 0
M  V30 24 N -4.343582 -3.859285 0.112476 0
M  V30 25 C -5.519995 -4.155241 0.894510 0
M  V30 26 C -6.642902 -4.755550 0.101747 0
M  V30 27 O -6.304222 -5.046545 -1.217157 0
M  V30 28 C -5.050757 -5.638906 -1.308642 0
M  V30 29 C -4.023200 -4.538012 -1.127819 0
M  V30 30 N -3.701499 -2.180941 1.736163 0
M  V30 31 C -2.821669 -1.233078 2.134492 0
M  V30 32 N -1.734200 -0.967884 1.400950 0
M  V30 33 H -0.208453 -1.825814 -3.677028 0
M  V30 34 H -1.637593 -1.693133 -2.653952 0
M  V30 35 H -0.570277 -3.147334 -2.588165 0
M  V30 36 H 1.790442 -1.078289 -3.145268 0
M  V30 37 H 3.275006 0.144211 -1.711970 0
M  V30 38 H 3.401339 -0.013668 1.246617 0
M  V30 39 H 4.799357 0.721186 2.537732 0
M  V30 40 H 6.480378 1.699702 4.100881 0
M  V30 41 H 6.561328 4.186590 4.449577 0
M  V30 42 H 3.323745 4.626982 1.699562 0
M  V30 43 H 0.519779 -0.224262 1.446367 0
M  V30 44 H -2.154806 -3.080105 -0.974457 0
M  V30 45 H -5.881375 -3.194893 1.342423 0
M  V30 46 H -5.250272 -4.876843 1.719278 0
M  V30 47 H -6.991232 -5.724476 0.555489 0
M  V30 48 H -7.509820 -4.066118 0.048965 0
M  V30 49 H -4.967395 -6.351287 -0.457094 0
M  V30 50 H -4.960589 -6.150351 -2.287571 0
M  V30 51 H -2.993050 -4.946869 -1.146431 0
M  V30 52 H -4.152000 -3.850513 -1.981716 0
M  V30 53 H -2.947492 -0.655100 3.041631 0
M  V30 END ATOM
M  V30 BEGIN BOND
M  V30 1 1 1 2
M  V30 2 2 2 3
M  V30 3 1 3 4
M  V30 4 2 4 5
M  V30 5 1 5 6
M  V30 6 1 6 7
M  V30 7 2 7 8
M  V30 8 1 7 9
M  V30 9 2 9 10
M  V30 10 1 10 11
M  V30 11 2 11 12
M  V30 12 1 12 13
M  V30 13 1 13 14
M  V30 14 1 14 15
M  V30 15 1 14 16
M  V30 16 1 14 17
M  V30 17 2 13 18
M  V30 18 1 5 19
M  V30 19 2 19 20
M  V30 20 1 20 21
M  V30 21 2 21 22
M  V30 22 1 22 23
M  V30 23 1 23 24
M  V30 24 1 24 25
M  V30 25 1 25 26
M  V30 26 1 26 27
M  V30 27 1 27 28
M  V30 28 1 28 29
M  V30 29 2 23 30
M  V30 30 1 30 31
M  V30 31 2 31 32
M  V30 32 1 20 2
M  V30 33 1 32 21
M  V30 34 1 18 9
M  V30 35 1 29 24
M  V30 36 1 1 33
M  V30 37 1 1 34
M  V30 38 1 1 35
M  V30 39 1 3 36
M  V30 40 1 4 37
M  V30 41 1 6 38
M  V30 42 1 10 39
M  V30 43 1 11 40
M  V30 44 1 12 41
M  V30 45 1 18 42
M  V30 46 1 19 43
M  V30 47 1 22 44
M  V30 48 1 25 45
M  V30 49 1 25 46
M  V30 50 1 26 47
M  V30 51 1 26 48
M  V30 52 1 28 49
M  V30 53 1 28 50
M  V30 54 1 29 51
M  V30 55 1 29 52
M  V30 56 1 31 53
M  V30 END BOND
M  V30 END CTAB
M  END
>  <Dataset>  (549) 
ChEMBL_Kinases

>  <Ligand_Instance>  (549) 
nan

>  <PDB_ID>  (549) 
nan

>  <Standardized_SMILES>  (549) 
Cc1ccc(NC(=O)c2cccc(C(F)(F)F)c2)cc1-c1cc(N2CCOCC2)ncn1

>  <Name>  (549) 
nan

>  <Pocket>  (549) 
nan

>  <ATP_Site>  (549) 
nan

>  <Peripheral>  (549) 
nan

>  <Num_H_Atoms_ProtBoundConf>  (549) 
nan

>  <Num_Resolved_Atoms>  (549) 
nan

>  <Num_Not_Resolved_Atoms>  (549) 
nan

$$$$
CHEMBL3702109
     RDKit          3D

  0  0  0  0  0  0  0  0  0  0999 V3000
M  V30 BEGIN CTAB
M  V30 COUNTS 70 75 0 0 0
M  V30 BEGIN ATOM
M  V30 1 C 4.694779 -4.397164 4.656399 0
M  V30 2 O 4.077689 -3.697885 3.591744 0
M  V30 3 C 4.584118 -2.539627 3.030624 0
M  V30 4 N 5.733995 -2.091862 3.560763 0
M  V30 5 C 6.316547 -0.976582 3.090086 0
M  V30 6 C 5.696004 -0.318523 2.055742 0
M  V30 7 C 4.516087 -0.793976 1.525837 0
M  V30 8 C 3.713708 -0.340837 0.510054 0
M  V30 9 C 3.898656 0.785558 -0.292334 0
M  V30 10 N 2.941749 0.980275 -1.221836 0
M  V30 11 C 1.889004 0.145740 -1.360511 0
M  V30 12 N 1.063892 0.607276 -2.401843 0
M  V30 13 C -0.246158 1.144349 -2.291011 0
M  V30 14 C -0.908118 1.210624 -1.083285 0
M  V30 15 C -2.170019 1.767672 -1.077866 0
M  V30 16 C -2.824025 2.264347 -2.183402 0
M  V30 17 N -4.126508 2.823659 -2.183176 0
M  V30 18 C -5.100533 2.645330 -1.125711 0
M  V30 19 C -6.244267 1.783837 -1.662889 0
M  V30 20 N -6.458845 2.076386 -3.071449 0
M  V30 21 C -6.155918 3.470935 -3.284581 0
M  V30 22 C -4.634109 3.655503 -3.231500 0
M  V30 23 C -2.085121 2.153830 -3.338646 0
M  V30 24 N -0.852528 1.619892 -3.398097 0
M  V30 25 N 1.795462 -0.909103 -0.545325 0
M  V30 26 C 2.662501 -1.217281 0.409467 0
M  V30 27 N 2.756992 -2.203080 1.312686 0
M  V30 28 C 1.845108 -3.314712 1.546797 0
M  V30 29 C 1.104107 -3.191220 2.830099 0
M  V30 30 C -0.375205 -3.489245 2.751841 0
M  V30 31 C -0.974055 -2.711487 1.630893 0
M  V30 32 C -2.470466 -3.068717 1.659523 0
M  V30 33 C -0.943626 -1.210493 1.895127 0
M  V30 34 C -0.382211 -3.121002 0.334659 0
M  V30 35 C 1.000670 -3.636419 0.354464 0
M  V30 36 C 3.888198 -1.950670 1.995849 0
M  V30 37 H 3.984836 -5.196808 4.962876 0
M  V30 38 H 5.698910 -4.763703 4.412225 0
M  V30 39 H 4.721083 -3.673125 5.519273 0
M  V30 40 H 7.239355 -0.577932 3.483434 0
M  V30 41 H 6.146025 0.579372 1.664201 0
M  V30 42 H 4.755250 1.435500 -0.155355 0
M  V30 43 H 1.510273 0.524174 -3.362538 0
M  V30 44 H -0.404920 0.827335 -0.225314 0
M  V30 45 H -2.671375 1.809439 -0.120051 0
M  V30 46 H -4.660572 2.186987 -0.219186 0
M  V30 47 H -5.471375 3.646059 -0.832792 0
M  V30 48 H -7.180036 2.012560 -1.113876 0
M  V30 49 H -5.969446 0.730077 -1.584160 0
M  V30 50 H -5.893131 1.478064 -3.689944 0
M  V30 51 H -6.623813 4.051783 -2.461807 0
M  V30 52 H -6.585828 3.828049 -4.234661 0
M  V30 53 H -4.504345 4.729912 -2.949535 0
M  V30 54 H -4.175502 3.506592 -4.212711 0
M  V30 55 H -2.437055 2.491667 -4.297095 0
M  V30 56 H 2.545493 -4.187955 1.694553 0
M  V30 57 H 1.320637 -2.191872 3.272421 0
M  V30 58 H 1.444017 -3.924080 3.627983 0
M  V30 59 H -0.490474 -4.559341 2.553484 0
M  V30 60 H -0.796366 -3.208675 3.736474 0
M  V30 61 H -2.791316 -3.350864 2.682417 0
M  V30 62 H -2.630053 -3.911519 0.968732 0
M  V30 63 H -3.099814 -2.187528 1.387954 0
M  V30 64 H -1.790660 -0.671634 1.423710 0
M  V30 65 H -1.049632 -0.996273 2.983112 0
M  V30 66 H -0.018758 -0.756468 1.538311 0
M  V30 67 H -1.046708 -3.953652 -0.062591 0
M  V30 68 H -0.576051 -2.311615 -0.398569 0
M  V30 69 H 1.536310 -3.249571 -0.535360 0
M  V30 70 H 1.019261 -4.754606 0.173695 0
M  V30 END ATOM
M  V30 BEGIN BOND
M  V30 1 1 1 2
M  V30 2 1 2 3
M  V30 3 2 3 4
M  V30 4 1 4 5
M  V30 5 2 5 6
M  V30 6 1 6 7
M  V30 7 1 7 8
M  V30 8 2 8 9
M  V30 9 1 9 10
M  V30 10 2 10 11
M  V30 11 1 11 12
M  V30 12 1 12 13
M  V30 13 2 13 14
M  V30 14 1 14 15
M  V30 15 2 15 16
M  V30 16 1 16 17
M  V30 17 1 17 18
M  V30 18 1 18 19
M  V30 19 1 19 20
M  V30 20 1 20 21
M  V30 21 1 21 22
M  V30 22 1 16 23
M  V30 23 2 23 24
M  V30 24 1 11 25
M  V30 25 2 25 26
M  V30 26 1 26 27
M  V30 27 1 27 28
M  V30 28 1 28 29
M  V30 29 1 29 30
M  V30 30 1 30 31
M  V30 31 1 31 32
M  V30 32 1 31 33
M  V30 33 1 31 34
M  V30 34 1 34 35
M  V30 35 1 27 36
M  V30 36 1 36 3
M  V30 37 2 36 7
M  V30 38 1 26 8
M  V30 39 1 35 28
M  V30 40 1 24 13
M  V30 41 1 22 17
M  V30 42 1 1 37
M  V30 43 1 1 38
M  V30 44 1 1 39
M  V30 45 1 5 40
M  V30 46 1 6 41
M  V30 47 1 9 42
M  V30 48 1 12 43
M  V30 49 1 14 44
M  V30 50 1 15 45
M  V30 51 1 18 46
M  V30 52 1 18 47
M  V30 53 1 19 48
M  V30 54 1 19 49
M  V30 55 1 20 50
M  V30 56 1 21 51
M  V30 57 1 21 52
M  V30 58 1 22 53
M  V30 59 1 22 54
M  V30 60 1 23 55
M  V30 61 1 28 56
M  V30 62 1 29 57
M  V30 63 1 29 58
M  V30 64 1 30 59
M  V30 65 1 30 60
M  V30 66 1 32 61
M  V30 67 1 32 62
M  V30 68 1 32 63
M  V30 69 1 33 64
M  V30 70 1 33 65
M  V30 71 1 33 66
M  V30 72 1 34 67
M  V30 73 1 34 68
M  V30 74 1 35 69
M  V30 75 1 35 70
M  V30 END BOND
M  V30 END CTAB
M  END
>  <Dataset>  (550) 
ChEMBL_Kinases

>  <Ligand_Instance>  (550) 
nan

>  <PDB_ID>  (550) 
nan

>  <Standardized_SMILES>  (550) 
COc1nccc2c3cnc(Nc4ccc(N5CCNCC5)cn4)nc3n(C3CCC(C)(C)CC3)c12

>  <Name>  (550) 
nan

>  <Pocket>  (550) 
nan

>  <ATP_Site>  (550) 
nan

>  <Peripheral>  (550) 
nan

>  <Num_H_Atoms_ProtBoundConf>  (550) 
nan

>  <Num_Resolved_Atoms>  (550) 
nan

>  <Num_Not_Resolved_Atoms>  (550) 
nan

$$$$
CHEMBL3702110
     RDKit          3D

  0  0  0  0  0  0  0  0  0  0999 V3000
M  V30 BEGIN CTAB
M  V30 COUNTS 67 72 0 0 0
M  V30 BEGIN ATOM
M  V30 1 C 2.380881 -3.174213 4.163488 0
M  V30 2 C 1.547090 -2.354924 3.183300 0
M  V30 3 C 2.273520 -2.259628 1.878592 0
M  V30 4 C 0.216663 -3.051625 3.051195 0
M  V30 5 C -0.821160 -2.307262 2.312855 0
M  V30 6 C -0.731614 -0.825031 2.323022 0
M  V30 7 N -2.051699 -0.215209 2.390934 0
M  V30 8 C -2.756417 0.479817 1.448677 0
M  V30 9 N -2.401619 0.784563 0.189406 0
M  V30 10 C -3.226107 1.483877 -0.611522 0
M  V30 11 N -2.807007 1.782170 -1.935769 0
M  V30 12 C -1.529554 1.324900 -2.354514 0
M  V30 13 C -1.053388 1.571410 -3.613801 0
M  V30 14 C 0.179408 1.145699 -4.059337 0
M  V30 15 C 1.012784 0.429920 -3.228076 0
M  V30 16 N 2.300985 -0.058822 -3.576568 0
M  V30 17 C 3.215673 -0.817030 -2.752248 0
M  V30 18 C 3.408020 -2.203716 -3.333145 0
M  V30 19 N 3.973668 -2.042414 -4.659791 0
M  V30 20 C 3.102579 -1.260744 -5.499638 0
M  V30 21 C 2.956228 0.106851 -4.835088 0
M  V30 22 C 0.508332 0.198973 -1.973964 0
M  V30 23 N -0.697861 0.625240 -1.563841 0
M  V30 24 N -4.437579 1.900344 -0.170108 0
M  V30 25 C -4.791207 1.598323 1.080477 0
M  V30 26 C -3.980154 0.893303 1.913623 0
M  V30 27 C -4.064412 0.448554 3.198895 0
M  V30 28 C -5.072918 0.584647 4.124219 0
M  V30 29 C -4.901834 0.029871 5.375219 0
M  V30 30 N -3.759704 -0.630726 5.668693 0
M  V30 31 C -2.804663 -0.741203 4.743839 0
M  V30 32 O -1.687557 -1.424721 5.129906 0
M  V30 33 C -2.866092 -0.226724 3.459591 0
M  V30 34 C 0.298380 -0.163494 3.159885 0
M  V30 35 C 1.279121 -1.034643 3.840975 0
M  V30 36 H 1.678176 -3.569086 4.951966 0
M  V30 37 H 2.828744 -4.071058 3.699056 0
M  V30 38 H 3.113574 -2.567952 4.713956 0
M  V30 39 H 2.324329 -3.301450 1.473074 0
M  V30 40 H 1.746281 -1.633155 1.156865 0
M  V30 41 H 3.329357 -1.978776 2.057818 0
M  V30 42 H 0.470067 -4.040337 2.562534 0
M  V30 43 H -0.053490 -3.367356 4.090566 0
M  V30 44 H -0.834421 -2.750702 1.269206 0
M  V30 45 H -1.832092 -2.630775 2.683624 0
M  V30 46 H -0.407241 -0.577992 1.263229 0
M  V30 47 H -3.385494 2.310240 -2.596104 0
M  V30 48 H -1.677813 2.133621 -4.305185 0
M  V30 49 H 0.493041 1.368441 -5.049655 0
M  V30 50 H 2.836281 -0.957026 -1.720684 0
M  V30 51 H 4.217616 -0.316740 -2.672978 0
M  V30 52 H 4.114723 -2.776299 -2.731680 0
M  V30 53 H 2.409143 -2.665867 -3.387000 0
M  V30 54 H 4.145246 -2.988698 -5.087494 0
M  V30 55 H 2.075762 -1.678104 -5.586075 0
M  V30 56 H 3.581840 -1.122925 -6.485917 0
M  V30 57 H 2.355172 0.758732 -5.490983 0
M  V30 58 H 3.970820 0.581614 -4.721294 0
M  V30 59 H 1.000231 -0.335497 -1.187801 0
M  V30 60 H -5.752497 1.928795 1.430598 0
M  V30 61 H -5.981331 1.131326 3.834609 0
M  V30 62 H -5.740497 0.174399 6.061615 0
M  V30 63 H -1.293398 -1.430818 6.057138 0
M  V30 64 H 0.920428 0.595056 2.590019 0
M  V30 65 H -0.195103 0.510413 3.911222 0
M  V30 66 H 1.043016 -1.274258 4.915272 0
M  V30 67 H 2.299506 -0.554315 3.935876 0
M  V30 END ATOM
M  V30 BEGIN BOND
M  V30 1 1 1 2
M  V30 2 1 2 3
M  V30 3 1 2 4
M  V30 4 1 4 5
M  V30 5 1 5 6
M  V30 6 1 6 7
M  V30 7 1 7 8
M  V30 8 2 8 9
M  V30 9 1 9 10
M  V30 10 1 10 11
M  V30 11 1 11 12
M  V30 12 2 12 13
M  V30 13 1 13 14
M  V30 14 2 14 15
M  V30 15 1 15 16
M  V30 16 1 16 17
M  V30 17 1 17 18
M  V30 18 1 18 19
M  V30 19 1 19 20
M  V30 20 1 20 21
M  V30 21 1 15 22
M  V30 22 2 22 23
M  V30 23 2 10 24
M  V30 24 1 24 25
M  V30 25 2 25 26
M  V30 26 1 26 27
M  V30 27 2 27 28
M  V30 28 1 28 29
M  V30 29 2 29 30
M  V30 30 1 30 31
M  V30 31 1 31 32
M  V30 32 2 31 33
M  V30 33 1 6 34
M  V30 34 1 34 35
M  V30 35 1 35 2
M  V30 36 1 33 7
M  V30 37 1 26 8
M  V30 38 1 33 27
M  V30 39 1 23 12
M  V30 40 1 21 16
M  V30 41 1 1 36
M  V30 42 1 1 37
M  V30 43 1 1 38
M  V30 44 1 3 39
M  V30 45 1 3 40
M  V30 46 1 3 41
M  V30 47 1 4 42
M  V30 48 1 4 43
M  V30 49 1 5 44
M  V30 50 1 5 45
M  V30 51 1 6 46
M  V30 52 1 11 47
M  V30 53 1 13 48
M  V30 54 1 14 49
M  V30 55 1 17 50
M  V30 56 1 17 51
M  V30 57 1 18 52
M  V30 58 1 18 53
M  V30 59 1 19 54
M  V30 60 1 20 55
M  V30 61 1 20 56
M  V30 62 1 21 57
M  V30 63 1 21 58
M  V30 64 1 22 59
M  V30 65 1 25 60
M  V30 66 1 28 61
M  V30 67 1 29 62
M  V30 68 1 32 63
M  V30 69 1 34 64
M  V30 70 1 34 65
M  V30 71 1 35 66
M  V30 72 1 35 67
M  V30 END BOND
M  V30 END CTAB
M  END
>  <Dataset>  (551) 
ChEMBL_Kinases

>  <Ligand_Instance>  (551) 
nan

>  <PDB_ID>  (551) 
nan

>  <Standardized_SMILES>  (551) 
CC1(C)CCC(n2c3nc(Nc4ccc(N5CCNCC5)cn4)ncc3c3ccnc(O)c32)CC1

>  <Name>  (551) 
nan

>  <Pocket>  (551) 
nan

>  <ATP_Site>  (551) 
nan

>  <Peripheral>  (551) 
nan

>  <Num_H_Atoms_ProtBoundConf>  (551) 
nan

>  <Num_Resolved_Atoms>  (551) 
nan

>  <Num_Not_Resolved_Atoms>  (551) 
nan

$$$$
CHEMBL3702111
     RDKit          3D

  0  0  0  0  0  0  0  0  0  0999 V3000
M  V30 BEGIN CTAB
M  V30 COUNTS 83 89 0 0 0
M  V30 BEGIN ATOM
M  V30 1 C 5.707318 1.775777 4.723217 0
M  V30 2 O 4.620828 1.915501 3.830353 0
M  V30 3 C 3.349295 2.290852 4.188895 0
M  V30 4 N 3.153572 2.536067 5.493048 0
M  V30 5 C 1.951446 2.910738 5.962014 0
M  V30 6 C 0.927961 3.033717 5.051942 0
M  V30 7 C 1.099030 2.785461 3.684991 0
M  V30 8 C 0.326828 2.810836 2.543645 0
M  V30 9 C -1.010527 3.131715 2.430885 0
M  V30 10 N -1.545043 3.081995 1.192825 0
M  V30 11 C -0.770155 2.727198 0.124413 0
M  V30 12 N -1.570199 2.739905 -1.047653 0
M  V30 13 C -1.953208 1.443703 -1.551942 0
M  V30 14 C -1.482173 0.293911 -0.906283 0
M  V30 15 C -1.807153 -0.979799 -1.333472 0
M  V30 16 C -2.624407 -1.127308 -2.434151 0
M  V30 17 N -2.917895 -2.455896 -2.852128 0
M  V30 18 C -4.057783 -2.968004 -3.630680 0
M  V30 19 C -4.778655 -4.046371 -2.819394 0
M  V30 20 C -4.114051 -4.244947 -1.477780 0
M  V30 21 N -4.831530 -5.229954 -0.732228 0
M  V30 22 C -4.257614 -5.501573 0.563291 0
M  V30 23 C -5.387507 -5.578093 1.562586 0
M  V30 24 C -6.656201 -5.341261 0.810643 0
M  V30 25 C -6.202140 -4.881301 -0.537826 0
M  V30 26 C -2.639451 -4.544188 -1.598762 0
M  V30 27 C -2.020403 -3.533389 -2.535833 0
M  V30 28 C -3.078740 0.026482 -3.056326 0
M  V30 29 N -2.751333 1.257340 -2.626289 0
M  V30 30 N 0.545351 2.413542 0.247173 0
M  V30 31 C 1.139543 2.445977 1.476410 0
M  V30 32 N 2.385731 2.192789 1.907100 0
M  V30 33 C 3.429586 1.777027 1.030137 0
M  V30 34 C 2.988038 0.633233 0.117580 0
M  V30 35 C 4.254698 0.008661 -0.398762 0
M  V30 36 C 5.157876 0.980555 -1.097896 0
M  V30 37 C 6.548088 0.371426 -1.081463 0
M  V30 38 C 4.774322 1.150932 -2.555646 0
M  V30 39 C 5.237044 2.325716 -0.463813 0
M  V30 40 C 3.916485 2.832724 0.066084 0
M  V30 41 C 2.350165 2.402583 3.246653 0
M  V30 42 H 5.733817 2.571459 5.479017 0
M  V30 43 H 6.659570 1.800922 4.183892 0
M  V30 44 H 5.661610 0.776438 5.244208 0
M  V30 45 H 1.618294 3.143490 6.954447 0
M  V30 46 H -0.089312 3.324787 5.281149 0
M  V30 47 H -1.584881 3.409455 3.323664 0
M  V30 48 H -1.924491 3.527621 -1.600179 0
M  V30 49 H -0.837733 0.383649 -0.037010 0
M  V30 50 H -1.410847 -1.799056 -0.788090 0
M  V30 51 H -3.627768 -3.472759 -4.519301 0
M  V30 52 H -4.703494 -2.153896 -3.951217 0
M  V30 53 H -4.903365 -4.970199 -3.396635 0
M  V30 54 H -5.784016 -3.617436 -2.589380 0
M  V30 55 H -4.243131 -3.260916 -0.948718 0
M  V30 56 H -3.674994 -6.445217 0.610269 0
M  V30 57 H -3.566992 -4.710693 0.918622 0
M  V30 58 H -5.321277 -4.769686 2.331269 0
M  V30 59 H -5.417652 -6.565497 2.053676 0
M  V30 60 H -7.253494 -6.261601 0.687070 0
M  V30 61 H -7.311169 -4.561576 1.268130 0
M  V30 62 H -6.280598 -3.754226 -0.595072 0
M  V30 63 H -6.840884 -5.285672 -1.362580 0
M  V30 64 H -2.547079 -5.585814 -1.958257 0
M  V30 65 H -2.175608 -4.386161 -0.605037 0
M  V30 66 H -1.028875 -3.182465 -2.200240 0
M  V30 67 H -1.801794 -4.091382 -3.494745 0
M  V30 68 H -3.715946 -0.087129 -3.912488 0
M  V30 69 H 4.280983 1.384562 1.619974 0
M  V30 70 H 2.403766 1.081821 -0.709582 0
M  V30 71 H 2.399040 -0.124148 0.628069 0
M  V30 72 H 3.969982 -0.776075 -1.133775 0
M  V30 73 H 4.766802 -0.512754 0.436739 0
M  V30 74 H 7.286913 1.076045 -1.478538 0
M  V30 75 H 6.537547 -0.619084 -1.605497 0
M  V30 76 H 6.765314 0.093792 -0.015810 0
M  V30 77 H 5.354496 2.001204 -2.954447 0
M  V30 78 H 5.162342 0.245235 -3.071796 0
M  V30 79 H 3.679009 1.274331 -2.691410 0
M  V30 80 H 5.938532 2.282246 0.414776 0
M  V30 81 H 5.637366 3.066064 -1.181726 0
M  V30 82 H 4.092777 3.800344 0.532065 0
M  V30 83 H 3.166660 2.867029 -0.771664 0
M  V30 END ATOM
M  V30 BEGIN BOND
M  V30 1 1 1 2
M  V30 2 1 2 3
M  V30 3 2 3 4
M  V30 4 1 4 5
M  V30 5 2 5 6
M  V30 6 1 6 7
M  V30 7 1 7 8
M  V30 8 2 8 9
M  V30 9 1 9 10
M  V30 10 2 10 11
M  V30 11 1 11 12
M  V30 12 1 12 13
M  V30 13 2 13 14
M  V30 14 1 14 15
M  V30 15 2 15 16
M  V30 16 1 16 17
M  V30 17 1 17 18
M  V30 18 1 18 19
M  V30 19 1 19 20
M  V30 20 1 20 21
M  V30 21 1 21 22
M  V30 22 1 22 23
M  V30 23 1 23 24
M  V30 24 1 24 25
M  V30 25 1 20 26
M  V30 26 1 26 27
M  V30 27 1 16 28
M  V30 28 2 28 29
M  V30 29 1 11 30
M  V30 30 2 30 31
M  V30 31 1 31 32
M  V30 32 1 32 33
M  V30 33 1 33 34
M  V30 34 1 34 35
M  V30 35 1 35 36
M  V30 36 1 36 37
M  V30 37 1 36 38
M  V30 38 1 36 39
M  V30 39 1 39 40
M  V30 40 1 32 41
M  V30 41 1 41 3
M  V30 42 2 41 7
M  V30 43 1 31 8
M  V30 44 1 40 33
M  V30 45 1 29 13
M  V30 46 1 27 17
M  V30 47 1 25 21
M  V30 48 1 1 42
M  V30 49 1 1 43
M  V30 50 1 1 44
M  V30 51 1 5 45
M  V30 52 1 6 46
M  V30 53 1 9 47
M  V30 54 1 12 48
M  V30 55 1 14 49
M  V30 56 1 15 50
M  V30 57 1 18 51
M  V30 58 1 18 52
M  V30 59 1 19 53
M  V30 60 1 19 54
M  V30 61 1 20 55
M  V30 62 1 22 56
M  V30 63 1 22 57
M  V30 64 1 23 58
M  V30 65 1 23 59
M  V30 66 1 24 60
M  V30 67 1 24 61
M  V30 68 1 25 62
M  V30 69 1 25 63
M  V30 70 1 26 64
M  V30 71 1 26 65
M  V30 72 1 27 66
M  V30 73 1 27 67
M  V30 74 1 28 68
M  V30 75 1 33 69
M  V30 76 1 34 70
M  V30 77 1 34 71
M  V30 78 1 35 72
M  V30 79 1 35 73
M  V30 80 1 37 74
M  V30 81 1 37 75
M  V30 82 1 37 76
M  V30 83 1 38 77
M  V30 84 1 38 78
M  V30 85 1 38 79
M  V30 86 1 39 80
M  V30 87 1 39 81
M  V30 88 1 40 82
M  V30 89 1 40 83
M  V30 END BOND
M  V30 END CTAB
M  END
>  <Dataset>  (552) 
ChEMBL_Kinases

>  <Ligand_Instance>  (552) 
nan

>  <PDB_ID>  (552) 
nan

>  <Standardized_SMILES>  (552) 
COc1nccc2c3cnc(Nc4ccc(N5CCC(N6CCCC6)CC5)cn4)nc3n(C3CCC(C)(C)CC3)c12

>  <Name>  (552) 
nan

>  <Pocket>  (552) 
nan

>  <ATP_Site>  (552) 
nan

>  <Peripheral>  (552) 
nan

>  <Num_H_Atoms_ProtBoundConf>  (552) 
nan

>  <Num_Resolved_Atoms>  (552) 
nan

>  <Num_Not_Resolved_Atoms>  (552) 
nan

$$$$
CHEMBL3702112
     RDKit          3D

  0  0  0  0  0  0  0  0  0  0999 V3000
M  V30 BEGIN CTAB
M  V30 COUNTS 80 86 0 0 0
M  V30 BEGIN ATOM
M  V30 1 C 0.812951 -1.996399 2.638059 0
M  V30 2 C 2.296054 -2.010209 2.321152 0
M  V30 3 C 2.809692 -3.398016 2.532425 0
M  V30 4 C 3.009444 -1.068294 3.235603 0
M  V30 5 C 3.185703 0.322114 2.608428 0
M  V30 6 C 4.214527 0.275929 1.498243 0
M  V30 7 N 4.167006 1.370922 0.586075 0
M  V30 8 C 3.600400 1.511234 -0.625316 0
M  V30 9 N 2.885335 0.683393 -1.407073 0
M  V30 10 C 2.393322 1.005479 -2.615822 0
M  V30 11 N 1.688807 -0.071838 -3.194049 0
M  V30 12 C 0.298131 -0.299521 -3.022838 0
M  V30 13 C -0.543927 0.494964 -2.281426 0
M  V30 14 C -1.894510 0.284479 -2.106944 0
M  V30 15 C -2.450498 -0.813758 -2.726345 0
M  V30 16 N -3.835657 -1.156269 -2.636127 0
M  V30 17 C -4.556512 -2.277723 -3.213515 0
M  V30 18 C -5.068062 -3.225670 -2.149463 0
M  V30 19 C -5.628931 -2.503365 -0.970609 0
M  V30 20 N -4.740856 -2.548204 0.175988 0
M  V30 21 C -5.344553 -1.804802 1.267778 0
M  V30 22 C -4.755957 -2.375318 2.517127 0
M  V30 23 C -4.160654 -3.723574 2.094104 0
M  V30 24 C -4.781506 -3.919808 0.708533 0
M  V30 25 C -5.962380 -1.095120 -1.375837 0
M  V30 26 C -4.755888 -0.341379 -1.889871 0
M  V30 27 C -1.604117 -1.613329 -3.472488 0
M  V30 28 N -0.265723 -1.384515 -3.631692 0
M  V30 29 N 2.599176 2.231802 -3.133431 0
M  V30 30 C 3.316197 3.138536 -2.406521 0
M  V30 31 C 3.801574 2.764456 -1.172428 0
M  V30 32 C 4.544751 3.450473 -0.235555 0
M  V30 33 C 5.025747 4.737803 -0.266492 0
M  V30 34 C 5.758236 5.230356 0.788780 0
M  V30 35 N 5.966732 4.383903 1.829911 0
M  V30 36 C 5.488484 3.132799 1.838996 0
M  V30 37 O 5.788410 2.395380 2.974348 0
M  V30 38 C 4.748469 2.579910 0.814624 0
M  V30 39 C 3.971892 -1.008701 0.743182 0
M  V30 40 C 2.548542 -1.497533 0.911498 0
M  V30 41 H 0.282164 -2.897741 2.255961 0
M  V30 42 H 0.350962 -1.125129 2.123173 0
M  V30 43 H 0.639407 -1.930170 3.732134 0
M  V30 44 H 3.027226 -3.570250 3.609832 0
M  V30 45 H 1.980188 -4.094913 2.217350 0
M  V30 46 H 3.687487 -3.610137 1.892863 0
M  V30 47 H 2.355501 -0.897836 4.139197 0
M  V30 48 H 3.961901 -1.445307 3.653088 0
M  V30 49 H 2.181170 0.629280 2.277102 0
M  V30 50 H 3.548987 0.930072 3.472700 0
M  V30 51 H 5.247749 0.167546 1.961314 0
M  V30 52 H 2.259817 -0.699680 -3.762765 0
M  V30 53 H -0.110833 1.374626 -1.781943 0
M  V30 54 H -2.510826 0.931642 -1.519318 0
M  V30 55 H -3.897765 -2.798538 -3.915238 0
M  V30 56 H -5.410771 -1.886764 -3.831231 0
M  V30 57 H -4.207353 -3.830601 -1.787525 0
M  V30 58 H -5.829955 -3.889182 -2.571187 0
M  V30 59 H -6.562794 -3.000998 -0.657035 0
M  V30 60 H -6.438220 -1.955197 1.181590 0
M  V30 61 H -5.036371 -0.739602 1.135512 0
M  V30 62 H -5.570821 -2.572243 3.253836 0
M  V30 63 H -3.966107 -1.729939 2.934388 0
M  V30 64 H -3.067605 -3.651190 2.054743 0
M  V30 65 H -4.540129 -4.545180 2.749980 0
M  V30 66 H -5.835885 -4.193679 0.831260 0
M  V30 67 H -4.181149 -4.620963 0.133431 0
M  V30 68 H -6.691076 -1.157818 -2.209684 0
M  V30 69 H -6.449006 -0.587670 -0.539185 0
M  V30 70 H -4.310336 0.141376 -0.990984 0
M  V30 71 H -5.065157 0.496274 -2.570057 0
M  V30 72 H -1.903044 -2.492442 -4.002249 0
M  V30 73 H 3.484611 4.117031 -2.810769 0
M  V30 74 H 4.841342 5.381751 -1.110650 0
M  V30 75 H 6.119857 6.247180 0.728231 0
M  V30 76 H 6.693456 2.381973 3.393975 0
M  V30 77 H 4.695654 -1.813444 1.096955 0
M  V30 78 H 4.183609 -0.949932 -0.338793 0
M  V30 79 H 2.377081 -2.344328 0.221795 0
M  V30 80 H 1.868601 -0.657013 0.761004 0
M  V30 END ATOM
M  V30 BEGIN BOND
M  V30 1 1 1 2
M  V30 2 1 2 3
M  V30 3 1 2 4
M  V30 4 1 4 5
M  V30 5 1 5 6
M  V30 6 1 6 7
M  V30 7 1 7 8
M  V30 8 2 8 9
M  V30 9 1 9 10
M  V30 10 1 10 11
M  V30 11 1 11 12
M  V30 12 2 12 13
M  V30 13 1 13 14
M  V30 14 2 14 15
M  V30 15 1 15 16
M  V30 16 1 16 17
M  V30 17 1 17 18
M  V30 18 1 18 19
M  V30 19 1 19 20
M  V30 20 1 20 21
M  V30 21 1 21 22
M  V30 22 1 22 23
M  V30 23 1 23 24
M  V30 24 1 19 25
M  V30 25 1 25 26
M  V30 26 1 15 27
M  V30 27 2 27 28
M  V30 28 2 10 29
M  V30 29 1 29 30
M  V30 30 2 30 31
M  V30 31 1 31 32
M  V30 32 2 32 33
M  V30 33 1 33 34
M  V30 34 2 34 35
M  V30 35 1 35 36
M  V30 36 1 36 37
M  V30 37 2 36 38
M  V30 38 1 6 39
M  V30 39 1 39 40
M  V30 40 1 40 2
M  V30 41 1 38 7
M  V30 42 1 31 8
M  V30 43 1 38 32
M  V30 44 1 28 12
M  V30 45 1 26 16
M  V30 46 1 24 20
M  V30 47 1 1 41
M  V30 48 1 1 42
M  V30 49 1 1 43
M  V30 50 1 3 44
M  V30 51 1 3 45
M  V30 52 1 3 46
M  V30 53 1 4 47
M  V30 54 1 4 48
M  V30 55 1 5 49
M  V30 56 1 5 50
M  V30 57 1 6 51
M  V30 58 1 11 52
M  V30 59 1 13 53
M  V30 60 1 14 54
M  V30 61 1 17 55
M  V30 62 1 17 56
M  V30 63 1 18 57
M  V30 64 1 18 58
M  V30 65 1 19 59
M  V30 66 1 21 60
M  V30 67 1 21 61
M  V30 68 1 22 62
M  V30 69 1 22 63
M  V30 70 1 23 64
M  V30 71 1 23 65
M  V30 72 1 24 66
M  V30 73 1 24 67
M  V30 74 1 25 68
M  V30 75 1 25 69
M  V30 76 1 26 70
M  V30 77 1 26 71
M  V30 78 1 27 72
M  V30 79 1 30 73
M  V30 80 1 33 74
M  V30 81 1 34 75
M  V30 82 1 37 76
M  V30 83 1 39 77
M  V30 84 1 39 78
M  V30 85 1 40 79
M  V30 86 1 40 80
M  V30 END BOND
M  V30 END CTAB
M  END
>  <Dataset>  (553) 
ChEMBL_Kinases

>  <Ligand_Instance>  (553) 
nan

>  <PDB_ID>  (553) 
nan

>  <Standardized_SMILES>  (553) 
CC1(C)CCC(n2c3nc(Nc4ccc(N5CCC(N6CCCC6)CC5)cn4)ncc3c3ccnc(O)c32)CC1

>  <Name>  (553) 
nan

>  <Pocket>  (553) 
nan

>  <ATP_Site>  (553) 
nan

>  <Peripheral>  (553) 
nan

>  <Num_H_Atoms_ProtBoundConf>  (553) 
nan

>  <Num_Resolved_Atoms>  (553) 
nan

>  <Num_Not_Resolved_Atoms>  (553) 
nan

$$$$
CHEMBL4874375
     RDKit          3D

  0  0  0  0  0  0  0  0  0  0999 V3000
M  V30 BEGIN CTAB
M  V30 COUNTS 66 69 0 0 0
M  V30 BEGIN ATOM
M  V30 1 C 5.052151 -1.376663 4.296714 0
M  V30 2 O 4.196601 -1.148069 3.202918 0
M  V30 3 C 2.956957 -0.617972 3.396820 0
M  V30 4 C 2.329834 -0.234445 4.557350 0
M  V30 5 C 1.064055 0.295268 4.634169 0
M  V30 6 C 0.395811 0.437734 3.427525 0
M  V30 7 C 0.967325 0.073469 2.231729 0
M  V30 8 C 2.254824 -0.458720 2.194694 0
M  V30 9 N 2.724388 -0.796402 0.863266 0
M  V30 10 C 1.959273 -0.473110 -0.314301 0
M  V30 11 N 2.759457 0.236044 -1.122873 0
M  V30 12 C 2.389258 0.743841 -2.313968 0
M  V30 13 C 1.094597 0.497715 -2.689533 0
M  V30 14 C 0.635282 1.015353 -3.954090 0
M  V30 15 N 1.505765 1.780621 -4.807401 0
M  V30 16 O -0.337690 1.073807 -4.701580 0
M  V30 17 C 0.256388 -0.218140 -1.891374 0
M  V30 18 N -1.118229 -0.441114 -2.151339 0
M  V30 19 C -2.185734 -1.247435 -1.733239 0
M  V30 20 C -3.147344 -0.544233 -1.023825 0
M  V30 21 C -4.311012 -1.093935 -0.522130 0
M  V30 22 C -4.474986 -2.420374 -0.766886 0
M  V30 23 C -3.556829 -3.168284 -1.464420 0
M  V30 24 C -2.397856 -2.585633 -1.959378 0
M  V30 25 C -1.469365 -3.368060 -2.767595 0
M  V30 26 C -2.000004 -4.810018 -2.839356 0
M  V30 27 C -1.467441 -2.902300 -4.223694 0
M  V30 28 C -0.060590 -3.479405 -2.309433 0
M  V30 29 N 0.700014 -0.699040 -0.707683 0
M  V30 30 C -0.992883 1.011745 3.568564 0
M  V30 31 N -1.013336 2.122426 4.441062 0
M  V30 32 C -2.202485 2.877495 4.461375 0
M  V30 33 C -0.176833 2.108451 5.571767 0
M  V30 34 C 0.422833 0.724722 5.908583 0
M  V30 35 H 5.840721 -0.605499 4.425473 0
M  V30 36 H 5.541792 -2.373241 4.079520 0
M  V30 37 H 4.462504 -1.577465 5.218739 0
M  V30 38 H 2.896368 -0.362979 5.441113 0
M  V30 39 H 0.287390 0.261837 1.413244 0
M  V30 40 H 3.643027 -1.282853 0.820496 0
M  V30 41 H 3.006052 1.318825 -2.990944 0
M  V30 42 H 1.668944 2.802803 -4.606370 0
M  V30 43 H 1.661688 2.809359 -4.593854 0
M  V30 44 H -1.490214 0.186023 -2.900626 0
M  V30 45 H -3.052347 0.538975 -0.801512 0
M  V30 46 H -5.042128 -0.511336 0.027303 0
M  V30 47 H -5.370734 -2.906533 -0.396673 0
M  V30 48 H -3.782527 -4.213637 -1.605485 0
M  V30 49 H -2.965865 -4.853670 -3.346422 0
M  V30 50 H -2.007380 -5.196764 -1.798386 0
M  V30 51 H -1.223166 -5.390005 -3.398794 0
M  V30 52 H -2.537418 -2.716222 -4.461490 0
M  V30 53 H -0.839273 -2.011072 -4.374780 0
M  V30 54 H -1.047324 -3.726528 -4.822773 0
M  V30 55 H 0.068558 -3.303372 -1.226615 0
M  V30 56 H 0.621899 -2.824378 -2.916951 0
M  V30 57 H 0.305807 -4.540893 -2.489875 0
M  V30 58 H -1.674640 0.208715 3.975521 0
M  V30 59 H -1.370506 1.211398 2.553318 0
M  V30 60 H -2.897605 2.457554 5.228145 0
M  V30 61 H -2.674127 2.845540 3.442815 0
M  V30 62 H -1.981886 3.937893 4.730271 0
M  V30 63 H 0.698371 2.809230 5.431992 0
M  V30 64 H -0.744018 2.511693 6.434383 0
M  V30 65 H -0.373348 0.058294 6.232124 0
M  V30 66 H 1.175972 0.948670 6.701892 0
M  V30 END ATOM
M  V30 BEGIN BOND
M  V30 1 1 1 2
M  V30 2 1 2 3
M  V30 3 2 3 4
M  V30 4 1 4 5
M  V30 5 2 5 6
M  V30 6 1 6 7
M  V30 7 2 7 8
M  V30 8 1 8 9
M  V30 9 1 9 10
M  V30 10 2 10 11
M  V30 11 1 11 12
M  V30 12 2 12 13
M  V30 13 1 13 14
M  V30 14 1 14 15
M  V30 15 2 14 16
M  V30 16 1 13 17
M  V30 17 1 17 18
M  V30 18 1 18 19
M  V30 19 2 19 20
M  V30 20 1 20 21
M  V30 21 2 21 22
M  V30 22 1 22 23
M  V30 23 2 23 24
M  V30 24 1 24 25
M  V30 25 1 25 26
M  V30 26 1 25 27
M  V30 27 1 25 28
M  V30 28 2 17 29
M  V30 29 1 6 30
M  V30 30 1 30 31
M  V30 31 1 31 32
M  V30 32 1 31 33
M  V30 33 1 33 34
M  V30 34 1 8 3
M  V30 35 1 29 10
M  V30 36 1 34 5
M  V30 37 1 24 19
M  V30 38 1 1 35
M  V30 39 1 1 36
M  V30 40 1 1 37
M  V30 41 1 4 38
M  V30 42 1 7 39
M  V30 43 1 9 40
M  V30 44 1 12 41
M  V30 45 1 15 42
M  V30 46 1 15 43
M  V30 47 1 18 44
M  V30 48 1 20 45
M  V30 49 1 21 46
M  V30 50 1 22 47
M  V30 51 1 23 48
M  V30 52 1 26 49
M  V30 53 1 26 50
M  V30 54 1 26 51
M  V30 55 1 27 52
M  V30 56 1 27 53
M  V30 57 1 27 54
M  V30 58 1 28 55
M  V30 59 1 28 56
M  V30 60 1 28 57
M  V30 61 1 30 58
M  V30 62 1 30 59
M  V30 63 1 32 60
M  V30 64 1 32 61
M  V30 65 1 32 62
M  V30 66 1 33 63
M  V30 67 1 33 64
M  V30 68 1 34 65
M  V30 69 1 34 66
M  V30 END BOND
M  V30 END CTAB
M  END
>  <Dataset>  (554) 
ChEMBL_Kinases

>  <Ligand_Instance>  (554) 
nan

>  <PDB_ID>  (554) 
nan

>  <Standardized_SMILES>  (554) 
COc1cc2c(cc1Nc1ncc(C(N)=O)c(Nc3ccccc3C(C)(C)C)n1)CN(C)CC2

>  <Name>  (554) 
nan

>  <Pocket>  (554) 
nan

>  <ATP_Site>  (554) 
nan

>  <Peripheral>  (554) 
nan

>  <Num_H_Atoms_ProtBoundConf>  (554) 
nan

>  <Num_Resolved_Atoms>  (554) 
nan

>  <Num_Not_Resolved_Atoms>  (554) 
nan

$$$$
CHEMBL4874981
     RDKit          3D

  0  0  0  0  0  0  0  0  0  0999 V3000
M  V30 BEGIN CTAB
M  V30 COUNTS 45 48 0 0 0
M  V30 BEGIN ATOM
M  V30 1 C -3.972963 -5.439546 -1.138157 0
M  V30 2 O -3.924942 -4.264527 -1.941390 0
M  V30 3 C -2.751484 -3.524255 -1.994895 0
M  V30 4 C -1.590927 -3.829121 -1.321498 0
M  V30 5 C -0.465096 -3.023695 -1.439241 0
M  V30 6 C -0.472147 -1.880026 -2.243100 0
M  V30 7 C 0.836203 -1.204883 -2.204897 0
M  V30 8 N 0.898004 -0.266250 -1.108461 0
M  V30 9 C 0.348898 1.014090 -1.007431 0
M  V30 10 O -0.246204 1.227842 -2.109568 0
M  V30 11 C 0.329426 2.031699 -0.002073 0
M  V30 12 C -0.309810 3.210947 -0.350724 0
M  V30 13 N -0.234411 4.058462 0.716674 0
M  V30 14 C 0.416288 3.473727 1.712527 0
M  V30 15 C 0.757436 3.878900 2.983048 0
M  V30 16 C 1.460191 2.981737 3.791731 0
M  V30 17 C 1.794728 1.714738 3.299028 0
M  V30 18 C 2.525926 0.781341 4.147017 0
M  V30 19 C 2.272017 -0.561592 3.948991 0
M  V30 20 C 2.865478 -1.591582 4.653715 0
M  V30 21 N 3.761969 -1.202632 5.605699 0
M  V30 22 C 4.025760 0.095042 5.817178 0
M  V30 23 C 3.438378 1.139593 5.117990 0
M  V30 24 C 1.409940 1.401878 2.016255 0
M  V30 25 N 0.737038 2.264148 1.245416 0
M  V30 26 C -1.631729 -1.585421 -2.909327 0
M  V30 27 C -2.747452 -2.388875 -2.788557 0
M  V30 28 H -3.388206 -6.268672 -1.579079 0
M  V30 29 H -3.521687 -5.163234 -0.148305 0
M  V30 30 H -5.035814 -5.760463 -1.008102 0
M  V30 31 H -1.611583 -4.727550 -0.699642 0
M  V30 32 H 0.369973 -3.395612 -0.847558 0
M  V30 33 H 0.915658 -0.660939 -3.197591 0
M  V30 34 H 1.689716 -1.897322 -2.214630 0
M  V30 35 H 1.430148 -0.596987 -0.284470 0
M  V30 36 H -0.849928 3.685907 -1.186368 0
M  V30 37 H 0.462114 4.872392 3.286016 0
M  V30 38 H 1.724010 3.304469 4.784838 0
M  V30 39 H 1.560945 -0.925328 3.198009 0
M  V30 40 H 2.649920 -2.634293 4.480200 0
M  V30 41 H 4.747699 0.408177 6.584365 0
M  V30 42 H 3.630031 2.180232 5.265601 0
M  V30 43 H 1.684492 0.421192 1.677752 0
M  V30 44 H -1.560870 -0.696043 -3.510215 0
M  V30 45 H -3.598299 -2.030671 -3.376627 0
M  V30 END ATOM
M  V30 BEGIN BOND
M  V30 1 1 1 2
M  V30 2 1 2 3
M  V30 3 2 3 4
M  V30 4 1 4 5
M  V30 5 2 5 6
M  V30 6 1 6 7
M  V30 7 1 7 8
M  V30 8 1 8 9
M  V30 9 2 9 10
M  V30 10 1 9 11
M  V30 11 2 11 12
M  V30 12 1 12 13
M  V30 13 2 13 14
M  V30 14 1 14 15
M  V30 15 2 15 16
M  V30 16 1 16 17
M  V30 17 1 17 18
M  V30 18 2 18 19
M  V30 19 1 19 20
M  V30 20 2 20 21
M  V30 21 1 21 22
M  V30 22 2 22 23
M  V30 23 2 17 24
M  V30 24 1 24 25
M  V30 25 1 6 26
M  V30 26 2 26 27
M  V30 27 1 27 3
M  V30 28 1 25 11
M  V30 29 1 25 14
M  V30 30 1 23 18
M  V30 31 1 1 28
M  V30 32 1 1 29
M  V30 33 1 1 30
M  V30 34 1 4 31
M  V30 35 1 5 32
M  V30 36 1 7 33
M  V30 37 1 7 34
M  V30 38 1 8 35
M  V30 39 1 12 36
M  V30 40 1 15 37
M  V30 41 1 16 38
M  V30 42 1 19 39
M  V30 43 1 20 40
M  V30 44 1 22 41
M  V30 45 1 23 42
M  V30 46 1 24 43
M  V30 47 1 26 44
M  V30 48 1 27 45
M  V30 END BOND
M  V30 END CTAB
M  END
>  <Dataset>  (555) 
ChEMBL_Kinases

>  <Ligand_Instance>  (555) 
nan

>  <PDB_ID>  (555) 
nan

>  <Standardized_SMILES>  (555) 
COc1ccc(CNC(=O)c2cnc3ccc(-c4ccncc4)cn23)cc1

>  <Name>  (555) 
nan

>  <Pocket>  (555) 
nan

>  <ATP_Site>  (555) 
nan

>  <Peripheral>  (555) 
nan

>  <Num_H_Atoms_ProtBoundConf>  (555) 
nan

>  <Num_Resolved_Atoms>  (555) 
nan

>  <Num_Not_Resolved_Atoms>  (555) 
nan

$$$$
CHEMBL4874984
     RDKit          3D

  0  0  0  0  0  0  0  0  0  0999 V3000
M  V30 BEGIN CTAB
M  V30 COUNTS 64 68 0 0 0
M  V30 BEGIN ATOM
M  V30 1 C 4.745886 -1.768686 0.909316 0
M  V30 2 O 4.359846 -0.425351 0.990664 0
M  V30 3 C 4.211216 0.322064 2.125211 0
M  V30 4 C 4.436549 -0.190095 3.382092 0
M  V30 5 C 4.270967 0.615028 4.514745 0
M  V30 6 C 3.876551 1.935069 4.346077 0
M  V30 7 F 3.713940 2.725477 5.456807 0
M  V30 8 C 3.644375 2.470387 3.087438 0
M  V30 9 C 3.817652 1.642520 1.972394 0
M  V30 10 C 3.548062 2.306307 0.712405 0
M  V30 11 C 4.522523 2.974097 -0.006725 0
M  V30 12 C 4.164196 3.580790 -1.207473 0
M  V30 13 N 2.920777 3.563190 -1.724523 0
M  V30 14 C 1.936721 2.918791 -1.049837 0
M  V30 15 N 0.626843 2.721440 -1.286951 0
M  V30 16 C 0.067683 2.001254 -0.294796 0
M  V30 17 C -1.310393 1.548964 -0.123325 0
M  V30 18 C -1.653069 0.834007 0.954793 0
M  V30 19 C -3.089829 0.452185 0.979460 0
M  V30 20 C -3.484794 -0.241318 -0.299716 0
M  V30 21 C -2.749482 -1.543106 -0.499182 0
M  V30 22 C -3.154726 -2.239730 -1.772696 0
M  V30 23 C -3.783808 -3.589145 -1.492566 0
M  V30 24 N -2.879185 -4.432984 -0.775839 0
M  V30 25 C -3.484729 -5.723063 -0.530369 0
M  V30 26 C -2.562115 -6.627552 0.217613 0
M  V30 27 O -1.376871 -6.519548 0.683100 0
M  V30 28 O -3.123184 -7.893149 0.471034 0
M  V30 29 C -2.335622 -3.839556 0.403413 0
M  V30 30 C -2.991347 -2.502598 0.647450 0
M  V30 31 C -3.220234 0.664942 -1.445031 0
M  V30 32 C -2.356895 1.852520 -1.105040 0
M  V30 33 C 1.104275 1.754583 0.585429 0
M  V30 34 C 2.290598 2.316150 0.141969 0
M  V30 35 H 3.885258 -2.460663 0.830622 0
M  V30 36 H 5.358726 -1.976997 -0.006876 0
M  V30 37 H 5.369414 -2.090991 1.773119 0
M  V30 38 H 4.746096 -1.223681 3.527110 0
M  V30 39 H 4.433216 0.267312 5.520539 0
M  V30 40 H 3.339376 3.506470 3.031427 0
M  V30 41 H 5.519772 3.014865 0.362144 0
M  V30 42 H 4.884865 4.118094 -1.813866 0
M  V30 43 H 0.087870 3.072421 -2.127507 0
M  V30 44 H -0.945416 0.570021 1.719432 0
M  V30 45 H -3.655105 1.416263 0.979360 0
M  V30 46 H -3.375442 -0.063898 1.896940 0
M  V30 47 H -4.561059 -0.495917 -0.215722 0
M  V30 48 H -1.678996 -1.295123 -0.569830 0
M  V30 49 H -3.798503 -1.613967 -2.423340 0
M  V30 50 H -2.241985 -2.440888 -2.364349 0
M  V30 51 H -4.699231 -3.409424 -0.908475 0
M  V30 52 H -4.039721 -4.009044 -2.490159 0
M  V30 53 H -4.447988 -5.641412 -0.003173 0
M  V30 54 H -3.661962 -6.205523 -1.518646 0
M  V30 55 H -2.755243 -8.512412 1.181613 0
M  V30 56 H -1.230099 -3.777117 0.411609 0
M  V30 57 H -2.597825 -4.469526 1.293738 0
M  V30 58 H -4.043847 -2.672945 0.869058 0
M  V30 59 H -2.491846 -2.051541 1.526521 0
M  V30 60 H -4.200170 0.979672 -1.876345 0
M  V30 61 H -2.722659 0.099620 -2.253241 0
M  V30 62 H -1.939458 2.296620 -2.025495 0
M  V30 63 H -3.032421 2.624900 -0.661621 0
M  V30 64 H 1.002468 1.195546 1.501786 0
M  V30 END ATOM
M  V30 BEGIN BOND
M  V30 1 1 1 2
M  V30 2 1 2 3
M  V30 3 2 3 4
M  V30 4 1 4 5
M  V30 5 2 5 6
M  V30 6 1 6 7
M  V30 7 1 6 8
M  V30 8 2 8 9
M  V30 9 1 9 10
M  V30 10 2 10 11
M  V30 11 1 11 12
M  V30 12 2 12 13
M  V30 13 1 13 14
M  V30 14 1 14 15
M  V30 15 1 15 16
M  V30 16 1 16 17
M  V30 17 2 17 18
M  V30 18 1 18 19
M  V30 19 1 19 20
M  V30 20 1 20 21
M  V30 21 1 21 22
M  V30 22 1 22 23
M  V30 23 1 23 24
M  V30 24 1 24 25
M  V30 25 1 25 26
M  V30 26 2 26 27
M  V30 27 1 26 28
M  V30 28 1 24 29
M  V30 29 1 29 30
M  V30 30 1 20 31
M  V30 31 1 31 32
M  V30 32 2 16 33
M  V30 33 1 33 34
M  V30 34 1 9 3
M  V30 35 1 34 10
M  V30 36 2 34 14
M  V30 37 1 32 17
M  V30 38 1 30 21
M  V30 39 1 1 35
M  V30 40 1 1 36
M  V30 41 1 1 37
M  V30 42 1 4 38
M  V30 43 1 5 39
M  V30 44 1 8 40
M  V30 45 1 11 41
M  V30 46 1 12 42
M  V30 47 1 15 43
M  V30 48 1 18 44
M  V30 49 1 19 45
M  V30 50 1 19 46
M  V30 51 1 20 47
M  V30 52 1 21 48
M  V30 53 1 22 49
M  V30 54 1 22 50
M  V30 55 1 23 51
M  V30 56 1 23 52
M  V30 57 1 25 53
M  V30 58 1 25 54
M  V30 59 1 28 55
M  V30 60 1 29 56
M  V30 61 1 29 57
M  V30 62 1 30 58
M  V30 63 1 30 59
M  V30 64 1 31 60
M  V30 65 1 31 61
M  V30 66 1 32 62
M  V30 67 1 32 63
M  V30 68 1 33 64
M  V30 END BOND
M  V30 END CTAB
M  END
>  <Dataset>  (556) 
ChEMBL_Kinases

>  <Ligand_Instance>  (556) 
nan

>  <PDB_ID>  (556) 
nan

>  <Standardized_SMILES>  (556) 
COc1ccc(F)cc1-c1ccnc2[nH]c(C3=CCC(C4CCN(CC(=O)O)CC4)CC3)cc12

>  <Name>  (556) 
nan

>  <Pocket>  (556) 
nan

>  <ATP_Site>  (556) 
nan

>  <Peripheral>  (556) 
nan

>  <Num_H_Atoms_ProtBoundConf>  (556) 
nan

>  <Num_Resolved_Atoms>  (556) 
nan

>  <Num_Not_Resolved_Atoms>  (556) 
nan

$$$$
CHEMBL3702124
     RDKit          3D

  0  0  0  0  0  0  0  0  0  0999 V3000
M  V30 BEGIN CTAB
M  V30 COUNTS 59 64 0 0 0
M  V30 BEGIN ATOM
M  V30 1 O 1.380813 -5.344716 1.164944 0
M  V30 2 C 1.158729 -4.800966 0.049199 0
M  V30 3 C 1.786953 -3.535089 -0.310705 0
M  V30 4 C 2.773993 -3.329958 -1.269905 0
M  V30 5 C 3.240119 -2.041434 -1.443316 0
M  V30 6 C 2.759065 -0.985888 -0.705862 0
M  V30 7 N 3.232801 0.345113 -0.799931 0
M  V30 8 C 2.661068 1.428724 -0.054289 0
M  V30 9 N 3.351328 2.590542 -0.042983 0
M  V30 10 C 2.859818 3.654082 0.615418 0
M  V30 11 C 1.630964 3.446528 1.249263 0
M  V30 12 C 0.962251 4.397187 1.987436 0
M  V30 13 C 1.178398 5.707062 2.352741 0
M  V30 14 C 0.324557 6.442767 3.141792 0
M  V30 15 N -0.781866 5.787570 3.557035 0
M  V30 16 C -1.002806 4.496486 3.202117 0
M  V30 17 F -2.141468 4.021716 3.741262 0
M  V30 18 C -0.169309 3.731964 2.412142 0
M  V30 19 N -0.266609 2.465739 2.006413 0
M  V30 20 C -1.267372 1.458685 2.193543 0
M  V30 21 C -2.677089 1.915797 2.032759 0
M  V30 22 C -3.428452 0.881653 1.206696 0
M  V30 23 C -2.461241 -0.188047 0.834225 0
M  V30 24 C -1.080727 0.337656 1.179766 0
M  V30 25 C 0.881347 2.299155 1.276090 0
M  V30 26 N 1.486592 1.317016 0.582143 0
M  V30 27 N 1.809969 -1.256231 0.194978 0
M  V30 28 C 1.286736 -2.464258 0.447805 0
M  V30 29 N 0.265136 -5.543469 -0.757968 0
M  V30 30 C -0.279669 -6.774228 -0.247185 0
M  V30 31 C -1.810855 -6.720107 -0.247791 0
M  V30 32 N -2.294922 -6.208844 -1.498702 0
M  V30 33 C -1.241436 -6.109629 -2.524253 0
M  V30 34 C -0.148761 -5.142293 -2.084553 0
M  V30 35 H 3.096384 -4.192438 -1.800722 0
M  V30 36 H 4.000465 -1.861055 -2.178387 0
M  V30 37 H 4.020212 0.494021 -1.445538 0
M  V30 38 H 3.380229 4.594135 0.648418 0
M  V30 39 H 2.078529 6.177775 1.995002 0
M  V30 40 H 0.499807 7.466530 3.423641 0
M  V30 41 H -1.077266 0.988211 3.197344 0
M  V30 42 H -3.215448 1.875805 3.027933 0
M  V30 43 H -2.787284 2.858925 1.495018 0
M  V30 44 H -3.878734 1.337356 0.297974 0
M  V30 45 H -4.320502 0.482143 1.777785 0
M  V30 46 H -2.686500 -1.130167 1.342627 0
M  V30 47 H -2.548397 -0.394763 -0.275054 0
M  V30 48 H -0.621589 0.659707 0.239412 0
M  V30 49 H -0.514697 -0.499307 1.602018 0
M  V30 50 H 0.509590 -2.598459 1.208755 0
M  V30 51 H 0.021250 -6.925175 0.804306 0
M  V30 52 H -0.010433 -7.601831 -0.918294 0
M  V30 53 H -2.163897 -6.032234 0.564592 0
M  V30 54 H -2.165033 -7.734156 0.015284 0
M  V30 55 H -2.604196 -5.194710 -1.382058 0
M  V30 56 H -0.802668 -7.071209 -2.780115 0
M  V30 57 H -1.745730 -5.654284 -3.420653 0
M  V30 58 H -0.484957 -4.085280 -2.107466 0
M  V30 59 H 0.711679 -5.254760 -2.762598 0
M  V30 END ATOM
M  V30 BEGIN BOND
M  V30 1 2 1 2
M  V30 2 1 2 3
M  V30 3 2 3 4
M  V30 4 1 4 5
M  V30 5 2 5 6
M  V30 6 1 6 7
M  V30 7 1 7 8
M  V30 8 2 8 9
M  V30 9 1 9 10
M  V30 10 2 10 11
M  V30 11 1 11 12
M  V30 12 2 12 13
M  V30 13 1 13 14
M  V30 14 2 14 15
M  V30 15 1 15 16
M  V30 16 1 16 17
M  V30 17 2 16 18
M  V30 18 1 18 19
M  V30 19 1 19 20
M  V30 20 1 20 21
M  V30 21 1 21 22
M  V30 22 1 22 23
M  V30 23 1 23 24
M  V30 24 1 19 25
M  V30 25 2 25 26
M  V30 26 1 6 27
M  V30 27 2 27 28
M  V30 28 1 2 29
M  V30 29 1 29 30
M  V30 30 1 30 31
M  V30 31 1 31 32
M  V30 32 1 32 33
M  V30 33 1 33 34
M  V30 34 1 28 3
M  V30 35 1 34 29
M  V30 36 1 26 8
M  V30 37 1 25 11
M  V30 38 1 18 12
M  V30 39 1 24 20
M  V30 40 1 4 35
M  V30 41 1 5 36
M  V30 42 1 7 37
M  V30 43 1 10 38
M  V30 44 1 13 39
M  V30 45 1 14 40
M  V30 46 1 20 41
M  V30 47 1 21 42
M  V30 48 1 21 43
M  V30 49 1 22 44
M  V30 50 1 22 45
M  V30 51 1 23 46
M  V30 52 1 23 47
M  V30 53 1 24 48
M  V30 54 1 24 49
M  V30 55 1 28 50
M  V30 56 1 30 51
M  V30 57 1 30 52
M  V30 58 1 31 53
M  V30 59 1 31 54
M  V30 60 1 32 55
M  V30 61 1 33 56
M  V30 62 1 33 57
M  V30 63 1 34 58
M  V30 64 1 34 59
M  V30 END BOND
M  V30 END CTAB
M  END
>  <Dataset>  (557) 
ChEMBL_Kinases

>  <Ligand_Instance>  (557) 
nan

>  <PDB_ID>  (557) 
nan

>  <Standardized_SMILES>  (557) 
O=C(c1ccc(Nc2ncc3c4ccnc(F)c4n(C4CCCC4)c3n2)nc1)N1CCNCC1

>  <Name>  (557) 
nan

>  <Pocket>  (557) 
nan

>  <ATP_Site>  (557) 
nan

>  <Peripheral>  (557) 
nan

>  <Num_H_Atoms_ProtBoundConf>  (557) 
nan

>  <Num_Resolved_Atoms>  (557) 
nan

>  <Num_Not_Resolved_Atoms>  (557) 
nan

$$$$
CHEMBL4874991
     RDKit          3D

  0  0  0  0  0  0  0  0  0  0999 V3000
M  V30 BEGIN CTAB
M  V30 COUNTS 31 33 0 0 0
M  V30 BEGIN ATOM
M  V30 1 C -1.106621 -2.156686 3.169418 0
M  V30 2 N -0.617022 -3.178183 2.233358 0
M  V30 3 C -0.773560 -4.581389 2.555673 0
M  V30 4 C 0.025253 -2.861301 0.983378 0
M  V30 5 N 0.470062 -3.832468 0.133200 0
M  V30 6 C 1.062665 -3.460368 -1.021138 0
M  V30 7 C 1.228951 -2.133919 -1.360945 0
M  V30 8 C 0.771402 -1.152137 -0.486185 0
M  V30 9 C 0.946317 0.251086 -0.843734 0
M  V30 10 C 1.539319 0.739375 -2.000414 0
M  V30 11 N 1.480916 2.082310 -1.904687 0
M  V30 12 C 0.884976 2.441761 -0.753387 0
M  V30 13 C 0.626002 3.719681 -0.267758 0
M  V30 14 C -0.014366 3.777983 0.973637 0
M  V30 15 C -0.371988 2.650487 1.682086 0
M  V30 16 C -0.054394 1.450666 1.081728 0
M  V30 17 N 0.555244 1.300438 -0.098848 0
M  V30 18 N 0.188608 -1.579717 0.649846 0
M  V30 19 H -1.491090 -1.275224 2.651876 0
M  V30 20 H -0.301648 -1.878926 3.880484 0
M  V30 21 H -1.985639 -2.637816 3.685982 0
M  V30 22 H 0.211631 -5.086761 2.618924 0
M  V30 23 H -1.458736 -5.020896 1.808104 0
M  V30 24 H -1.237583 -4.682690 3.541328 0
M  V30 25 H 1.396630 -4.267577 -1.658441 0
M  V30 26 H 1.716328 -1.914737 -2.309180 0
M  V30 27 H 1.946132 0.092281 -2.781064 0
M  V30 28 H 0.910850 4.597980 -0.831797 0
M  V30 29 H -0.211363 4.796860 1.342435 0
M  V30 30 H -0.863169 2.734001 2.633769 0
M  V30 31 H -0.319470 0.541572 1.607816 0
M  V30 END ATOM
M  V30 BEGIN BOND
M  V30 1 1 1 2
M  V30 2 1 2 3
M  V30 3 1 2 4
M  V30 4 2 4 5
M  V30 5 1 5 6
M  V30 6 2 6 7
M  V30 7 1 7 8
M  V30 8 1 8 9
M  V30 9 2 9 10
M  V30 10 1 10 11
M  V30 11 2 11 12
M  V30 12 1 12 13
M  V30 13 2 13 14
M  V30 14 1 14 15
M  V30 15 2 15 16
M  V30 16 1 16 17
M  V30 17 2 8 18
M  V30 18 1 18 4
M  V30 19 1 17 9
M  V30 20 1 17 12
M  V30 21 1 1 19
M  V30 22 1 1 20
M  V30 23 1 1 21
M  V30 24 1 3 22
M  V30 25 1 3 23
M  V30 26 1 3 24
M  V30 27 1 6 25
M  V30 28 1 7 26
M  V30 29 1 10 27
M  V30 30 1 13 28
M  V30 31 1 14 29
M  V30 32 1 15 30
M  V30 33 1 16 31
M  V30 END BOND
M  V30 END CTAB
M  END
>  <Dataset>  (558) 
ChEMBL_Kinases

>  <Ligand_Instance>  (558) 
nan

>  <PDB_ID>  (558) 
nan

>  <Standardized_SMILES>  (558) 
CN(C)c1nccc(-c2cnc3ccccn23)n1

>  <Name>  (558) 
nan

>  <Pocket>  (558) 
nan

>  <ATP_Site>  (558) 
nan

>  <Peripheral>  (558) 
nan

>  <Num_H_Atoms_ProtBoundConf>  (558) 
nan

>  <Num_Resolved_Atoms>  (558) 
nan

>  <Num_Not_Resolved_Atoms>  (558) 
nan

$$$$
CHEMBL3702125
     RDKit          3D

  0  0  0  0  0  0  0  0  0  0999 V3000
M  V30 BEGIN CTAB
M  V30 COUNTS 60 65 0 0 0
M  V30 BEGIN ATOM
M  V30 1 O -0.326283 -6.393130 1.509744 0
M  V30 2 C -0.030463 -5.520490 0.657698 0
M  V30 3 C 0.857657 -4.451813 0.216134 0
M  V30 4 C 0.716212 -3.310673 1.001440 0
M  V30 5 C 1.507924 -2.201373 0.686426 0
M  V30 6 C 2.363539 -2.341327 -0.385613 0
M  V30 7 N 3.178936 -1.225830 -0.727537 0
M  V30 8 C 3.161853 0.051958 -0.166741 0
M  V30 9 N 4.242197 0.862489 -0.020275 0
M  V30 10 C 4.173894 2.096415 0.504722 0
M  V30 11 C 2.946167 2.589359 0.925218 0
M  V30 12 C 2.456837 3.742278 1.497246 0
M  V30 13 C 3.112528 4.903294 1.879071 0
M  V30 14 C 2.431177 5.968490 2.456583 0
M  V30 15 N 1.106393 5.819846 2.628611 0
M  V30 16 C 0.501928 4.683711 2.248803 0
M  V30 17 O -0.863351 4.708628 2.504694 0
M  V30 18 C 1.075510 3.582794 1.673388 0
M  V30 19 N 0.698226 2.373469 1.229532 0
M  V30 20 C -0.671183 1.980683 1.275170 0
M  V30 21 C -0.866037 0.502301 1.029470 0
M  V30 22 C -2.365817 0.401615 0.735700 0
M  V30 23 C -2.806279 1.804501 0.340641 0
M  V30 24 C -1.481137 2.542760 0.096408 0
M  V30 25 C 1.835694 1.786225 0.784190 0
M  V30 26 N 2.003952 0.574825 0.252394 0
M  V30 27 N 2.443947 -3.473075 -1.098091 0
M  V30 28 C 1.716996 -4.578550 -0.855873 0
M  V30 29 N -1.088374 -5.704998 -0.302180 0
M  V30 30 C -2.133339 -6.677175 -0.114375 0
M  V30 31 C -3.494809 -5.976336 -0.128013 0
M  V30 32 N -3.705223 -5.496802 -1.480009 0
M  V30 33 C -2.690637 -4.474839 -1.733794 0
M  V30 34 C -1.303432 -5.025659 -1.566692 0
M  V30 35 H 0.009996 -3.232640 1.819209 0
M  V30 36 H 1.381329 -1.350740 1.315182 0
M  V30 37 H 3.894830 -1.340762 -1.496929 0
M  V30 38 H 5.031043 2.743660 0.622846 0
M  V30 39 H 4.186816 5.004223 1.731974 0
M  V30 40 H 3.008583 6.836281 2.728565 0
M  V30 41 H -1.236678 4.505155 3.425405 0
M  V30 42 H -1.193390 2.281354 2.202928 0
M  V30 43 H -0.316617 0.240687 0.079584 0
M  V30 44 H -0.571766 -0.120845 1.882404 0
M  V30 45 H -2.554825 -0.342916 -0.061854 0
M  V30 46 H -2.911789 0.126167 1.683333 0
M  V30 47 H -3.469879 1.838148 -0.522272 0
M  V30 48 H -3.273700 2.329327 1.218046 0
M  V30 49 H -1.665769 3.609139 0.158767 0
M  V30 50 H -1.042305 2.231335 -0.857933 0
M  V30 51 H 1.756542 -5.501462 -1.408754 0
M  V30 52 H -2.055484 -7.469041 -0.864323 0
M  V30 53 H -2.023232 -7.172373 0.876056 0
M  V30 54 H -3.419465 -5.107107 0.563645 0
M  V30 55 H -4.254305 -6.712799 0.159913 0
M  V30 56 H -4.638072 -5.084464 -1.634438 0
M  V30 57 H -2.755875 -4.077339 -2.773196 0
M  V30 58 H -2.902244 -3.656735 -1.019908 0
M  V30 59 H -0.573599 -4.233094 -1.770339 0
M  V30 60 H -1.158670 -5.811695 -2.347130 0
M  V30 END ATOM
M  V30 BEGIN BOND
M  V30 1 2 1 2
M  V30 2 1 2 3
M  V30 3 2 3 4
M  V30 4 1 4 5
M  V30 5 2 5 6
M  V30 6 1 6 7
M  V30 7 1 7 8
M  V30 8 2 8 9
M  V30 9 1 9 10
M  V30 10 2 10 11
M  V30 11 1 11 12
M  V30 12 2 12 13
M  V30 13 1 13 14
M  V30 14 2 14 15
M  V30 15 1 15 16
M  V30 16 1 16 17
M  V30 17 2 16 18
M  V30 18 1 18 19
M  V30 19 1 19 20
M  V30 20 1 20 21
M  V30 21 1 21 22
M  V30 22 1 22 23
M  V30 23 1 23 24
M  V30 24 1 19 25
M  V30 25 2 25 26
M  V30 26 1 6 27
M  V30 27 2 27 28
M  V30 28 1 2 29
M  V30 29 1 29 30
M  V30 30 1 30 31
M  V30 31 1 31 32
M  V30 32 1 32 33
M  V30 33 1 33 34
M  V30 34 1 28 3
M  V30 35 1 34 29
M  V30 36 1 26 8
M  V30 37 1 25 11
M  V30 38 1 18 12
M  V30 39 1 24 20
M  V30 40 1 4 35
M  V30 41 1 5 36
M  V30 42 1 7 37
M  V30 43 1 10 38
M  V30 44 1 13 39
M  V30 45 1 14 40
M  V30 46 1 17 41
M  V30 47 1 20 42
M  V30 48 1 21 43
M  V30 49 1 21 44
M  V30 50 1 22 45
M  V30 51 1 22 46
M  V30 52 1 23 47
M  V30 53 1 23 48
M  V30 54 1 24 49
M  V30 55 1 24 50
M  V30 56 1 28 51
M  V30 57 1 30 52
M  V30 58 1 30 53
M  V30 59 1 31 54
M  V30 60 1 31 55
M  V30 61 1 32 56
M  V30 62 1 33 57
M  V30 63 1 33 58
M  V30 64 1 34 59
M  V30 65 1 34 60
M  V30 END BOND
M  V30 END CTAB
M  END
>  <Dataset>  (559) 
ChEMBL_Kinases

>  <Ligand_Instance>  (559) 
nan

>  <PDB_ID>  (559) 
nan

>  <Standardized_SMILES>  (559) 
O=C(c1ccc(Nc2ncc3c4ccnc(O)c4n(C4CCCC4)c3n2)nc1)N1CCNCC1

>  <Name>  (559) 
nan

>  <Pocket>  (559) 
nan

>  <ATP_Site>  (559) 
nan

>  <Peripheral>  (559) 
nan

>  <Num_H_Atoms_ProtBoundConf>  (559) 
nan

>  <Num_Resolved_Atoms>  (559) 
nan

>  <Num_Not_Resolved_Atoms>  (559) 
nan

$$$$
CHEMBL7078
     RDKit          3D

  0  0  0  0  0  0  0  0  0  0999 V3000
M  V30 BEGIN CTAB
M  V30 COUNTS 71 72 0 0 0
M  V30 BEGIN ATOM
M  V30 1 C 1.225485 1.294145 5.102000 0
M  V30 2 C 2.640195 0.766468 5.252077 0
M  V30 3 C 3.076727 0.175077 3.904534 0
M  V30 4 C 4.466643 -0.325853 4.108376 0
M  V30 5 C 5.088441 -0.952966 2.888560 0
M  V30 6 C 4.321606 -2.139049 2.382568 0
M  V30 7 C 4.956371 -2.751323 1.164557 0
M  V30 8 C 5.047516 -1.775625 0.013811 0
M  V30 9 C 3.656478 -1.366144 -0.299947 0
M  V30 10 C 2.521728 -1.041778 -0.552962 0
M  V30 11 C 1.156825 -0.664993 -0.834807 0
M  V30 12 C 0.871720 0.697926 -0.902172 0
M  V30 13 C -0.409451 1.138568 -1.167228 0
M  V30 14 C -1.413177 0.190335 -1.366590 0
M  V30 15 C -1.143623 -1.183757 -1.302477 0
M  V30 16 C 0.148488 -1.587166 -1.035077 0
M  V30 17 O 0.515782 -2.896226 -0.950791 0
M  V30 18 C 0.522985 -3.697308 0.213274 0
M  V30 19 C -1.948849 -2.446211 -1.463759 0
M  V30 20 C -2.609345 -2.493435 -2.812094 0 CFG=1
M  V30 21 C -3.175151 -3.913843 -2.946174 0
M  V30 22 O -4.148901 -4.067959 -1.959854 0
M  V30 23 N -3.693076 -1.568721 -2.999680 0
M  V30 24 C -4.443842 -0.402495 -2.593681 0
M  V30 25 O -5.463308 -0.184864 -3.293531 0
M  V30 26 C -4.048901 0.468683 -1.447365 0 CFG=2
M  V30 27 C -4.985213 1.586269 -1.193042 0
M  V30 28 C -4.489789 2.389792 -0.011039 0
M  V30 29 C -6.327769 0.968531 -0.820726 0
M  V30 30 N -2.652167 0.885257 -1.627886 0
M  V30 31 C -2.353788 2.189223 -2.162639 0
M  V30 32 H 1.133618 1.672063 4.062764 0
M  V30 33 H 0.475325 0.501997 5.257035 0
M  V30 34 H 1.057454 2.079850 5.845026 0
M  V30 35 H 2.758751 0.064474 6.082338 0
M  V30 36 H 3.302546 1.649258 5.398752 0
M  V30 37 H 2.361751 -0.659621 3.710723 0
M  V30 38 H 3.008857 1.002850 3.176024 0
M  V30 39 H 4.429487 -1.040116 4.962439 0
M  V30 40 H 5.098845 0.511951 4.465560 0
M  V30 41 H 6.128740 -1.209642 3.170662 0
M  V30 42 H 5.139191 -0.197088 2.088712 0
M  V30 43 H 3.252443 -1.962842 2.270238 0
M  V30 44 H 4.422116 -2.922184 3.191431 0
M  V30 45 H 4.375821 -3.605040 0.813074 0
M  V30 46 H 5.974535 -3.105147 1.387331 0
M  V30 47 H 5.690140 -0.933637 0.267294 0
M  V30 48 H 5.439154 -2.241302 -0.899867 0
M  V30 49 H 1.590536 1.493367 -0.760291 0
M  V30 50 H -0.734803 2.164943 -1.237625 0
M  V30 51 H -0.117656 -3.262433 1.006060 0
M  V30 52 H 1.572589 -3.841193 0.513494 0
M  V30 53 H 0.144367 -4.701440 -0.068178 0
M  V30 54 H -2.664565 -2.569610 -0.642473 0
M  V30 55 H -1.239066 -3.287687 -1.430523 0
M  V30 56 H -1.813887 -2.387983 -3.587817 0
M  V30 57 H -2.382639 -4.665057 -2.847987 0
M  V30 58 H -3.702684 -4.034550 -3.925965 0
M  V30 59 H -3.956932 -4.863164 -1.397393 0
M  V30 60 H -4.161484 -1.950807 -3.879495 0
M  V30 61 H -4.082882 -0.169744 -0.541673 0
M  V30 62 H -5.197234 2.224237 -2.071894 0
M  V30 63 H -4.416468 3.476052 -0.213765 0
M  V30 64 H -3.511177 2.054643 0.380756 0
M  V30 65 H -5.189215 2.275461 0.864564 0
M  V30 66 H -6.681722 1.375047 0.162877 0
M  V30 67 H -7.120099 1.167916 -1.558230 0
M  V30 68 H -6.271903 -0.136025 -0.707311 0
M  V30 69 H -2.464785 3.049615 -1.520612 0
M  V30 70 H -1.629546 2.224524 -2.995658 0
M  V30 71 H -3.290881 2.338073 -2.807035 0
M  V30 END ATOM
M  V30 BEGIN BOND
M  V30 1 1 1 2
M  V30 2 1 2 3
M  V30 3 1 3 4
M  V30 4 1 4 5
M  V30 5 1 5 6
M  V30 6 1 6 7
M  V30 7 1 7 8
M  V30 8 1 8 9
M  V30 9 3 9 10
M  V30 10 1 10 11
M  V30 11 2 11 12
M  V30 12 1 12 13
M  V30 13 2 13 14
M  V30 14 1 14 15
M  V30 15 2 15 16
M  V30 16 1 16 17
M  V30 17 1 17 18
M  V30 18 1 15 19
M  V30 19 1 19 20
M  V30 20 1 20 21
M  V30 21 1 21 22
M  V30 22 1 20 23
M  V30 23 1 23 24
M  V30 24 2 24 25
M  V30 25 1 24 26
M  V30 26 1 26 27
M  V30 27 1 27 28
M  V30 28 1 27 29
M  V30 29 1 26 30
M  V30 30 1 30 31
M  V30 31 1 16 11
M  V30 32 1 30 14
M  V30 33 1 1 32
M  V30 34 1 1 33
M  V30 35 1 1 34
M  V30 36 1 2 35
M  V30 37 1 2 36
M  V30 38 1 3 37
M  V30 39 1 3 38
M  V30 40 1 4 39
M  V30 41 1 4 40
M  V30 42 1 5 41
M  V30 43 1 5 42
M  V30 44 1 6 43
M  V30 45 1 6 44
M  V30 46 1 7 45
M  V30 47 1 7 46
M  V30 48 1 8 47
M  V30 49 1 8 48
M  V30 50 1 12 49
M  V30 51 1 13 50
M  V30 52 1 18 51
M  V30 53 1 18 52
M  V30 54 1 18 53
M  V30 55 1 19 54
M  V30 56 1 19 55
M  V30 57 1 20 56 CFG=3
M  V30 58 1 21 57
M  V30 59 1 21 58
M  V30 60 1 22 59
M  V30 61 1 23 60
M  V30 62 1 26 61 CFG=1
M  V30 63 1 27 62
M  V30 64 1 28 63
M  V30 65 1 28 64
M  V30 66 1 28 65
M  V30 67 1 29 66
M  V30 68 1 29 67
M  V30 69 1 29 68
M  V30 70 1 31 69
M  V30 71 1 31 70
M  V30 72 1 31 71
M  V30 END BOND
M  V30 END CTAB
M  END
>  <Dataset>  (560) 
ChEMBL_Kinases

>  <Ligand_Instance>  (560) 
nan

>  <PDB_ID>  (560) 
nan

>  <Standardized_SMILES>  (560) 
CCCCCCCCC#Cc1ccc2c(c1OC)C[C@@H](CO)NC(=O)[C@H](C(C)C)N2C

>  <Name>  (560) 
nan

>  <Pocket>  (560) 
nan

>  <ATP_Site>  (560) 
nan

>  <Peripheral>  (560) 
nan

>  <Num_H_Atoms_ProtBoundConf>  (560) 
nan

>  <Num_Resolved_Atoms>  (560) 
nan

>  <Num_Not_Resolved_Atoms>  (560) 
nan

$$$$
CHEMBL4875029
     RDKit          3D

  0  0  0  0  0  0  0  0  0  0999 V3000
M  V30 BEGIN CTAB
M  V30 COUNTS 36 39 0 0 0
M  V30 BEGIN ATOM
M  V30 1 C 2.642973 -4.487772 1.824326 0
M  V30 2 S 2.618779 -3.413810 3.294229 0
M  V30 3 C 1.564022 -2.020471 2.973709 0
M  V30 4 N 1.456108 -1.135166 3.993877 0
M  V30 5 C 0.665313 -0.037793 3.828187 0
M  V30 6 C -0.015204 0.171686 2.643795 0
M  V30 7 C 0.115826 -0.759567 1.608837 0
M  V30 8 C -0.509402 -0.722771 0.300228 0
M  V30 9 C -0.296664 0.255235 -0.648673 0
M  V30 10 C 0.566500 1.448688 -0.593703 0
M  V30 11 C -0.195415 2.613137 -0.723619 0
M  V30 12 C 0.413704 3.864859 -0.699797 0
M  V30 13 C 1.784143 3.887962 -0.543777 0
M  V30 14 C 2.543376 2.744241 -0.414952 0
M  V30 15 C 1.919099 1.504155 -0.440932 0
M  V30 16 N -1.066039 -0.079370 -1.724031 0
M  V30 17 C -1.732037 -1.233723 -1.437924 0
M  V30 18 C -2.628516 -2.033717 -2.113702 0
M  V30 19 Cl -3.105238 -1.557504 -3.742520 0
M  V30 20 N -3.141184 -3.148542 -1.574970 0
M  V30 21 C -2.783510 -3.532677 -0.315461 0
M  V30 22 C -1.887243 -2.744413 0.376410 0
M  V30 23 N -1.381668 -1.627875 -0.179005 0
M  V30 24 N 0.903845 -1.838034 1.795313 0
M  V30 25 H 2.953729 -5.517962 2.083762 0
M  V30 26 H 3.225425 -4.043863 0.987191 0
M  V30 27 H 1.592266 -4.540671 1.452517 0
M  V30 28 H 0.523339 0.728582 4.605611 0
M  V30 29 H -0.657226 0.989387 2.405488 0
M  V30 30 H -1.281647 2.664047 -0.849859 0
M  V30 31 H -0.167536 4.790960 -0.800160 0
M  V30 32 H 2.281683 4.851820 -0.522230 0
M  V30 33 H 3.619601 2.729331 -0.291287 0
M  V30 34 H 2.387608 0.531446 -0.351665 0
M  V30 35 H -3.143036 -4.414552 0.203226 0
M  V30 36 H -1.572108 -3.012155 1.386544 0
M  V30 END ATOM
M  V30 BEGIN BOND
M  V30 1 1 1 2
M  V30 2 1 2 3
M  V30 3 2 3 4
M  V30 4 1 4 5
M  V30 5 2 5 6
M  V30 6 1 6 7
M  V30 7 1 7 8
M  V30 8 2 8 9
M  V30 9 1 9 10
M  V30 10 2 10 11
M  V30 11 1 11 12
M  V30 12 2 12 13
M  V30 13 1 13 14
M  V30 14 2 14 15
M  V30 15 1 9 16
M  V30 16 2 16 17
M  V30 17 1 17 18
M  V30 18 1 18 19
M  V30 19 2 18 20
M  V30 20 1 20 21
M  V30 21 2 21 22
M  V30 22 1 22 23
M  V30 23 2 7 24
M  V30 24 1 24 3
M  V30 25 1 23 8
M  V30 26 1 15 10
M  V30 27 1 23 17
M  V30 28 1 1 25
M  V30 29 1 1 26
M  V30 30 1 1 27
M  V30 31 1 5 28
M  V30 32 1 6 29
M  V30 33 1 11 30
M  V30 34 1 12 31
M  V30 35 1 13 32
M  V30 36 1 14 33
M  V30 37 1 15 34
M  V30 38 1 21 35
M  V30 39 1 22 36
M  V30 END BOND
M  V30 END CTAB
M  END
>  <Dataset>  (561) 
ChEMBL_Kinases

>  <Ligand_Instance>  (561) 
nan

>  <PDB_ID>  (561) 
nan

>  <Standardized_SMILES>  (561) 
CSc1nccc(-c2c(-c3ccccc3)nc3c(Cl)nccn23)n1

>  <Name>  (561) 
nan

>  <Pocket>  (561) 
nan

>  <ATP_Site>  (561) 
nan

>  <Peripheral>  (561) 
nan

>  <Num_H_Atoms_ProtBoundConf>  (561) 
nan

>  <Num_Resolved_Atoms>  (561) 
nan

>  <Num_Not_Resolved_Atoms>  (561) 
nan

$$$$
CHEMBL4875039
     RDKit          3D

  0  0  0  0  0  0  0  0  0  0999 V3000
M  V30 BEGIN CTAB
M  V30 COUNTS 68 72 0 0 0
M  V30 BEGIN ATOM
M  V30 1 C -2.841932 -1.330468 2.055569 0
M  V30 2 C -2.446511 -1.921091 3.324758 0
M  V30 3 C -1.030209 -1.415934 3.857493 0
M  V30 4 N -0.577732 -0.494090 2.835958 0
M  V30 5 C -0.989750 0.771448 2.834818 0
M  V30 6 O -1.752734 1.418357 3.594927 0
M  V30 7 C -0.357380 1.301640 1.716795 0
M  V30 8 C -0.453632 2.610683 1.214918 0
M  V30 9 N 0.227899 2.909679 0.089294 0
M  V30 10 C 0.985504 2.011070 -0.560687 0
M  V30 11 N 1.730924 2.132467 -1.791060 0
M  V30 12 C 0.681362 2.683947 -2.614246 0
M  V30 13 C 0.147553 3.942481 -2.462436 0
M  V30 14 C -0.927575 4.384173 -3.244786 0
M  V30 15 C -1.342661 3.433566 -4.127292 0
M  V30 16 C -0.869445 2.166968 -4.345505 0
M  V30 17 C 0.209051 1.774325 -3.536140 0
M  V30 18 C -1.640253 1.449078 -5.391686 0
M  V30 19 N -3.057032 1.425141 -5.000722 0
M  V30 20 C -3.081528 0.543613 -3.826217 0
M  V30 21 C -4.459116 0.356425 -3.264710 0
M  V30 22 O -4.375833 -0.482806 -2.167203 0
M  V30 23 C -3.545414 2.726203 -4.662826 0
M  V30 24 C -2.526452 3.834916 -4.974853 0
M  V30 25 N 0.984825 0.856690 0.005341 0
M  V30 26 C 0.403874 0.360231 1.084181 0
M  V30 27 N 0.245117 -0.787306 1.830580 0
M  V30 28 C 0.921236 -1.972151 1.435617 0
M  V30 29 C 0.050218 -2.953136 0.909717 0
M  V30 30 C 0.761774 -4.062917 0.520659 0
M  V30 31 C 2.058080 -4.426513 0.520554 0
M  V30 32 C 2.823201 -3.363385 1.067587 0
M  V30 33 C 4.299412 -3.455241 1.185494 0
M  V30 34 C 4.786261 -4.025048 2.481460 0
M  V30 35 C 4.893978 -4.215622 0.008098 0
M  V30 36 O 4.828378 -2.146876 1.098770 0
M  V30 37 N 2.260639 -2.192742 1.502990 0
M  V30 38 H -3.774001 -1.478225 1.424781 0
M  V30 39 H -2.365500 -1.528096 2.890609 0
M  V30 40 H -3.234370 -2.708037 3.683062 0
M  V30 41 H -0.462883 -2.325445 3.900687 0
M  V30 42 H -1.356740 -0.929559 4.778904 0
M  V30 43 H -1.040106 3.361257 1.685219 0
M  V30 44 H 2.727212 1.865792 -1.908729 0
M  V30 45 H 0.595576 4.560987 -1.722423 0
M  V30 46 H -1.339733 5.367915 -3.125409 0
M  V30 47 H 0.528108 0.768425 -3.771770 0
M  V30 48 H -1.283737 0.397823 -5.475072 0
M  V30 49 H -1.526341 1.978459 -6.343166 0
M  V30 50 H -2.729647 -0.460011 -4.189020 0
M  V30 51 H -2.371943 0.876616 -3.044514 0
M  V30 52 H -4.925754 1.332957 -2.987000 0
M  V30 53 H -5.103819 -0.150725 -4.027135 0
M  V30 54 H -3.701380 -1.191557 -2.347704 0
M  V30 55 H -4.536000 2.935972 -5.088486 0
M  V30 56 H -3.630128 2.778673 -3.536978 0
M  V30 57 H -2.252570 3.829402 -6.035181 0
M  V30 58 H -2.976639 4.787250 -4.641637 0
M  V30 59 H -1.012743 -2.953289 0.775184 0
M  V30 60 H 0.144928 -4.886094 0.091137 0
M  V30 61 H 2.509319 -5.324259 0.188634 0
M  V30 62 H 4.031768 -3.933035 3.282380 0
M  V30 63 H 5.682570 -3.458217 2.870289 0
M  V30 64 H 5.095163 -5.093815 2.420919 0
M  V30 65 H 4.298861 -3.984047 -0.903286 0
M  V30 66 H 4.947945 -5.270531 0.277446 0
M  V30 67 H 5.936744 -3.838761 -0.113656 0
M  V30 68 H 4.080810 -1.500743 0.921554 0
M  V30 END ATOM
M  V30 BEGIN BOND
M  V30 1 2 1 2
M  V30 2 1 2 3
M  V30 3 1 3 4
M  V30 4 1 4 5
M  V30 5 2 5 6
M  V30 6 1 5 7
M  V30 7 2 7 8
M  V30 8 1 8 9
M  V30 9 2 9 10
M  V30 10 1 10 11
M  V30 11 1 11 12
M  V30 12 2 12 13
M  V30 13 1 13 14
M  V30 14 2 14 15
M  V30 15 1 15 16
M  V30 16 2 16 17
M  V30 17 1 16 18
M  V30 18 1 18 19
M  V30 19 1 19 20
M  V30 20 1 20 21
M  V30 21 1 21 22
M  V30 22 1 19 23
M  V30 23 1 23 24
M  V30 24 1 10 25
M  V30 25 2 25 26
M  V30 26 1 26 27
M  V30 27 1 27 28
M  V30 28 2 28 29
M  V30 29 1 29 30
M  V30 30 2 30 31
M  V30 31 1 31 32
M  V30 32 1 32 33
M  V30 33 1 33 34
M  V30 34 1 33 35
M  V30 35 1 33 36
M  V30 36 2 32 37
M  V30 37 1 27 4
M  V30 38 1 37 28
M  V30 39 1 26 7
M  V30 40 1 17 12
M  V30 41 1 24 15
M  V30 42 1 1 38
M  V30 43 1 1 39
M  V30 44 1 2 40
M  V30 45 1 3 41
M  V30 46 1 3 42
M  V30 47 1 8 43
M  V30 48 1 11 44
M  V30 49 1 13 45
M  V30 50 1 14 46
M  V30 51 1 17 47
M  V30 52 1 18 48
M  V30 53 1 18 49
M  V30 54 1 20 50
M  V30 55 1 20 51
M  V30 56 1 21 52
M  V30 57 1 21 53
M  V30 58 1 22 54
M  V30 59 1 23 55
M  V30 60 1 23 56
M  V30 61 1 24 57
M  V30 62 1 24 58
M  V30 63 1 29 59
M  V30 64 1 30 60
M  V30 65 1 31 61
M  V30 66 1 34 62
M  V30 67 1 34 63
M  V30 68 1 34 64
M  V30 69 1 35 65
M  V30 70 1 35 66
M  V30 71 1 35 67
M  V30 72 1 36 68
M  V30 END BOND
M  V30 END CTAB
M  END
>  <Dataset>  (562) 
ChEMBL_Kinases

>  <Ligand_Instance>  (562) 
nan

>  <PDB_ID>  (562) 
nan

>  <Standardized_SMILES>  (562) 
C=CCn1c(=O)c2cnc(Nc3ccc4c(c3)CN(CCO)CC4)nc2n1-c1cccc(C(C)(C)O)n1

>  <Name>  (562) 
nan

>  <Pocket>  (562) 
nan

>  <ATP_Site>  (562) 
nan

>  <Peripheral>  (562) 
nan

>  <Num_H_Atoms_ProtBoundConf>  (562) 
nan

>  <Num_Resolved_Atoms>  (562) 
nan

>  <Num_Not_Resolved_Atoms>  (562) 
nan

$$$$
CHEMBL4875076
     RDKit          3D

  0  0  0  0  0  0  0  0  0  0999 V3000
M  V30 BEGIN CTAB
M  V30 COUNTS 60 64 0 0 0
M  V30 BEGIN ATOM
M  V30 1 C 4.959883 -5.325558 2.499311 0
M  V30 2 N 4.756664 -4.423527 1.409295 0
M  V30 3 C 4.176310 -3.162855 1.742441 0
M  V30 4 C 4.570935 -2.051466 0.787741 0
M  V30 5 N 4.603417 -2.532913 -0.580965 0
M  V30 6 C 3.856045 -2.190983 -1.762892 0
M  V30 7 O 4.014481 -2.723716 -2.913256 0
M  V30 8 C 2.816544 -1.147547 -1.678067 0
M  V30 9 C 3.296292 0.150500 -1.479004 0
M  V30 10 C 2.349518 1.157819 -1.395315 0
M  V30 11 C 1.000784 0.890450 -1.503423 0
M  V30 12 N 0.068660 1.887044 -1.414683 0
M  V30 13 C -1.263952 1.596840 -1.518960 0
M  V30 14 C -2.204022 2.734962 -1.422567 0
M  V30 15 C -2.645448 3.038769 -0.006027 0
M  V30 16 N -3.312439 2.006767 0.669277 0
M  V30 17 C -3.837392 0.914725 1.333466 0
M  V30 18 C -2.758066 0.017955 1.469001 0
M  V30 19 C -2.902956 -1.222988 2.102987 0
M  V30 20 N -4.121050 -1.511598 2.573386 0
M  V30 21 C -5.169016 -0.689608 2.465623 0
M  V30 22 C -6.447003 -0.912484 2.923679 0
M  V30 23 C -7.503239 -0.022268 2.787833 0
M  V30 24 C -7.265941 1.176737 2.148542 0
M  V30 25 C -8.346710 2.120746 1.994230 0
M  V30 26 N -9.203014 2.888336 1.858892 0
M  V30 27 C -6.012344 1.476512 1.660327 0
M  V30 28 C -5.048826 0.524150 1.851355 0
M  V30 29 C -1.676713 0.294481 -1.715131 0
M  V30 30 C -0.788916 -0.784361 -1.817315 0
M  V30 31 C 0.529183 -0.391608 -1.699672 0
M  V30 32 C 1.462848 -1.433418 -1.788748 0
M  V30 33 C 5.624310 -3.577632 -0.723712 0
M  V30 34 C 5.915827 -4.294123 0.552234 0
M  V30 35 H 5.105103 -4.835805 3.465727 0
M  V30 36 H 5.834743 -5.980682 2.232243 0
M  V30 37 H 4.068831 -6.017791 2.524749 0
M  V30 38 H 3.084493 -3.255809 1.771688 0
M  V30 39 H 4.504332 -2.842165 2.749664 0
M  V30 40 H 3.799563 -1.265989 0.930735 0
M  V30 41 H 5.528336 -1.573507 1.076655 0
M  V30 42 H 4.355981 0.346010 -1.396343 0
M  V30 43 H 2.670654 2.160888 -1.244169 0
M  V30 44 H -1.703404 3.628492 -1.835292 0
M  V30 45 H -3.069695 2.538328 -2.086103 0
M  V30 46 H -3.108359 4.029816 0.058495 0
M  V30 47 H -1.667216 3.205795 0.599705 0
M  V30 48 H -4.201411 2.529994 0.607829 0
M  V30 49 H -1.702646 0.079008 1.156530 0
M  V30 50 H -2.171505 -1.993848 2.272342 0
M  V30 51 H -6.605572 -1.866160 3.424088 0
M  V30 52 H -8.480251 -0.275951 3.177557 0
M  V30 53 H -5.915990 2.422114 1.182369 0
M  V30 54 H -2.735036 0.103247 -1.792074 0
M  V30 55 H -1.084984 -1.794735 -1.968312 0
M  V30 56 H 1.182294 -2.460308 -1.941241 0
M  V30 57 H 5.213928 -4.333260 -1.448170 0
M  V30 58 H 6.588770 -3.166214 -1.101342 0
M  V30 59 H 6.734100 -3.863811 1.147079 0
M  V30 60 H 6.236955 -5.340760 0.290578 0
M  V30 END ATOM
M  V30 BEGIN BOND
M  V30 1 1 1 2
M  V30 2 1 2 3
M  V30 3 1 3 4
M  V30 4 1 4 5
M  V30 5 1 5 6
M  V30 6 2 6 7
M  V30 7 1 6 8
M  V30 8 2 8 9
M  V30 9 1 9 10
M  V30 10 2 10 11
M  V30 11 1 11 12
M  V30 12 2 12 13
M  V30 13 1 13 14
M  V30 14 1 14 15
M  V30 15 1 15 16
M  V30 16 1 16 17
M  V30 17 2 17 18
M  V30 18 1 18 19
M  V30 19 2 19 20
M  V30 20 1 20 21
M  V30 21 2 21 22
M  V30 22 1 22 23
M  V30 23 2 23 24
M  V30 24 1 24 25
M  V30 25 3 25 26
M  V30 26 1 24 27
M  V30 27 2 27 28
M  V30 28 1 13 29
M  V30 29 2 29 30
M  V30 30 1 30 31
M  V30 31 2 31 32
M  V30 32 1 5 33
M  V30 33 1 33 34
M  V30 34 1 34 2
M  V30 35 1 32 8
M  V30 36 1 31 11
M  V30 37 1 28 17
M  V30 38 1 28 21
M  V30 39 1 1 35
M  V30 40 1 1 36
M  V30 41 1 1 37
M  V30 42 1 3 38
M  V30 43 1 3 39
M  V30 44 1 4 40
M  V30 45 1 4 41
M  V30 46 1 9 42
M  V30 47 1 10 43
M  V30 48 1 14 44
M  V30 49 1 14 45
M  V30 50 1 15 46
M  V30 51 1 15 47
M  V30 52 1 16 48
M  V30 53 1 18 49
M  V30 54 1 19 50
M  V30 55 1 22 51
M  V30 56 1 23 52
M  V30 57 1 27 53
M  V30 58 1 29 54
M  V30 59 1 30 55
M  V30 60 1 32 56
M  V30 61 1 33 57
M  V30 62 1 33 58
M  V30 63 1 34 59
M  V30 64 1 34 60
M  V30 END BOND
M  V30 END CTAB
M  END
>  <Dataset>  (563) 
ChEMBL_Kinases

>  <Ligand_Instance>  (563) 
nan

>  <PDB_ID>  (563) 
nan

>  <Standardized_SMILES>  (563) 
CN1CCN(C(=O)c2ccc3nc(CCNc4ccnc5ccc(C#N)cc45)ccc3c2)CC1

>  <Name>  (563) 
nan

>  <Pocket>  (563) 
nan

>  <ATP_Site>  (563) 
nan

>  <Peripheral>  (563) 
nan

>  <Num_H_Atoms_ProtBoundConf>  (563) 
nan

>  <Num_Resolved_Atoms>  (563) 
nan

>  <Num_Not_Resolved_Atoms>  (563) 
nan

$$$$
CHEMBL4875083
     RDKit          3D

  0  0  0  0  0  0  0  0  0  0999 V3000
M  V30 BEGIN CTAB
M  V30 COUNTS 54 58 0 0 0
M  V30 BEGIN ATOM
M  V30 1 C 2.907336 -4.086275 4.328826 0
M  V30 2 S 3.958882 -2.651744 4.279576 0
M  V30 3 O 3.928194 -1.968057 5.626616 0
M  V30 4 O 5.368908 -3.005346 3.976840 0
M  V30 5 C 3.315657 -1.606007 3.041480 0
M  V30 6 C 3.781490 -1.786459 1.750967 0
M  V30 7 C 3.264282 -0.949950 0.774730 0
M  V30 8 C 2.321347 0.030754 1.056811 0
M  V30 9 C 1.904320 0.802703 -0.108574 0
M  V30 10 C 2.785509 1.040388 -1.138461 0
M  V30 11 C 2.374393 1.769274 -2.229010 0
M  V30 12 C 1.077727 2.270322 -2.305419 0
M  V30 13 N 0.693395 2.983457 -3.375587 0
M  V30 14 C -0.540569 3.495539 -3.505025 0
M  V30 15 C -1.377218 3.224841 -2.444336 0
M  V30 16 C -1.054524 2.491826 -1.296689 0
M  V30 17 N -2.045036 2.310102 -0.295050 0
M  V30 18 C -2.707179 1.194314 0.283703 0
M  V30 19 C -3.563719 1.397170 1.345124 0
M  V30 20 C -4.166656 0.259882 1.834831 0
M  V30 21 N -3.966782 -0.981855 1.347053 0
M  V30 22 C -3.139518 -1.213110 0.314851 0
M  V30 23 C -2.983218 -2.574541 -0.144982 0
M  V30 24 C -3.710487 -3.555910 0.525003 0
M  V30 25 C -3.640102 -4.894551 0.172674 0
M  V30 26 F -4.354443 -5.822349 0.837727 0
M  V30 27 C -2.852474 -5.314719 -0.850280 0
M  V30 28 C -2.122699 -4.370814 -1.530643 0
M  V30 29 C -2.207575 -3.062230 -1.167030 0
M  V30 30 F -1.477112 -2.190241 -1.862067 0
M  V30 31 C -2.534982 -0.089466 -0.179607 0
M  V30 32 C 0.234313 2.005809 -1.250780 0
M  V30 33 C 0.610799 1.280376 -0.143044 0
M  V30 34 C 1.863469 0.201607 2.350627 0
M  V30 35 C 2.384896 -0.633895 3.304713 0
M  V30 36 H 3.259164 -4.774772 3.520628 0
M  V30 37 H 3.078545 -4.621729 5.278606 0
M  V30 38 H 1.848529 -3.827093 4.177483 0
M  V30 39 H 4.513885 -2.550723 1.541187 0
M  V30 40 H 3.663729 -1.131397 -0.232864 0
M  V30 41 H 3.791671 0.687905 -1.147176 0
M  V30 42 H 3.014623 1.982840 -3.053496 0
M  V30 43 H -0.918588 4.077130 -4.333893 0
M  V30 44 H -2.399972 3.622629 -2.502246 0
M  V30 45 H -2.273321 3.262843 0.028711 0
M  V30 46 H -3.745445 2.376812 1.759011 0
M  V30 47 H -4.856535 0.372038 2.679209 0
M  V30 48 H -4.370692 -3.335437 1.356399 0
M  V30 49 H -2.789677 -6.350108 -1.132556 0
M  V30 50 H -1.492571 -4.689308 -2.345542 0
M  V30 51 H -1.857842 -0.189914 -1.006454 0
M  V30 52 H -0.070495 1.092907 0.672034 0
M  V30 53 H 1.132507 0.979119 2.503322 0
M  V30 54 H 2.032819 -0.508037 4.320773 0
M  V30 END ATOM
M  V30 BEGIN BOND
M  V30 1 1 1 2
M  V30 2 2 2 3
M  V30 3 2 2 4
M  V30 4 1 2 5
M  V30 5 2 5 6
M  V30 6 1 6 7
M  V30 7 2 7 8
M  V30 8 1 8 9
M  V30 9 2 9 10
M  V30 10 1 10 11
M  V30 11 2 11 12
M  V30 12 1 12 13
M  V30 13 2 13 14
M  V30 14 1 14 15
M  V30 15 2 15 16
M  V30 16 1 16 17
M  V30 17 1 17 18
M  V30 18 2 18 19
M  V30 19 1 19 20
M  V30 20 2 20 21
M  V30 21 1 21 22
M  V30 22 1 22 23
M  V30 23 2 23 24
M  V30 24 1 24 25
M  V30 25 1 25 26
M  V30 26 2 25 27
M  V30 27 1 27 28
M  V30 28 2 28 29
M  V30 29 1 29 30
M  V30 30 2 22 31
M  V30 31 1 16 32
M  V30 32 2 32 33
M  V30 33 1 8 34
M  V30 34 2 34 35
M  V30 35 1 35 5
M  V30 36 1 33 9
M  V30 37 1 32 12
M  V30 38 1 31 18
M  V30 39 1 29 23
M  V30 40 1 1 36
M  V30 41 1 1 37
M  V30 42 1 1 38
M  V30 43 1 6 39
M  V30 44 1 7 40
M  V30 45 1 10 41
M  V30 46 1 11 42
M  V30 47 1 14 43
M  V30 48 1 15 44
M  V30 49 1 17 45
M  V30 50 1 19 46
M  V30 51 1 20 47
M  V30 52 1 24 48
M  V30 53 1 27 49
M  V30 54 1 28 50
M  V30 55 1 31 51
M  V30 56 1 33 52
M  V30 57 1 34 53
M  V30 58 1 35 54
M  V30 END BOND
M  V30 END CTAB
M  END
>  <Dataset>  (564) 
ChEMBL_Kinases

>  <Ligand_Instance>  (564) 
nan

>  <PDB_ID>  (564) 
nan

>  <Standardized_SMILES>  (564) 
CS(=O)(=O)c1ccc(-c2ccc3nccc(Nc4ccnc(-c5cc(F)ccc5F)c4)c3c2)cc1

>  <Name>  (564) 
nan

>  <Pocket>  (564) 
nan

>  <ATP_Site>  (564) 
nan

>  <Peripheral>  (564) 
nan

>  <Num_H_Atoms_ProtBoundConf>  (564) 
nan

>  <Num_Resolved_Atoms>  (564) 
nan

>  <Num_Not_Resolved_Atoms>  (564) 
nan

$$$$
CHEMBL3954219
     RDKit          3D

  0  0  0  0  0  0  0  0  0  0999 V3000
M  V30 BEGIN CTAB
M  V30 COUNTS 64 69 0 0 0
M  V30 BEGIN ATOM
M  V30 1 C 6.032665 -0.949837 5.486010 0
M  V30 2 O 6.071900 -0.029601 4.396225 0
M  V30 3 C 4.953029 0.261633 3.630529 0
M  V30 4 O 3.888539 -0.354576 3.974364 0
M  V30 5 N 4.990478 1.179084 2.543170 0
M  V30 6 C 3.780127 1.404680 1.820612 0
M  V30 7 N 2.610160 0.804720 2.108448 0
M  V30 8 C 1.641359 1.205818 1.261484 0
M  V30 9 C 0.299037 0.889172 1.141029 0
M  V30 10 C -0.406048 1.508502 0.127479 0
M  V30 11 C -1.830575 1.188023 -0.015560 0
M  V30 12 O -2.278467 0.319958 1.007131 0
M  V30 13 C -2.663512 2.415190 0.109073 0
M  V30 14 C -2.752619 3.397189 1.050662 0
M  V30 15 C -3.661261 4.440235 0.856511 0
M  V30 16 C -4.468774 4.493888 -0.269770 0
M  V30 17 C -4.394659 3.504130 -1.241749 0
M  V30 18 C -3.484355 2.492280 -1.010834 0
M  V30 19 C -3.215941 1.345989 -1.859353 0
M  V30 20 O -3.662402 0.930639 -2.964722 0
M  V30 21 N -2.209260 0.556355 -1.238205 0
M  V30 22 C -1.497827 -0.653115 -1.480032 0
M  V30 23 C -0.317894 -0.725561 -2.180656 0
M  V30 24 C 0.308854 -1.937641 -2.365764 0
M  V30 25 C -0.238019 -3.077406 -1.854085 0
M  V30 26 C -1.394806 -3.116752 -1.149071 0
M  V30 27 C -2.122252 -4.259457 -0.506158 0
M  V30 28 C -1.642943 -4.348363 0.917042 0
M  V30 29 C -0.351255 -5.103594 0.984977 0
M  V30 30 N -0.692260 -6.496167 0.650925 0
M  V30 31 C -0.921897 -6.481345 -0.777856 0
M  V30 32 C -1.986185 -5.539757 -1.217385 0
M  V30 33 C -1.984912 -1.861803 -0.993246 0
M  V30 34 C 0.135718 2.413568 -0.763983 0
M  V30 35 C 1.497535 2.698798 -0.598304 0
M  V30 36 C 2.260091 2.101300 0.410471 0
M  V30 37 N 3.558152 2.210397 0.763904 0
M  V30 38 H 6.246674 -1.986566 5.156985 0
M  V30 39 H 6.796764 -0.633232 6.210943 0
M  V30 40 H 5.041309 -0.902037 5.989259 0
M  V30 41 H 5.877077 1.666588 2.287920 0
M  V30 42 H -0.164635 0.197335 1.803717 0
M  V30 43 H -2.235144 0.795870 1.865279 0
M  V30 44 H -2.138533 3.395873 1.950191 0
M  V30 45 H -3.788580 5.252489 1.556459 0
M  V30 46 H -5.183549 5.295802 -0.443267 0
M  V30 47 H -5.013616 3.530574 -2.121450 0
M  V30 48 H 0.114337 0.168904 -2.585114 0
M  V30 49 H 1.240196 -2.029498 -2.913067 0
M  V30 50 H 0.252221 -4.022576 -2.012471 0
M  V30 51 H -3.233648 -3.996365 -0.489335 0
M  V30 52 H -2.386708 -4.960381 1.491249 0
M  V30 53 H -1.563418 -3.343587 1.393960 0
M  V30 54 H 0.114824 -5.060562 1.996440 0
M  V30 55 H 0.326610 -4.750101 0.205476 0
M  V30 56 H 0.152727 -7.039373 0.850697 0
M  V30 57 H -1.227274 -7.503666 -1.146383 0
M  V30 58 H 0.033097 -6.277862 -1.312726 0
M  V30 59 H -2.964830 -6.096843 -1.101527 0
M  V30 60 H -1.869054 -5.428871 -2.328115 0
M  V30 61 H -2.929580 -1.778038 -0.436172 0
M  V30 62 H -0.399677 2.896592 -1.548567 0
M  V30 63 H 1.983142 3.396896 -1.260281 0
M  V30 64 H 4.280216 2.800683 0.320300 0
M  V30 END ATOM
M  V30 BEGIN BOND
M  V30 1 1 1 2
M  V30 2 1 2 3
M  V30 3 2 3 4
M  V30 4 1 3 5
M  V30 5 1 5 6
M  V30 6 2 6 7
M  V30 7 1 7 8
M  V30 8 2 8 9
M  V30 9 1 9 10
M  V30 10 1 10 11
M  V30 11 1 11 12
M  V30 12 1 11 13
M  V30 13 2 13 14
M  V30 14 1 14 15
M  V30 15 2 15 16
M  V30 16 1 16 17
M  V30 17 2 17 18
M  V30 18 1 18 19
M  V30 19 2 19 20
M  V30 20 1 19 21
M  V30 21 1 21 22
M  V30 22 2 22 23
M  V30 23 1 23 24
M  V30 24 2 24 25
M  V30 25 1 25 26
M  V30 26 1 26 27
M  V30 27 1 27 28
M  V30 28 1 28 29
M  V30 29 1 29 30
M  V30 30 1 30 31
M  V30 31 1 31 32
M  V30 32 2 26 33
M  V30 33 2 10 34
M  V30 34 1 34 35
M  V30 35 2 35 36
M  V30 36 1 36 37
M  V30 37 1 37 6
M  V30 38 1 36 8
M  V30 39 1 21 11
M  V30 40 1 33 22
M  V30 41 1 18 13
M  V30 42 1 32 27
M  V30 43 1 1 38
M  V30 44 1 1 39
M  V30 45 1 1 40
M  V30 46 1 5 41
M  V30 47 1 9 42
M  V30 48 1 12 43
M  V30 49 1 14 44
M  V30 50 1 15 45
M  V30 51 1 16 46
M  V30 52 1 17 47
M  V30 53 1 23 48
M  V30 54 1 24 49
M  V30 55 1 25 50
M  V30 56 1 27 51
M  V30 57 1 28 52
M  V30 58 1 28 53
M  V30 59 1 29 54
M  V30 60 1 29 55
M  V30 61 1 30 56
M  V30 62 1 31 57
M  V30 63 1 31 58
M  V30 64 1 32 59
M  V30 65 1 32 60
M  V30 66 1 33 61
M  V30 67 1 34 62
M  V30 68 1 35 63
M  V30 69 1 37 64
M  V30 END BOND
M  V30 END CTAB
M  END
>  <Dataset>  (565) 
ChEMBL_Kinases

>  <Ligand_Instance>  (565) 
nan

>  <PDB_ID>  (565) 
nan

>  <Standardized_SMILES>  (565) 
COC(=O)Nc1nc2cc(C3(O)c4ccccc4C(=O)N3c3cccc(C4CCNCC4)c3)ccc2[nH]1

>  <Name>  (565) 
nan

>  <Pocket>  (565) 
nan

>  <ATP_Site>  (565) 
nan

>  <Peripheral>  (565) 
nan

>  <Num_H_Atoms_ProtBoundConf>  (565) 
nan

>  <Num_Resolved_Atoms>  (565) 
nan

>  <Num_Not_Resolved_Atoms>  (565) 
nan

$$$$
CHEMBL3954863
     RDKit          3D

  0  0  0  0  0  0  0  0  0  0999 V3000
M  V30 BEGIN CTAB
M  V30 COUNTS 64 65 0 0 0
M  V30 BEGIN ATOM
M  V30 1 C 2.183536 -2.271312 4.626110 0
M  V30 2 C 2.043348 -1.144172 3.694544 0 CFG=2
M  V30 3 C 2.983634 -0.054931 3.907440 0
M  V30 4 C 3.990663 0.000841 3.052698 0
M  V30 5 C 4.196313 -0.941724 1.967830 0
M  V30 6 O 5.219173 -0.195494 1.683576 0
M  V30 7 C 4.370721 -1.893476 0.904475 0 CFG=1
M  V30 8 O 3.581450 -3.024347 0.927581 0
M  V30 9 C 4.607431 -1.352235 -0.456135 0 CFG=1
M  V30 10 O 5.554572 -2.323684 -1.041964 0
M  V30 11 C 3.448807 -1.390068 -1.393945 0
M  V30 12 C 2.174113 -0.797366 -1.049029 0
M  V30 13 C 1.082389 -1.575988 -1.189428 0
M  V30 14 C -0.338402 -1.311516 -0.945544 0
M  V30 15 C -1.022202 -1.441455 -2.162399 0
M  V30 16 C -2.367936 -1.226660 -2.325382 0
M  V30 17 N -3.086797 -1.399402 -3.536566 0
M  V30 18 C -4.474193 -1.117064 -3.800721 0
M  V30 19 C -4.770927 0.318790 -4.124586 0
M  V30 20 N -4.396895 1.267537 -3.127343 0
M  V30 21 C -4.781100 2.629884 -3.503206 0
M  V30 22 C -4.317635 3.554725 -2.388416 0
M  V30 23 O -2.920804 3.450734 -2.254182 0
M  V30 24 C -3.143899 -0.856652 -1.256269 0
M  V30 25 C -2.512882 -0.717568 -0.043029 0
M  V30 26 O -2.989113 -0.353820 1.230587 0
M  V30 27 C -1.170038 -0.947816 0.057331 0
M  V30 28 C -0.509945 -0.845839 1.345601 0
M  V30 29 O -0.274191 0.374598 1.169281 0
M  V30 30 O -0.068788 -1.438934 2.557215 0
M  V30 31 C 0.643636 -0.601849 3.467129 0 CFG=1
M  V30 32 C -0.116180 -0.406329 4.765617 0
M  V30 33 H 2.542710 -1.970790 5.652451 0
M  V30 34 H 2.976832 -3.002042 4.291999 0
M  V30 35 H 1.230377 -2.824316 4.853265 0
M  V30 36 H 2.244564 -1.583562 2.608272 0
M  V30 37 H 2.539152 0.391419 4.753334 0
M  V30 38 H 4.368843 0.852928 3.526945 0
M  V30 39 H 5.427768 -2.408961 1.233637 0
M  V30 40 H 3.678930 -3.410609 1.847999 0
M  V30 41 H 5.116174 -0.396055 -0.482048 0
M  V30 42 H 5.966229 -1.809847 -1.779928 0
M  V30 43 H 3.274439 -2.488370 -1.664889 0
M  V30 44 H 3.838465 -0.935340 -2.374662 0
M  V30 45 H 2.150988 0.224088 -0.700511 0
M  V30 46 H 1.222000 -2.617327 -1.542198 0
M  V30 47 H -0.568368 -1.725931 -3.111764 0
M  V30 48 H -2.517179 -1.786848 -4.347135 0
M  V30 49 H -4.797458 -1.776433 -4.658881 0
M  V30 50 H -5.121121 -1.475133 -2.956214 0
M  V30 51 H -5.834688 0.428972 -4.451384 0
M  V30 52 H -4.174436 0.590909 -5.048075 0
M  V30 53 H -3.328415 1.320307 -3.063168 0
M  V30 54 H -4.258605 2.926176 -4.425663 0
M  V30 55 H -5.876763 2.724499 -3.584944 0
M  V30 56 H -4.569436 4.611341 -2.611939 0
M  V30 57 H -4.751415 3.292827 -1.407156 0
M  V30 58 H -2.637530 2.806998 -1.581957 0
M  V30 59 H -4.194407 -0.650462 -1.173248 0
M  V30 60 H -2.882157 -0.972870 2.021344 0
M  V30 61 H 0.735560 0.386792 3.018325 0
M  V30 62 H 0.204474 0.585149 5.193066 0
M  V30 63 H 0.263943 -1.148366 5.492749 0
M  V30 64 H -1.196182 -0.429240 4.623298 0
M  V30 END ATOM
M  V30 BEGIN BOND
M  V30 1 1 1 2
M  V30 2 1 2 3
M  V30 3 2 3 4
M  V30 4 1 4 5
M  V30 5 2 5 6
M  V30 6 1 5 7
M  V30 7 1 7 8
M  V30 8 1 7 9
M  V30 9 1 9 10
M  V30 10 1 9 11
M  V30 11 1 11 12
M  V30 12 2 12 13
M  V30 13 1 13 14
M  V30 14 2 14 15
M  V30 15 1 15 16
M  V30 16 1 16 17
M  V30 17 1 17 18
M  V30 18 1 18 19
M  V30 19 1 19 20
M  V30 20 1 20 21
M  V30 21 1 21 22
M  V30 22 1 22 23
M  V30 23 2 16 24
M  V30 24 1 24 25
M  V30 25 1 25 26
M  V30 26 2 25 27
M  V30 27 1 27 28
M  V30 28 2 28 29
M  V30 29 1 28 30
M  V30 30 1 30 31
M  V30 31 1 31 32
M  V30 32 1 31 2
M  V30 33 1 27 14
M  V30 34 1 1 33
M  V30 35 1 1 34
M  V30 36 1 1 35
M  V30 37 1 2 36 CFG=3
M  V30 38 1 3 37
M  V30 39 1 4 38
M  V30 40 1 7 39 CFG=1
M  V30 41 1 8 40
M  V30 42 1 9 41 CFG=1
M  V30 43 1 10 42
M  V30 44 1 11 43
M  V30 45 1 11 44
M  V30 46 1 12 45
M  V30 47 1 13 46
M  V30 48 1 15 47
M  V30 49 1 17 48
M  V30 50 1 18 49
M  V30 51 1 18 50
M  V30 52 1 19 51
M  V30 53 1 19 52
M  V30 54 1 20 53
M  V30 55 1 21 54
M  V30 56 1 21 55
M  V30 57 1 22 56
M  V30 58 1 22 57
M  V30 59 1 23 58
M  V30 60 1 24 59
M  V30 61 1 26 60
M  V30 62 1 31 61 CFG=3
M  V30 63 1 32 62
M  V30 64 1 32 63
M  V30 65 1 32 64
M  V30 END BOND
M  V30 END CTAB
M  END
>  <Dataset>  (566) 
ChEMBL_Kinases

>  <Ligand_Instance>  (566) 
nan

>  <PDB_ID>  (566) 
nan

>  <Standardized_SMILES>  (566) 
C[C@@H]1/C=C\C(=O)[C@@H](O)[C@@H](O)C/C=C/c2cc(NCCNCCO)cc(O)c2C(=O)O[C@H]1C

>  <Name>  (566) 
nan

>  <Pocket>  (566) 
nan

>  <ATP_Site>  (566) 
nan

>  <Peripheral>  (566) 
nan

>  <Num_H_Atoms_ProtBoundConf>  (566) 
nan

>  <Num_Resolved_Atoms>  (566) 
nan

>  <Num_Not_Resolved_Atoms>  (566) 
nan

$$$$
CHEMBL3954095
     RDKit          3D

  0  0  0  0  0  0  0  0  0  0999 V3000
M  V30 BEGIN CTAB
M  V30 COUNTS 50 53 0 0 0
M  V30 BEGIN ATOM
M  V30 1 C -4.859395 1.398526 0.026585 0
M  V30 2 N -4.822110 1.489675 -1.369705 0
M  V30 3 C -5.679891 0.713627 -2.163587 0
M  V30 4 C -5.285194 -0.706708 -2.322183 0
M  V30 5 C -4.484550 -1.208687 -3.322595 0
M  V30 6 C -4.202078 -2.561188 -3.336716 0
M  V30 7 C -4.697565 -3.419728 -2.380568 0
M  V30 8 C -5.504914 -2.915766 -1.371204 0
M  V30 9 C -5.789702 -1.568158 -1.352355 0
M  V30 10 S -3.543637 2.282910 -2.120102 0
M  V30 11 O -3.480206 3.688642 -1.600416 0
M  V30 12 O -3.817964 2.278792 -3.617665 0
M  V30 13 C -2.003950 1.518852 -1.782318 0
M  V30 14 C -1.307546 1.946901 -0.643698 0
M  V30 15 C -0.069232 1.446031 -0.228912 0
M  V30 16 C 0.493943 0.456670 -1.011734 0
M  V30 17 C 1.790643 -0.087080 -0.600088 0
M  V30 18 N 2.535172 -1.041647 -1.186259 0
M  V30 19 C 3.670417 -1.243926 -0.475232 0
M  V30 20 C 4.741043 -2.098026 -0.653822 0
M  V30 21 C 5.726772 -2.006155 0.306480 0
M  V30 22 C 6.882544 -2.883852 0.170716 0
M  V30 23 N 7.973693 -2.910274 1.076573 0
M  V30 24 O 7.090505 -3.727905 -0.738122 0
M  V30 25 C 5.737355 -1.162002 1.396528 0
M  V30 26 C 4.634496 -0.321453 1.530197 0
M  V30 27 C 3.606609 -0.359780 0.602457 0
M  V30 28 N 2.441098 0.336502 0.498164 0
M  V30 29 C -0.167886 0.013398 -2.140544 0
M  V30 30 C -1.392915 0.528851 -2.525476 0
M  V30 31 H -4.081358 0.672159 0.404115 0
M  V30 32 H -4.616747 2.340774 0.560504 0
M  V30 33 H -5.820484 0.985505 0.356659 0
M  V30 34 H -6.719694 0.788989 -1.737005 0
M  V30 35 H -5.680039 1.162465 -3.194975 0
M  V30 36 H -4.158311 -0.450251 -4.009877 0
M  V30 37 H -3.568182 -2.898295 -4.146294 0
M  V30 38 H -4.479440 -4.466191 -2.390866 0
M  V30 39 H -5.907798 -3.586589 -0.601495 0
M  V30 40 H -6.418862 -1.235562 -0.548412 0
M  V30 41 H -1.756075 2.734283 -0.020902 0
M  V30 42 H 0.369006 1.858413 0.670030 0
M  V30 43 H 4.807486 -2.789732 -1.482715 0
M  V30 44 H 8.931545 -2.544521 0.951454 0
M  V30 45 H 8.918902 -2.511196 0.862810 0
M  V30 46 H 6.557397 -1.159025 2.101204 0
M  V30 47 H 4.576359 0.366773 2.361989 0
M  V30 48 H 2.189041 1.061416 1.211110 0
M  V30 49 H 0.266173 -0.761767 -2.760171 0
M  V30 50 H -1.939784 0.209053 -3.400076 0
M  V30 END ATOM
M  V30 BEGIN BOND
M  V30 1 1 1 2
M  V30 2 1 2 3
M  V30 3 1 3 4
M  V30 4 2 4 5
M  V30 5 1 5 6
M  V30 6 2 6 7
M  V30 7 1 7 8
M  V30 8 2 8 9
M  V30 9 1 2 10
M  V30 10 2 10 11
M  V30 11 2 10 12
M  V30 12 1 10 13
M  V30 13 2 13 14
M  V30 14 1 14 15
M  V30 15 2 15 16
M  V30 16 1 16 17
M  V30 17 2 17 18
M  V30 18 1 18 19
M  V30 19 2 19 20
M  V30 20 1 20 21
M  V30 21 1 21 22
M  V30 22 1 22 23
M  V30 23 2 22 24
M  V30 24 2 21 25
M  V30 25 1 25 26
M  V30 26 2 26 27
M  V30 27 1 27 28
M  V30 28 1 16 29
M  V30 29 2 29 30
M  V30 30 1 9 4
M  V30 31 1 30 13
M  V30 32 1 28 17
M  V30 33 1 27 19
M  V30 34 1 1 31
M  V30 35 1 1 32
M  V30 36 1 1 33
M  V30 37 1 3 34
M  V30 38 1 3 35
M  V30 39 1 5 36
M  V30 40 1 6 37
M  V30 41 1 7 38
M  V30 42 1 8 39
M  V30 43 1 9 40
M  V30 44 1 14 41
M  V30 45 1 15 42
M  V30 46 1 20 43
M  V30 47 1 23 44
M  V30 48 1 23 45
M  V30 49 1 25 46
M  V30 50 1 26 47
M  V30 51 1 28 48
M  V30 52 1 29 49
M  V30 53 1 30 50
M  V30 END BOND
M  V30 END CTAB
M  END
>  <Dataset>  (567) 
ChEMBL_Kinases

>  <Ligand_Instance>  (567) 
nan

>  <PDB_ID>  (567) 
nan

>  <Standardized_SMILES>  (567) 
CN(Cc1ccccc1)S(=O)(=O)c1ccc(-c2nc3cc(C(N)=O)ccc3[nH]2)cc1

>  <Name>  (567) 
nan

>  <Pocket>  (567) 
nan

>  <ATP_Site>  (567) 
nan

>  <Peripheral>  (567) 
nan

>  <Num_H_Atoms_ProtBoundConf>  (567) 
nan

>  <Num_Resolved_Atoms>  (567) 
nan

>  <Num_Not_Resolved_Atoms>  (567) 
nan

$$$$
CHEMBL3953964
     RDKit          3D

  0  0  0  0  0  0  0  0  0  0999 V3000
M  V30 BEGIN CTAB
M  V30 COUNTS 49 52 0 0 0
M  V30 BEGIN ATOM
M  V30 1 C 3.779734 -2.460972 7.294499 0
M  V30 2 C 4.042676 -1.774471 6.028269 0
M  V30 3 C 4.267967 -1.215096 4.961501 0
M  V30 4 C 4.522385 -0.554580 3.703213 0
M  V30 5 O 5.356517 0.379917 3.614442 0
M  V30 6 N 3.765721 -1.043119 2.606013 0
M  V30 7 C 3.562991 -0.838125 1.210678 0
M  V30 8 C 4.347334 -1.550466 0.313903 0
M  V30 9 C 4.204279 -1.400830 -1.059093 0
M  V30 10 C 3.232336 -0.498813 -1.452050 0
M  V30 11 C 2.423810 0.236610 -0.614907 0
M  V30 12 C 1.439235 1.152557 -1.186570 0
M  V30 13 N 1.607651 2.025165 -2.189152 0
M  V30 14 N 0.495234 2.694220 -2.443945 0
M  V30 15 C -0.485733 2.296406 -1.612600 0
M  V30 16 C -1.831148 2.621409 -1.403116 0
M  V30 17 C -2.551605 1.969281 -0.407713 0
M  V30 18 C -1.980073 0.991537 0.400978 0
M  V30 19 N -2.720792 0.326088 1.419063 0
M  V30 20 S -4.321536 -0.318617 1.272403 0
M  V30 21 O -5.336121 0.727909 0.947237 0
M  V30 22 O -4.608594 -1.013031 2.571629 0
M  V30 23 C -4.259712 -1.559849 0.027569 0
M  V30 24 C -4.475117 -1.308150 -1.291489 0
M  V30 25 C -4.419097 -2.303514 -2.239813 0
M  V30 26 C -4.138236 -3.614038 -1.884124 0
M  V30 27 C -3.910861 -3.921788 -0.550175 0
M  V30 28 C -3.981144 -2.879654 0.352617 0
M  V30 29 C -0.647981 0.705280 0.155587 0
M  V30 30 C 0.117166 1.317154 -0.815282 0
M  V30 31 C 2.609848 0.047471 0.745346 0
M  V30 32 H 2.769552 -2.917465 7.322195 0
M  V30 33 H 4.556643 -3.246733 7.405892 0
M  V30 34 H 3.840255 -1.767307 8.159861 0
M  V30 35 H 3.075205 -1.821730 2.695909 0
M  V30 36 H 5.113360 -2.261802 0.656297 0
M  V30 37 H 4.798388 -1.939748 -1.789152 0
M  V30 38 H 3.101036 -0.363787 -2.531738 0
M  V30 39 H 0.324257 3.436356 -3.166562 0
M  V30 40 H -2.269223 3.384190 -2.037234 0
M  V30 41 H -3.593844 2.238978 -0.264607 0
M  V30 42 H -2.139391 0.277708 2.308100 0
M  V30 43 H -4.698081 -0.294291 -1.610693 0
M  V30 44 H -4.588186 -2.122587 -3.298365 0
M  V30 45 H -4.070236 -4.472242 -2.549193 0
M  V30 46 H -3.684670 -4.920395 -0.184821 0
M  V30 47 H -3.804839 -3.097508 1.415788 0
M  V30 48 H -0.234260 -0.065889 0.808755 0
M  V30 49 H 1.989799 0.610908 1.430247 0
M  V30 END ATOM
M  V30 BEGIN BOND
M  V30 1 1 1 2
M  V30 2 3 2 3
M  V30 3 1 3 4
M  V30 4 2 4 5
M  V30 5 1 4 6
M  V30 6 1 6 7
M  V30 7 2 7 8
M  V30 8 1 8 9
M  V30 9 2 9 10
M  V30 10 1 10 11
M  V30 11 1 11 12
M  V30 12 2 12 13
M  V30 13 1 13 14
M  V30 14 1 14 15
M  V30 15 2 15 16
M  V30 16 1 16 17
M  V30 17 2 17 18
M  V30 18 1 18 19
M  V30 19 1 19 20
M  V30 20 2 20 21
M  V30 21 2 20 22
M  V30 22 1 20 23
M  V30 23 2 23 24
M  V30 24 1 24 25
M  V30 25 2 25 26
M  V30 26 1 26 27
M  V30 27 2 27 28
M  V30 28 1 18 29
M  V30 29 2 29 30
M  V30 30 2 11 31
M  V30 31 1 31 7
M  V30 32 1 30 12
M  V30 33 1 30 15
M  V30 34 1 28 23
M  V30 35 1 1 32
M  V30 36 1 1 33
M  V30 37 1 1 34
M  V30 38 1 6 35
M  V30 39 1 8 36
M  V30 40 1 9 37
M  V30 41 1 10 38
M  V30 42 1 14 39
M  V30 43 1 16 40
M  V30 44 1 17 41
M  V30 45 1 19 42
M  V30 46 1 24 43
M  V30 47 1 25 44
M  V30 48 1 26 45
M  V30 49 1 27 46
M  V30 50 1 28 47
M  V30 51 1 29 48
M  V30 52 1 31 49
M  V30 END BOND
M  V30 END CTAB
M  END
>  <Dataset>  (568) 
ChEMBL_Kinases

>  <Ligand_Instance>  (568) 
nan

>  <PDB_ID>  (568) 
nan

>  <Standardized_SMILES>  (568) 
CC#CC(=O)Nc1cccc(-c2n[nH]c3ccc(NS(=O)(=O)c4ccccc4)cc23)c1

>  <Name>  (568) 
nan

>  <Pocket>  (568) 
nan

>  <ATP_Site>  (568) 
nan

>  <Peripheral>  (568) 
nan

>  <Num_H_Atoms_ProtBoundConf>  (568) 
nan

>  <Num_Resolved_Atoms>  (568) 
nan

>  <Num_Not_Resolved_Atoms>  (568) 
nan

$$$$
CHEMBL3953942
     RDKit          3D

  0  0  0  0  0  0  0  0  0  0999 V3000
M  V30 BEGIN CTAB
M  V30 COUNTS 58 62 0 0 0
M  V30 BEGIN ATOM
M  V30 1 C 2.024766 -2.463324 3.341793 0
M  V30 2 C 1.055901 -3.597297 3.151893 0
M  V30 3 O 0.643760 -3.755476 1.898685 0
M  V30 4 C -0.047935 -2.805963 1.200923 0
M  V30 5 C 0.619735 -1.579488 0.886565 0
M  V30 6 C 1.922108 -1.394849 0.407972 0
M  V30 7 C 2.589319 -0.241347 0.085079 0
M  V30 8 C 1.861995 0.917056 0.259888 0
M  V30 9 N 2.221591 2.192771 0.038609 0
M  V30 10 C 1.166091 2.964134 0.359345 0
M  V30 11 N 1.087509 4.395248 0.283358 0
M  V30 12 C -0.123138 5.077983 0.668871 0
M  V30 13 O -1.089953 4.390750 1.066491 0
M  V30 14 O -0.062019 6.442629 0.547583 0
M  V30 15 C -1.109510 7.341884 0.858938 0
M  V30 16 N 0.163443 2.168499 0.775220 0
M  V30 17 C 0.548853 0.876663 0.731653 0
M  V30 18 C -0.030283 -0.341797 1.027622 0
M  V30 19 C -1.353505 -2.486102 1.920421 0
M  V30 20 C -1.477825 -1.795486 3.136023 0
M  V30 21 C -2.691566 -1.531850 3.733555 0
M  V30 22 C -3.846492 -1.962576 3.115915 0
M  V30 23 C -3.732257 -2.640757 1.923297 0
M  V30 24 C -2.524435 -2.902254 1.331039 0
M  V30 25 C -2.054594 -3.578616 0.127726 0
M  V30 26 O -2.915232 -4.089906 -0.656760 0
M  V30 27 N -0.604925 -3.538518 0.048497 0
M  V30 28 C 0.000123 -4.208632 -1.073121 0
M  V30 29 C 0.164303 -3.402893 -2.295334 0
M  V30 30 C -0.859420 -3.262688 -3.234174 0
M  V30 31 C -0.763385 -2.547911 -4.387674 0
M  V30 32 C 0.407490 -1.894311 -4.702614 0
M  V30 33 C 1.457814 -1.985725 -3.829999 0
M  V30 34 C 1.297371 -2.724557 -2.679868 0
M  V30 35 H 2.420863 -2.526445 4.419288 0
M  V30 36 H 2.947167 -2.584433 2.748145 0
M  V30 37 H 1.608966 -1.466879 3.184750 0
M  V30 38 H 1.614241 -4.552945 3.459471 0
M  V30 39 H 0.240124 -3.564808 3.923915 0
M  V30 40 H 2.453442 -2.353579 0.290263 0
M  V30 41 H 3.588045 -0.307789 -0.266867 0
M  V30 42 H 3.147068 2.529047 -0.316275 0
M  V30 43 H 1.946772 4.917221 -0.063687 0
M  V30 44 H -1.663064 7.670522 -0.045825 0
M  V30 45 H -0.744768 8.225458 1.421496 0
M  V30 46 H -1.843375 6.829422 1.514751 0
M  V30 47 H -1.028707 -0.224941 1.367876 0
M  V30 48 H -0.682937 -1.387212 3.746219 0
M  V30 49 H -2.857164 -1.009709 4.661055 0
M  V30 50 H -4.856450 -1.823162 3.473234 0
M  V30 51 H -4.599432 -2.998580 1.399355 0
M  V30 52 H -0.593084 -5.107014 -1.328142 0
M  V30 53 H 1.013162 -4.600099 -0.836667 0
M  V30 54 H -1.819366 -3.727515 -3.106168 0
M  V30 55 H -1.558000 -2.441555 -5.112299 0
M  V30 56 H 0.513958 -1.322970 -5.604050 0
M  V30 57 H 2.384224 -1.478641 -4.062160 0
M  V30 58 H 2.167223 -2.766536 -2.047827 0
M  V30 END ATOM
M  V30 BEGIN BOND
M  V30 1 1 1 2
M  V30 2 1 2 3
M  V30 3 1 3 4
M  V30 4 1 4 5
M  V30 5 2 5 6
M  V30 6 1 6 7
M  V30 7 2 7 8
M  V30 8 1 8 9
M  V30 9 1 9 10
M  V30 10 1 10 11
M  V30 11 1 11 12
M  V30 12 2 12 13
M  V30 13 1 12 14
M  V30 14 1 14 15
M  V30 15 2 10 16
M  V30 16 1 16 17
M  V30 17 2 17 18
M  V30 18 1 4 19
M  V30 19 2 19 20
M  V30 20 1 20 21
M  V30 21 2 21 22
M  V30 22 1 22 23
M  V30 23 2 23 24
M  V30 24 1 24 25
M  V30 25 2 25 26
M  V30 26 1 25 27
M  V30 27 1 27 28
M  V30 28 1 28 29
M  V30 29 2 29 30
M  V30 30 1 30 31
M  V30 31 2 31 32
M  V30 32 1 32 33
M  V30 33 2 33 34
M  V30 34 1 27 4
M  V30 35 1 34 29
M  V30 36 1 18 5
M  V30 37 1 24 19
M  V30 38 1 17 8
M  V30 39 1 1 35
M  V30 40 1 1 36
M  V30 41 1 1 37
M  V30 42 1 2 38
M  V30 43 1 2 39
M  V30 44 1 6 40
M  V30 45 1 7 41
M  V30 46 1 9 42
M  V30 47 1 11 43
M  V30 48 1 15 44
M  V30 49 1 15 45
M  V30 50 1 15 46
M  V30 51 1 18 47
M  V30 52 1 20 48
M  V30 53 1 21 49
M  V30 54 1 22 50
M  V30 55 1 23 51
M  V30 56 1 28 52
M  V30 57 1 28 53
M  V30 58 1 30 54
M  V30 59 1 31 55
M  V30 60 1 32 56
M  V30 61 1 33 57
M  V30 62 1 34 58
M  V30 END BOND
M  V30 END CTAB
M  END
>  <Dataset>  (569) 
ChEMBL_Kinases

>  <Ligand_Instance>  (569) 
nan

>  <PDB_ID>  (569) 
nan

>  <Standardized_SMILES>  (569) 
CCOC1(c2ccc3[nH]c(NC(=O)OC)nc3c2)c2ccccc2C(=O)N1Cc1ccccc1

>  <Name>  (569) 
nan

>  <Pocket>  (569) 
nan

>  <ATP_Site>  (569) 
nan

>  <Peripheral>  (569) 
nan

>  <Num_H_Atoms_ProtBoundConf>  (569) 
nan

>  <Num_Resolved_Atoms>  (569) 
nan

>  <Num_Not_Resolved_Atoms>  (569) 
nan

$$$$
CHEMBL3953915
     RDKit          3D

  0  0  0  0  0  0  0  0  0  0999 V3000
M  V30 BEGIN CTAB
M  V30 COUNTS 40 43 0 0 0
M  V30 BEGIN ATOM
M  V30 1 N 2.117706 -7.685549 -0.696822 0
M  V30 2 C 0.824415 -7.285496 -1.130729 0
M  V30 3 O 0.291064 -8.330738 -1.525343 0
M  V30 4 C 0.327076 -5.920251 -1.081706 0
M  V30 5 C -0.955155 -5.711756 -1.545497 0
M  V30 6 C -1.391849 -4.389208 -1.480400 0
M  V30 7 C -0.581879 -3.388684 -0.985642 0
M  V30 8 N -0.737858 -2.055801 -0.809036 0
M  V30 9 C 0.370434 -1.505199 -0.277916 0
M  V30 10 C 0.529777 -0.076337 0.038971 0
M  V30 11 C -0.546197 0.742926 -0.235443 0
M  V30 12 C -0.344886 2.072811 0.080207 0
M  V30 13 C 0.801927 2.615846 0.625067 0
M  V30 14 O 0.888766 3.977211 0.901601 0
M  V30 15 C 0.492536 4.452113 2.163207 0
M  V30 16 C 1.269077 4.598127 3.295333 0
M  V30 17 C 0.703648 5.081062 4.443673 0
M  V30 18 C -0.645632 5.437961 4.520717 0
M  V30 19 F -1.129649 5.907818 5.692717 0
M  V30 20 C -1.402664 5.278594 3.360052 0
M  V30 21 Cl -3.094297 5.737997 3.496642 0
M  V30 22 C -0.849602 4.793182 2.193170 0
M  V30 23 C 1.831391 1.715879 0.866928 0
M  V30 24 C 1.718197 0.367769 0.582460 0
M  V30 25 N 1.252204 -2.509535 -0.112413 0
M  V30 26 C 0.705060 -3.672846 -0.533497 0
M  V30 27 C 1.193228 -4.982478 -0.576182 0
M  V30 28 H 2.646580 -7.432965 0.179798 0
M  V30 29 H 2.528144 -7.347811 0.221574 0
M  V30 30 H -1.553726 -6.528917 -1.924986 0
M  V30 31 H -2.387241 -4.170680 -1.830338 0
M  V30 32 H -1.643665 -1.601573 -1.081971 0
M  V30 33 H -1.477344 0.400302 -0.660325 0
M  V30 34 H -1.154350 2.792129 -0.107888 0
M  V30 35 H 2.289948 4.307570 3.168323 0
M  V30 36 H 1.391088 5.161324 5.281857 0
M  V30 37 H -1.535963 4.709171 1.343326 0
M  V30 38 H 2.735959 2.140561 1.296047 0
M  V30 39 H 2.550466 -0.315528 0.785884 0
M  V30 40 H 2.176746 -5.227444 -0.235594 0
M  V30 END ATOM
M  V30 BEGIN BOND
M  V30 1 1 1 2
M  V30 2 2 2 3
M  V30 3 1 2 4
M  V30 4 2 4 5
M  V30 5 1 5 6
M  V30 6 2 6 7
M  V30 7 1 7 8
M  V30 8 1 8 9
M  V30 9 1 9 10
M  V30 10 2 10 11
M  V30 11 1 11 12
M  V30 12 2 12 13
M  V30 13 1 13 14
M  V30 14 1 14 15
M  V30 15 2 15 16
M  V30 16 1 16 17
M  V30 17 2 17 18
M  V30 18 1 18 19
M  V30 19 1 18 20
M  V30 20 1 20 21
M  V30 21 2 20 22
M  V30 22 1 13 23
M  V30 23 2 23 24
M  V30 24 2 9 25
M  V30 25 1 25 26
M  V30 26 2 26 27
M  V30 27 1 27 4
M  V30 28 1 26 7
M  V30 29 1 24 10
M  V30 30 1 22 15
M  V30 31 1 1 28
M  V30 32 1 1 29
M  V30 33 1 5 30
M  V30 34 1 6 31
M  V30 35 1 8 32
M  V30 36 1 11 33
M  V30 37 1 12 34
M  V30 38 1 16 35
M  V30 39 1 17 36
M  V30 40 1 22 37
M  V30 41 1 23 38
M  V30 42 1 24 39
M  V30 43 1 27 40
M  V30 END BOND
M  V30 END CTAB
M  END
>  <Dataset>  (570) 
ChEMBL_Kinases

>  <Ligand_Instance>  (570) 
nan

>  <PDB_ID>  (570) 
nan

>  <Standardized_SMILES>  (570) 
NC(=O)c1ccc2[nH]c(-c3ccc(Oc4ccc(F)c(Cl)c4)cc3)nc2c1

>  <Name>  (570) 
nan

>  <Pocket>  (570) 
nan

>  <ATP_Site>  (570) 
nan

>  <Peripheral>  (570) 
nan

>  <Num_H_Atoms_ProtBoundConf>  (570) 
nan

>  <Num_Resolved_Atoms>  (570) 
nan

>  <Num_Not_Resolved_Atoms>  (570) 
nan

$$$$
CHEMBL4875131
     RDKit          3D

  0  0  0  0  0  0  0  0  0  0999 V3000
M  V30 BEGIN CTAB
M  V30 COUNTS 49 52 0 0 0
M  V30 BEGIN ATOM
M  V30 1 C -2.118418 -6.140450 -0.867983 0
M  V30 2 O -1.183422 -5.114739 -0.902576 0
M  V30 3 C -1.551248 -4.013342 -0.121455 0 CFG=1
M  V30 4 C -0.591375 -3.892745 1.004161 0
M  V30 5 C 0.385491 -2.775343 0.916188 0
M  V30 6 C 0.616256 -2.499220 -0.568765 0 CFG=2
M  V30 7 N 1.804361 -1.760528 -0.810289 0
M  V30 8 C 2.060402 -0.455912 -0.299814 0
M  V30 9 N 3.233954 0.131783 -0.601898 0
M  V30 10 C 3.562900 1.360990 -0.167184 0
M  V30 11 C 2.602479 1.966177 0.609954 0
M  V30 12 C 2.985405 3.294411 1.066434 0
M  V30 13 N 4.210745 3.951537 0.772963 0
M  V30 14 O 2.631138 4.292864 1.731442 0
M  V30 15 C 1.383425 1.424587 0.957250 0
M  V30 16 N 0.448821 2.117856 1.762002 0
M  V30 17 C -0.763246 1.809822 2.218244 0
M  V30 18 C -1.209484 0.700480 3.092294 0
M  V30 19 C -2.458952 1.521129 2.888128 0
M  V30 20 C -2.029296 1.617014 1.448829 0
M  V30 21 C -1.589513 2.697978 3.114278 0
M  V30 22 N 1.153670 0.179554 0.465154 0
M  V30 23 C -0.654338 -1.813195 -1.011870 0
M  V30 24 C -1.745548 -2.834522 -0.993515 0
M  V30 25 H -1.732082 -6.967628 -1.520302 0
M  V30 26 H -3.105684 -5.870643 -1.280190 0
M  V30 27 H -2.178462 -6.603379 0.156976 0
M  V30 28 H -2.531513 -4.299389 0.317435 0
M  V30 29 H -1.120552 -3.769089 1.994463 0
M  V30 30 H -0.022023 -4.836493 1.141905 0
M  V30 31 H 1.328853 -3.057700 1.425475 0
M  V30 32 H -0.066122 -1.858618 1.336094 0
M  V30 33 H 0.633131 -3.474043 -1.047221 0
M  V30 34 H 2.546106 -2.225679 -1.416170 0
M  V30 35 H 4.500225 1.787667 -0.429218 0
M  V30 36 H 4.476834 4.589109 -0.036176 0
M  V30 37 H 5.143973 3.963625 1.283919 0
M  V30 38 H 0.718057 3.071044 2.091045 0
M  V30 39 H -0.821050 0.705777 4.131573 0
M  V30 40 H -1.280704 -0.317209 2.690529 0
M  V30 41 H -3.386810 1.337467 3.224573 0
M  V30 42 H -2.142956 0.694486 0.856165 0
M  V30 43 H -2.429456 2.525346 0.969287 0
M  V30 44 H -1.905634 3.663919 2.677145 0
M  V30 45 H -1.177604 2.878237 4.119013 0
M  V30 46 H -0.557131 -1.340153 -2.002162 0
M  V30 47 H -0.915651 -0.999375 -0.304575 0
M  V30 48 H -1.869595 -3.170648 -2.062996 0
M  V30 49 H -2.695460 -2.300271 -0.772959 0
M  V30 END ATOM
M  V30 BEGIN BOND
M  V30 1 1 1 2
M  V30 2 1 2 3
M  V30 3 1 3 4
M  V30 4 1 4 5
M  V30 5 1 5 6
M  V30 6 1 6 7
M  V30 7 1 7 8
M  V30 8 2 8 9
M  V30 9 1 9 10
M  V30 10 2 10 11
M  V30 11 1 11 12
M  V30 12 1 12 13
M  V30 13 2 12 14
M  V30 14 1 11 15
M  V30 15 1 15 16
M  V30 16 1 16 17
M  V30 17 1 17 18
M  V30 18 1 18 19
M  V30 19 1 19 20
M  V30 20 1 19 21
M  V30 21 2 15 22
M  V30 22 1 6 23
M  V30 23 1 23 24
M  V30 24 1 24 3
M  V30 25 1 22 8
M  V30 26 1 20 17
M  V30 27 1 21 17
M  V30 28 1 1 25
M  V30 29 1 1 26
M  V30 30 1 1 27
M  V30 31 1 3 28 CFG=1
M  V30 32 1 4 29
M  V30 33 1 4 30
M  V30 34 1 5 31
M  V30 35 1 5 32
M  V30 36 1 6 33 CFG=3
M  V30 37 1 7 34
M  V30 38 1 10 35
M  V30 39 1 13 36
M  V30 40 1 13 37
M  V30 41 1 16 38
M  V30 42 1 18 39
M  V30 43 1 18 40
M  V30 44 1 19 41
M  V30 45 1 20 42
M  V30 46 1 20 43
M  V30 47 1 21 44
M  V30 48 1 21 45
M  V30 49 1 23 46
M  V30 50 1 23 47
M  V30 51 1 24 48
M  V30 52 1 24 49
M  V30 END BOND
M  V30 END CTAB
M  END
>  <Dataset>  (571) 
ChEMBL_Kinases

>  <Ligand_Instance>  (571) 
nan

>  <PDB_ID>  (571) 
nan

>  <Standardized_SMILES>  (571) 
CO[C@H]1CC[C@H](Nc2ncc(C(N)=O)c(NC34CC(C3)C4)n2)CC1

>  <Name>  (571) 
nan

>  <Pocket>  (571) 
nan

>  <ATP_Site>  (571) 
nan

>  <Peripheral>  (571) 
nan

>  <Num_H_Atoms_ProtBoundConf>  (571) 
nan

>  <Num_Resolved_Atoms>  (571) 
nan

>  <Num_Not_Resolved_Atoms>  (571) 
nan

$$$$
CHEMBL4875166
     RDKit          3D

  0  0  0  0  0  0  0  0  0  0999 V3000
M  V30 BEGIN CTAB
M  V30 COUNTS 54 57 0 0 0
M  V30 BEGIN ATOM
M  V30 1 C 6.021132 -2.553698 5.115771 0
M  V30 2 N 5.558484 -3.404078 4.021049 0
M  V30 3 C 4.448571 -2.924985 3.264492 0
M  V30 4 C 4.593532 -2.126583 2.129341 0
M  V30 5 C 3.432994 -1.751189 1.518227 0
M  V30 6 O 3.503856 -0.945522 0.367986 0
M  V30 7 C 2.356501 -0.532747 -0.295890 0
M  V30 8 C 1.851721 0.673885 0.164989 0
M  V30 9 C 2.463854 1.461325 1.259320 0
M  V30 10 C 0.703825 1.196446 -0.418685 0
M  V30 11 C 0.117882 0.472895 -1.444051 0
M  V30 12 N -1.073012 1.046924 -2.026128 0
M  V30 13 C -2.318618 0.657399 -1.410011 0
M  V30 14 O -2.207754 -0.147150 -0.426424 0
M  V30 15 N -3.641843 1.075078 -1.784344 0
M  V30 16 C -4.706663 0.520091 -0.982977 0
M  V30 17 C -5.363522 -0.664735 -1.259737 0
M  V30 18 C -6.373799 -1.056463 -0.375985 0
M  V30 19 C -6.680604 -0.274108 0.717377 0
M  V30 20 C -6.024128 0.908386 0.992475 0
M  V30 21 C -6.381561 1.727753 2.182010 0
M  V30 22 F -7.711598 1.652757 2.507528 0
M  V30 23 F -5.542994 1.353031 3.210026 0
M  V30 24 F -6.057028 3.036748 1.841096 0
M  V30 25 C -5.012515 1.305544 0.112047 0
M  V30 26 C 0.612904 -0.739617 -1.917477 0
M  V30 27 C -0.011845 -1.421424 -2.944888 0
M  V30 28 C 0.574097 -2.612553 -3.325967 0
M  V30 29 C 1.718108 -3.127860 -2.740237 0
M  V30 30 C 2.333679 -2.426502 -1.706202 0
M  V30 31 C 1.755693 -1.237879 -1.320256 0
M  V30 32 N 2.235370 -2.157126 2.024592 0
M  V30 33 C 2.138662 -2.919845 3.111642 0
M  V30 34 N 3.237825 -3.319472 3.753621 0
M  V30 35 H 5.286615 -1.785241 5.403087 0
M  V30 36 H 7.010448 -2.103552 4.865678 0
M  V30 37 H 6.201598 -3.204824 6.019143 0
M  V30 38 H 6.120528 -4.282403 3.932328 0
M  V30 39 H 5.573607 -1.859400 1.808143 0
M  V30 40 H 2.785388 2.427262 0.774843 0
M  V30 41 H 1.734949 1.767955 2.038587 0
M  V30 42 H 3.383647 1.016287 1.644242 0
M  V30 43 H 0.269737 2.133444 -0.096294 0
M  V30 44 H -1.192349 1.703694 -2.825951 0
M  V30 45 H -3.647739 1.721577 -2.583640 0
M  V30 46 H -5.047344 -1.203723 -2.141871 0
M  V30 47 H -6.862475 -1.987952 -0.627678 0
M  V30 48 H -7.486476 -0.649493 1.364735 0
M  V30 49 H -4.519793 2.237428 0.359117 0
M  V30 50 H -0.898734 -1.019482 -3.397177 0
M  V30 51 H 0.137646 -3.196909 -4.123078 0
M  V30 52 H 2.151140 -4.073567 -3.069930 0
M  V30 53 H 3.220352 -2.770305 -1.211399 0
M  V30 54 H 1.119008 -3.138973 3.361486 0
M  V30 END ATOM
M  V30 BEGIN BOND
M  V30 1 1 1 2
M  V30 2 1 2 3
M  V30 3 2 3 4
M  V30 4 1 4 5
M  V30 5 1 5 6
M  V30 6 1 6 7
M  V30 7 2 7 8
M  V30 8 1 8 9
M  V30 9 1 8 10
M  V30 10 2 10 11
M  V30 11 1 11 12
M  V30 12 1 12 13
M  V30 13 2 13 14
M  V30 14 1 13 15
M  V30 15 1 15 16
M  V30 16 2 16 17
M  V30 17 1 17 18
M  V30 18 2 18 19
M  V30 19 1 19 20
M  V30 20 1 20 21
M  V30 21 1 21 22
M  V30 22 1 21 23
M  V30 23 1 21 24
M  V30 24 2 20 25
M  V30 25 1 11 26
M  V30 26 2 26 27
M  V30 27 1 27 28
M  V30 28 2 28 29
M  V30 29 1 29 30
M  V30 30 2 30 31
M  V30 31 2 5 32
M  V30 32 1 32 33
M  V30 33 2 33 34
M  V30 34 1 34 3
M  V30 35 1 31 7
M  V30 36 1 25 16
M  V30 37 1 31 26
M  V30 38 1 1 35
M  V30 39 1 1 36
M  V30 40 1 1 37
M  V30 41 1 2 38
M  V30 42 1 4 39
M  V30 43 1 9 40
M  V30 44 1 9 41
M  V30 45 1 9 42
M  V30 46 1 10 43
M  V30 47 1 12 44
M  V30 48 1 15 45
M  V30 49 1 17 46
M  V30 50 1 18 47
M  V30 51 1 19 48
M  V30 52 1 25 49
M  V30 53 1 27 50
M  V30 54 1 28 51
M  V30 55 1 29 52
M  V30 56 1 30 53
M  V30 57 1 33 54
M  V30 END BOND
M  V30 END CTAB
M  END
>  <Dataset>  (572) 
ChEMBL_Kinases

>  <Ligand_Instance>  (572) 
nan

>  <PDB_ID>  (572) 
nan

>  <Standardized_SMILES>  (572) 
CNc1cc(Oc2c(C)cc(NC(=O)Nc3cccc(C(F)(F)F)c3)c3ccccc23)ncn1

>  <Name>  (572) 
nan

>  <Pocket>  (572) 
nan

>  <ATP_Site>  (572) 
nan

>  <Peripheral>  (572) 
nan

>  <Num_H_Atoms_ProtBoundConf>  (572) 
nan

>  <Num_Resolved_Atoms>  (572) 
nan

>  <Num_Not_Resolved_Atoms>  (572) 
nan

$$$$
CHEMBL4875220
     RDKit          3D

  0  0  0  0  0  0  0  0  0  0999 V3000
M  V30 BEGIN CTAB
M  V30 COUNTS 58 61 0 0 0
M  V30 BEGIN ATOM
M  V30 1 O 5.112584 -3.096492 -0.146315 0
M  V30 2 C 4.998015 -3.418540 1.081060 0
M  V30 3 O 5.068310 -4.791915 1.268541 0
M  V30 4 C 4.807158 -2.507853 2.259187 0
M  V30 5 C 4.771326 -1.099577 1.734065 0
M  V30 6 C 5.940452 -0.378200 1.626596 0
M  V30 7 C 5.891643 0.903316 1.146448 0
M  V30 8 C 4.660523 1.409251 0.792028 0
M  V30 9 C 3.462112 0.738288 0.876905 0
M  V30 10 N 2.193514 1.250916 0.514801 0
M  V30 11 C 1.891544 2.534623 0.002708 0
M  V30 12 C 0.577791 2.862276 -0.299558 0
M  V30 13 C 0.176161 4.077818 -0.800537 0
M  V30 14 O -1.162198 4.318754 -1.074526 0
M  V30 15 C -2.104507 3.301776 -0.832470 0
M  V30 16 C -2.803518 3.080445 0.335573 0
M  V30 17 C -3.692917 2.028302 0.393735 0
M  V30 18 C -3.849219 1.235092 -0.723525 0
M  V30 19 N -4.771779 0.129452 -0.687246 0
M  V30 20 C -4.141193 -1.060426 -0.247380 0
M  V30 21 O -2.922846 -0.956362 0.028852 0
M  V30 22 N -4.774884 -2.312056 -0.105175 0
M  V30 23 C -4.237650 -3.549523 0.323151 0
M  V30 24 C -5.072298 -4.642837 0.375954 0
M  V30 25 C -4.628296 -5.881731 0.781627 0
M  V30 26 C -3.319997 -6.094477 1.157896 0
M  V30 27 C -2.477602 -5.019840 1.111476 0
M  V30 28 C -1.052364 -5.209746 1.511597 0
M  V30 29 F -0.740995 -4.076955 2.273842 0
M  V30 30 F -0.861606 -6.359324 2.217274 0
M  V30 31 F -0.264439 -5.239048 0.391021 0
M  V30 32 C -2.943813 -3.795739 0.703800 0
M  V30 33 C -3.154139 1.442081 -1.909426 0
M  V30 34 C -2.277291 2.494410 -1.938854 0
M  V30 35 N 1.148438 5.000444 -1.003621 0
M  V30 36 C 2.436504 4.727248 -0.724868 0
M  V30 37 N 2.742931 3.535424 -0.245790 0
M  V30 38 C 3.585591 -0.544275 1.367602 0
M  V30 39 H 4.604309 -5.403143 0.583568 0
M  V30 40 H 5.737518 -2.600797 2.859459 0
M  V30 41 H 3.916093 -2.761334 2.846609 0
M  V30 42 H 6.876135 -0.827916 1.920099 0
M  V30 43 H 6.795492 1.483572 1.054984 0
M  V30 44 H 4.675245 2.419727 0.420598 0
M  V30 45 H 1.381501 0.595236 0.643660 0
M  V30 46 H -0.206265 2.130967 -0.140429 0
M  V30 47 H -2.589739 3.773223 1.136942 0
M  V30 48 H -4.232564 1.869148 1.317172 0
M  V30 49 H -5.802749 0.079354 -0.929765 0
M  V30 50 H -5.782496 -2.252369 -0.368492 0
M  V30 51 H -6.127858 -4.524134 0.084982 0
M  V30 52 H -5.356299 -6.680223 0.790551 0
M  V30 53 H -2.960934 -7.061748 1.477770 0
M  V30 54 H -2.231958 -3.011655 0.694131 0
M  V30 55 H -3.324727 0.788976 -2.734722 0
M  V30 56 H -1.761245 2.606815 -2.895643 0
M  V30 57 H 3.224691 5.461948 -0.884638 0
M  V30 58 H 2.699413 -1.158501 1.473976 0
M  V30 END ATOM
M  V30 BEGIN BOND
M  V30 1 2 1 2
M  V30 2 1 2 3
M  V30 3 1 2 4
M  V30 4 1 4 5
M  V30 5 2 5 6
M  V30 6 1 6 7
M  V30 7 2 7 8
M  V30 8 1 8 9
M  V30 9 1 9 10
M  V30 10 1 10 11
M  V30 11 2 11 12
M  V30 12 1 12 13
M  V30 13 1 13 14
M  V30 14 1 14 15
M  V30 15 2 15 16
M  V30 16 1 16 17
M  V30 17 2 17 18
M  V30 18 1 18 19
M  V30 19 1 19 20
M  V30 20 2 20 21
M  V30 21 1 20 22
M  V30 22 1 22 23
M  V30 23 2 23 24
M  V30 24 1 24 25
M  V30 25 2 25 26
M  V30 26 1 26 27
M  V30 27 1 27 28
M  V30 28 1 28 29
M  V30 29 1 28 30
M  V30 30 1 28 31
M  V30 31 2 27 32
M  V30 32 1 18 33
M  V30 33 2 33 34
M  V30 34 2 13 35
M  V30 35 1 35 36
M  V30 36 2 36 37
M  V30 37 2 9 38
M  V30 38 1 38 5
M  V30 39 1 37 11
M  V30 40 1 34 15
M  V30 41 1 32 23
M  V30 42 1 3 39
M  V30 43 1 4 40
M  V30 44 1 4 41
M  V30 45 1 6 42
M  V30 46 1 7 43
M  V30 47 1 8 44
M  V30 48 1 10 45
M  V30 49 1 12 46
M  V30 50 1 16 47
M  V30 51 1 17 48
M  V30 52 1 19 49
M  V30 53 1 22 50
M  V30 54 1 24 51
M  V30 55 1 25 52
M  V30 56 1 26 53
M  V30 57 1 32 54
M  V30 58 1 33 55
M  V30 59 1 34 56
M  V30 60 1 36 57
M  V30 61 1 38 58
M  V30 END BOND
M  V30 END CTAB
M  END
>  <Dataset>  (573) 
ChEMBL_Kinases

>  <Ligand_Instance>  (573) 
nan

>  <PDB_ID>  (573) 
nan

>  <Standardized_SMILES>  (573) 
O=C(O)Cc1cccc(Nc2cc(Oc3ccc(NC(=O)Nc4cccc(C(F)(F)F)c4)cc3)ncn2)c1

>  <Name>  (573) 
nan

>  <Pocket>  (573) 
nan

>  <ATP_Site>  (573) 
nan

>  <Peripheral>  (573) 
nan

>  <Num_H_Atoms_ProtBoundConf>  (573) 
nan

>  <Num_Resolved_Atoms>  (573) 
nan

>  <Num_Not_Resolved_Atoms>  (573) 
nan

$$$$
CHEMBL69863
     RDKit          3D

  0  0  0  0  0  0  0  0  0  0999 V3000
M  V30 BEGIN CTAB
M  V30 COUNTS 30 31 0 0 0
M  V30 BEGIN ATOM
M  V30 1 O -2.307987 -5.031896 1.762178 0
M  V30 2 C -1.320081 -4.172670 2.222202 0
M  V30 3 C -0.677111 -4.484406 3.408718 0
M  V30 4 C 0.303994 -3.626855 3.861247 0
M  V30 5 O 0.965316 -3.916418 5.049990 0
M  V30 6 C 0.640921 -2.489449 3.158099 0
M  V30 7 C 0.022477 -2.147542 1.974003 0
M  V30 8 C 0.385325 -0.942429 1.236949 0
M  V30 9 C -0.130865 -0.525003 0.114047 0
M  V30 10 C 0.225198 0.670057 -0.621940 0
M  V30 11 C -0.387837 1.019190 -1.806056 0
M  V30 12 C -0.052682 2.155898 -2.510965 0
M  V30 13 C 0.928148 3.011744 -2.057193 0
M  V30 14 O 1.196272 4.129999 -2.833898 0
M  V30 15 C 1.571535 2.705775 -0.876032 0
M  V30 16 O 2.553684 3.560934 -0.419778 0
M  V30 17 C 1.197053 1.560567 -0.215610 0
M  V30 18 C -0.948278 -3.022196 1.552883 0
M  V30 19 H -2.267696 -6.035485 1.874503 0
M  V30 20 H -0.899736 -5.361070 4.000772 0
M  V30 21 H 1.249139 -3.125678 5.625898 0
M  V30 22 H 1.426528 -1.861391 3.580165 0
M  V30 23 H 1.169497 -0.318378 1.661261 0
M  V30 24 H -0.913009 -1.150053 -0.306532 0
M  V30 25 H -1.173120 0.343768 -2.179333 0
M  V30 26 H -0.616024 2.313821 -3.433144 0
M  V30 27 H 2.189405 4.244660 -3.088748 0
M  V30 28 H 2.618838 3.946093 0.497722 0
M  V30 29 H 1.740364 1.380735 0.701815 0
M  V30 30 H -1.486395 -2.849465 0.649684 0
M  V30 END ATOM
M  V30 BEGIN BOND
M  V30 1 1 1 2
M  V30 2 2 2 3
M  V30 3 1 3 4
M  V30 4 1 4 5
M  V30 5 2 4 6
M  V30 6 1 6 7
M  V30 7 1 7 8
M  V30 8 2 8 9
M  V30 9 1 9 10
M  V30 10 2 10 11
M  V30 11 1 11 12
M  V30 12 2 12 13
M  V30 13 1 13 14
M  V30 14 1 13 15
M  V30 15 1 15 16
M  V30 16 2 15 17
M  V30 17 2 7 18
M  V30 18 1 18 2
M  V30 19 1 17 10
M  V30 20 1 1 19
M  V30 21 1 3 20
M  V30 22 1 5 21
M  V30 23 1 6 22
M  V30 24 1 8 23
M  V30 25 1 9 24
M  V30 26 1 11 25
M  V30 27 1 12 26
M  V30 28 1 14 27
M  V30 29 1 16 28
M  V30 30 1 17 29
M  V30 31 1 18 30
M  V30 END BOND
M  V30 END CTAB
M  END
>  <Dataset>  (574) 
ChEMBL_Kinases

>  <Ligand_Instance>  (574) 
nan

>  <PDB_ID>  (574) 
nan

>  <Standardized_SMILES>  (574) 
Oc1cc(O)cc(/C=C/c2ccc(O)c(O)c2)c1

>  <Name>  (574) 
PICEATANNOL

>  <Pocket>  (574) 
nan

>  <ATP_Site>  (574) 
nan

>  <Peripheral>  (574) 
nan

>  <Num_H_Atoms_ProtBoundConf>  (574) 
nan

>  <Num_Resolved_Atoms>  (574) 
nan

>  <Num_Not_Resolved_Atoms>  (574) 
nan

$$$$
CHEMBL3953620
     RDKit          3D

  0  0  0  0  0  0  0  0  0  0999 V3000
M  V30 BEGIN CTAB
M  V30 COUNTS 48 51 0 0 0
M  V30 BEGIN ATOM
M  V30 1 N -1.103475 -8.118483 -2.748984 0
M  V30 2 C 0.308172 -7.881730 -2.678140 0
M  V30 3 O 1.212818 -8.680387 -2.951272 0
M  V30 4 C 0.729924 -6.555704 -2.236305 0
M  V30 5 C 2.076619 -6.234659 -2.137781 0
M  V30 6 C 2.580524 -5.014656 -1.732833 0
M  V30 7 C 1.660855 -4.041176 -1.400964 0
M  V30 8 N 1.843346 -2.758958 -0.973161 0
M  V30 9 C 0.619015 -2.229450 -0.787921 0
M  V30 10 C 0.384092 -0.859858 -0.327957 0
M  V30 11 C 1.469725 -0.047948 -0.063926 0
M  V30 12 C 1.201957 1.238018 0.368806 0
M  V30 13 C -0.075727 1.761089 0.553351 0
M  V30 14 C -0.167938 3.168689 1.022765 0
M  V30 15 C -0.179276 3.282716 2.532190 0
M  V30 16 C -0.271468 4.710133 2.945920 0
M  V30 17 C -1.086465 4.952565 4.191141 0
M  V30 18 C -0.781016 3.797908 5.124063 0
M  V30 19 C -1.532617 2.616457 4.553051 0
M  V30 20 C -1.198792 2.366775 3.109402 0
M  V30 21 C -1.126593 0.909394 0.275552 0
M  V30 22 C -0.901779 -0.381977 -0.158669 0
M  V30 23 N -0.303446 -3.155476 -1.091678 0
M  V30 24 C 0.286578 -4.301986 -1.479182 0
M  V30 25 C -0.164833 -5.557518 -1.896330 0
M  V30 26 H -1.619968 -8.695968 -3.452029 0
M  V30 27 H -1.599066 -8.701238 -3.463093 0
M  V30 28 H 2.815551 -7.001597 -2.399638 0
M  V30 29 H 3.655605 -4.858794 -1.687765 0
M  V30 30 H 2.789786 -2.306402 -0.827967 0
M  V30 31 H 2.491069 -0.383191 -0.183564 0
M  V30 32 H 2.074023 1.857315 0.570090 0
M  V30 33 H 0.713196 3.722819 0.640857 0
M  V30 34 H -1.119551 3.567432 0.608267 0
M  V30 35 H 0.813384 2.914467 2.869096 0
M  V30 36 H 0.731239 5.153679 3.123639 0
M  V30 37 H -0.736463 5.322142 2.138352 0
M  V30 38 H -2.184113 4.924962 4.018991 0
M  V30 39 H -0.746352 5.875396 4.664191 0
M  V30 40 H 0.323594 3.594571 5.142459 0
M  V30 41 H -1.122585 3.975502 6.142050 0
M  V30 42 H -2.607957 2.853414 4.689635 0
M  V30 43 H -1.318426 1.758703 5.224087 0
M  V30 44 H -2.144391 2.424980 2.531736 0
M  V30 45 H -0.860258 1.311999 3.039140 0
M  V30 46 H -2.107576 1.312399 0.416228 0
M  V30 47 H -1.747378 -1.027959 -0.369018 0
M  V30 48 H -1.229539 -5.745620 -1.952154 0
M  V30 END ATOM
M  V30 BEGIN BOND
M  V30 1 1 1 2
M  V30 2 2 2 3
M  V30 3 1 2 4
M  V30 4 2 4 5
M  V30 5 1 5 6
M  V30 6 2 6 7
M  V30 7 1 7 8
M  V30 8 1 8 9
M  V30 9 1 9 10
M  V30 10 2 10 11
M  V30 11 1 11 12
M  V30 12 2 12 13
M  V30 13 1 13 14
M  V30 14 1 14 15
M  V30 15 1 15 16
M  V30 16 1 16 17
M  V30 17 1 17 18
M  V30 18 1 18 19
M  V30 19 1 19 20
M  V30 20 1 13 21
M  V30 21 2 21 22
M  V30 22 2 9 23
M  V30 23 1 23 24
M  V30 24 2 24 25
M  V30 25 1 25 4
M  V30 26 1 24 7
M  V30 27 1 22 10
M  V30 28 1 20 15
M  V30 29 1 1 26
M  V30 30 1 1 27
M  V30 31 1 5 28
M  V30 32 1 6 29
M  V30 33 1 8 30
M  V30 34 1 11 31
M  V30 35 1 12 32
M  V30 36 1 14 33
M  V30 37 1 14 34
M  V30 38 1 15 35
M  V30 39 1 16 36
M  V30 40 1 16 37
M  V30 41 1 17 38
M  V30 42 1 17 39
M  V30 43 1 18 40
M  V30 44 1 18 41
M  V30 45 1 19 42
M  V30 46 1 19 43
M  V30 47 1 20 44
M  V30 48 1 20 45
M  V30 49 1 21 46
M  V30 50 1 22 47
M  V30 51 1 25 48
M  V30 END BOND
M  V30 END CTAB
M  END
>  <Dataset>  (575) 
ChEMBL_Kinases

>  <Ligand_Instance>  (575) 
nan

>  <PDB_ID>  (575) 
nan

>  <Standardized_SMILES>  (575) 
NC(=O)c1ccc2[nH]c(-c3ccc(CC4CCCCC4)cc3)nc2c1

>  <Name>  (575) 
nan

>  <Pocket>  (575) 
nan

>  <ATP_Site>  (575) 
nan

>  <Peripheral>  (575) 
nan

>  <Num_H_Atoms_ProtBoundConf>  (575) 
nan

>  <Num_Resolved_Atoms>  (575) 
nan

>  <Num_Not_Resolved_Atoms>  (575) 
nan

$$$$
CHEMBL3953259
     RDKit          3D

  0  0  0  0  0  0  0  0  0  0999 V3000
M  V30 BEGIN CTAB
M  V30 COUNTS 45 48 0 0 0
M  V30 BEGIN ATOM
M  V30 1 C 3.610891 -2.036155 1.883212 0
M  V30 2 C 3.636161 -1.686915 0.391833 0
M  V30 3 C 2.482364 -2.276985 -0.340846 0
M  V30 4 C 2.578992 -1.888176 -1.797376 0
M  V30 5 O 2.547858 -0.509704 -1.925390 0
M  V30 6 N 3.869543 -0.289265 0.152310 0
M  V30 7 C 4.740275 0.472148 -0.574669 0
M  V30 8 N 4.468702 1.763132 -0.403987 0
M  V30 9 N 3.440418 1.838746 0.418806 0
M  V30 10 C 3.051241 0.579078 0.777496 0
M  V30 11 C 1.915504 0.562307 1.691118 0
M  V30 12 C 2.223597 0.762171 3.041766 0
M  V30 13 C 1.153904 0.747825 3.912395 0
M  V30 14 C -0.123351 0.545046 3.432971 0
M  V30 15 C -0.417419 0.349178 2.101342 0
M  V30 16 N -1.733633 0.140255 1.605284 0
M  V30 17 C -2.041255 -0.068425 0.202411 0
M  V30 18 C -3.518324 -0.232238 0.200011 0
M  V30 19 C -4.307486 -0.456571 -0.910302 0
M  V30 20 C -5.693690 -0.593339 -0.771594 0
M  V30 21 C -6.188356 -0.490140 0.512132 0
M  V30 22 C -5.423533 -0.266282 1.640256 0
M  V30 23 C -4.059583 -0.136315 1.466153 0
M  V30 24 C -2.931055 0.101000 2.369682 0
M  V30 25 O -3.113976 0.230535 3.584859 0
M  V30 26 N 0.647010 0.369737 1.286695 0
M  V30 27 H 4.018060 -3.055879 2.072931 0
M  V30 28 H 4.302902 -1.328787 2.395261 0
M  V30 29 H 2.577500 -2.015817 2.277388 0
M  V30 30 H 4.536972 -2.263699 0.022740 0
M  V30 31 H 2.579396 -3.396931 -0.267165 0
M  V30 32 H 1.482454 -1.968728 -0.002804 0
M  V30 33 H 3.444226 -2.335894 -2.319060 0
M  V30 34 H 1.643574 -2.266805 -2.288426 0
M  V30 35 H 2.965194 -0.191594 -2.775946 0
M  V30 36 H 5.486695 -0.060857 -1.154409 0
M  V30 37 H 3.239928 0.916464 3.362901 0
M  V30 38 H 1.349487 0.899114 4.971317 0
M  V30 39 H -0.891402 0.547510 4.164259 0
M  V30 40 H -1.622031 -1.052595 -0.092970 0
M  V30 41 H -1.695744 0.750774 -0.456502 0
M  V30 42 H -3.910617 -0.536905 -1.918415 0
M  V30 43 H -6.392420 -0.770236 -1.578143 0
M  V30 44 H -7.253992 -0.581720 0.728073 0
M  V30 45 H -5.846146 -0.191070 2.632548 0
M  V30 END ATOM
M  V30 BEGIN BOND
M  V30 1 1 1 2
M  V30 2 1 2 3
M  V30 3 1 3 4
M  V30 4 1 4 5
M  V30 5 1 2 6
M  V30 6 1 6 7
M  V30 7 2 7 8
M  V30 8 1 8 9
M  V30 9 2 9 10
M  V30 10 1 10 11
M  V30 11 2 11 12
M  V30 12 1 12 13
M  V30 13 2 13 14
M  V30 14 1 14 15
M  V30 15 1 15 16
M  V30 16 1 16 17
M  V30 17 1 17 18
M  V30 18 2 18 19
M  V30 19 1 19 20
M  V30 20 2 20 21
M  V30 21 1 21 22
M  V30 22 2 22 23
M  V30 23 1 23 24
M  V30 24 2 24 25
M  V30 25 2 15 26
M  V30 26 1 10 6
M  V30 27 1 26 11
M  V30 28 1 24 16
M  V30 29 1 23 18
M  V30 30 1 1 27
M  V30 31 1 1 28
M  V30 32 1 1 29
M  V30 33 1 2 30
M  V30 34 1 3 31
M  V30 35 1 3 32
M  V30 36 1 4 33
M  V30 37 1 4 34
M  V30 38 1 5 35
M  V30 39 1 7 36
M  V30 40 1 12 37
M  V30 41 1 13 38
M  V30 42 1 14 39
M  V30 43 1 17 40
M  V30 44 1 17 41
M  V30 45 1 19 42
M  V30 46 1 20 43
M  V30 47 1 21 44
M  V30 48 1 22 45
M  V30 END BOND
M  V30 END CTAB
M  END
>  <Dataset>  (576) 
ChEMBL_Kinases

>  <Ligand_Instance>  (576) 
nan

>  <PDB_ID>  (576) 
nan

>  <Standardized_SMILES>  (576) 
CC(CCO)n1cnnc1-c1cccc(N2Cc3ccccc3C2=O)n1

>  <Name>  (576) 
nan

>  <Pocket>  (576) 
nan

>  <ATP_Site>  (576) 
nan

>  <Peripheral>  (576) 
nan

>  <Num_H_Atoms_ProtBoundConf>  (576) 
nan

>  <Num_Resolved_Atoms>  (576) 
nan

>  <Num_Not_Resolved_Atoms>  (576) 
nan

$$$$
CHEMBL3953093
     RDKit          3D

  0  0  0  0  0  0  0  0  0  0999 V3000
M  V30 BEGIN CTAB
M  V30 COUNTS 134 138 0 0 0
M  V30 BEGIN ATOM
M  V30 1 C 7.318404 1.838279 -2.504722 0
M  V30 2 C 6.037839 2.602204 -2.339561 0
M  V30 3 O 5.242133 1.764349 -1.777871 0
M  V30 4 N 5.848083 3.957453 -2.748869 0
M  V30 5 C 6.646966 5.001344 -3.374281 0
M  V30 6 C 5.831992 6.264195 -3.223100 0
M  V30 7 C 4.408556 5.800496 -3.083102 0
M  V30 8 C 4.493985 4.426657 -2.457304 0 CFG=1
M  V30 9 C 3.487795 3.574175 -3.100194 0
M  V30 10 O 4.375117 3.087755 -3.837553 0
M  V30 11 N 2.106048 3.411047 -2.918337 0
M  V30 12 C 1.144379 2.561679 -3.581461 0 CFG=1
M  V30 13 C 1.683081 2.079483 -4.960781 0
M  V30 14 C 1.861304 3.311349 -5.819559 0
M  V30 15 C 0.543466 4.055880 -6.033964 0
M  V30 16 C 2.442416 2.947600 -7.170743 0
M  V30 17 C 0.713565 1.483015 -2.733721 0
M  V30 18 O 1.612920 2.106967 -2.056954 0
M  V30 19 N -0.114025 0.361031 -2.536149 0
M  V30 20 C -0.049423 -0.403669 -1.303415 0 CFG=1
M  V30 21 C -1.307175 0.090471 -0.550778 0
M  V30 22 C -1.511148 -0.554644 0.733455 0
M  V30 23 C -2.321849 -1.700278 0.807985 0
M  V30 24 N -2.371083 -2.088125 2.108632 0
M  V30 25 C -1.632138 -1.229306 2.796443 0
M  V30 26 N -1.104743 -0.296708 1.976267 0
M  V30 27 C -0.244116 0.729273 2.434658 0
M  V30 28 C -0.829078 2.036600 2.801161 0
M  V30 29 C -1.866100 2.063415 3.851948 0
M  V30 30 C -1.369867 1.496097 5.136670 0
M  V30 31 C -2.409395 1.529331 6.227748 0
M  V30 32 C -1.890494 0.888413 7.483974 0
M  V30 33 O -1.550086 -0.473596 7.265839 0
M  V30 34 N -1.801436 -1.433070 8.247835 0
M  V30 35 C -2.724835 -2.319077 7.972373 0
M  V30 36 C -3.200387 -3.431517 8.800914 0
M  V30 37 C -2.564918 -4.440803 9.499429 0
M  V30 38 C -3.531972 -5.235104 10.126238 0
M  V30 39 C -4.729875 -4.673172 9.781165 0
M  V30 40 N -4.539115 -3.603088 8.994386 0
M  V30 41 C -5.561487 -2.788668 8.451963 0
M  V30 42 N -5.269232 -1.482558 8.390393 0
M  V30 43 C -6.123075 -0.541814 7.891573 0
M  V30 44 C -7.343861 -0.951531 7.428851 0
M  V30 45 C -7.653720 -2.297440 7.488870 0
M  V30 46 C -8.928285 -2.801039 7.009786 0
M  V30 47 C -9.952656 -2.104064 6.469619 0
M  V30 48 C -11.075861 -2.725091 6.067699 0
M  V30 49 C -11.110229 -4.153321 6.249918 0
M  V30 50 S -9.415133 -4.483225 7.031700 0
M  V30 51 N -6.767849 -3.147765 7.988276 0
M  V30 52 C -0.094076 -1.836251 -1.561951 0
M  V30 53 O 0.043585 -2.388200 -0.416734 0
M  V30 54 N -0.241590 -2.695838 -2.690981 0
M  V30 55 C -0.222617 -4.108585 -2.487705 0 CFG=1
M  V30 56 C -1.648669 -4.636706 -2.644636 0
M  V30 57 O -1.673503 -6.026943 -2.449164 0
M  V30 58 C 0.721910 -4.844268 -3.335940 0
M  V30 59 O 0.901622 -6.087687 -3.299984 0
M  V30 60 N 1.506542 -4.146170 -4.274751 0
M  V30 61 C 2.514727 -4.461641 -5.260983 0 CFG=2
M  V30 62 C 3.774849 -3.748461 -4.972752 0
M  V30 63 N 4.869373 -3.951270 -5.853535 0
M  V30 64 O 3.948975 -2.968789 -3.996742 0
M  V30 65 C 2.043389 -4.156045 -6.667124 0 CFG=1
M  V30 66 C 0.822443 -5.022668 -6.986367 0
M  V30 67 O 1.735671 -2.820187 -6.836669 0
M  V30 68 P 2.526306 -2.081548 -8.119184 0
M  V30 69 O 1.605248 -1.854948 -9.302411 0
M  V30 70 O 3.058414 -0.561039 -7.577372 0
M  V30 71 O 3.811150 -3.036623 -8.660334 0
M  V30 72 H 7.098749 0.957647 -3.136204 0
M  V30 73 H 7.682458 1.442047 -1.519422 0
M  V30 74 H 8.138022 2.462634 -2.921970 0
M  V30 75 H 6.941945 4.779262 -4.399319 0
M  V30 76 H 7.563425 5.152041 -2.747343 0
M  V30 77 H 6.106800 6.859737 -2.328558 0
M  V30 78 H 5.900113 6.920293 -4.102826 0
M  V30 79 H 3.905525 5.722218 -4.078659 0
M  V30 80 H 3.801580 6.434925 -2.407979 0
M  V30 81 H 4.404652 4.467938 -1.354043 0
M  V30 82 H 1.763135 4.038400 -2.157882 0
M  V30 83 H 0.354211 3.284214 -3.957640 0
M  V30 84 H 0.911215 1.452259 -5.401335 0
M  V30 85 H 2.656552 1.608273 -4.840748 0
M  V30 86 H 2.498985 4.037752 -5.298704 0
M  V30 87 H -0.326394 3.410348 -6.086620 0
M  V30 88 H 0.612700 4.599869 -7.020726 0
M  V30 89 H 0.378565 4.825326 -5.259522 0
M  V30 90 H 1.990276 1.995316 -7.481490 0
M  V30 91 H 3.532057 2.803985 -7.023904 0
M  V30 92 H 2.236536 3.756001 -7.873218 0
M  V30 93 H -0.602059 0.395533 -3.451347 0
M  V30 94 H 0.851862 -0.101275 -0.717242 0
M  V30 95 H -1.242080 1.216171 -0.490850 0
M  V30 96 H -2.137341 -0.073573 -1.277637 0
M  V30 97 H -2.844630 -2.230662 0.002487 0
M  V30 98 H -1.595028 -1.443841 3.866656 0
M  V30 99 H 0.355129 0.392447 3.337270 0
M  V30 100 H 0.585354 0.963487 1.694719 0
M  V30 101 H -1.114959 2.580076 1.870575 0
M  V30 102 H 0.031139 2.667908 3.184177 0
M  V30 103 H -2.091601 3.151306 4.063819 0
M  V30 104 H -2.829611 1.635956 3.506636 0
M  V30 105 H -0.893385 0.538721 4.964191 0
M  V30 106 H -0.544336 2.188894 5.481898 0
M  V30 107 H -3.375729 1.118799 5.941098 0
M  V30 108 H -2.603458 2.627030 6.418326 0
M  V30 109 H -2.595651 1.025083 8.303132 0
M  V30 110 H -0.931390 1.384072 7.745841 0
M  V30 111 H -3.220162 -2.235060 6.989931 0
M  V30 112 H -1.471379 -4.515935 9.491434 0
M  V30 113 H -3.310172 -6.084177 10.732629 0
M  V30 114 H -5.681075 -5.056268 10.108444 0
M  V30 115 H -5.778800 0.480332 7.892551 0
M  V30 116 H -8.041797 -0.241311 7.030940 0
M  V30 117 H -9.866220 -1.016701 6.358065 0
M  V30 118 H -11.945646 -2.257636 5.622369 0
M  V30 119 H -12.062190 -4.782806 5.923003 0
M  V30 120 H -0.346286 -2.097743 -3.526066 0
M  V30 121 H 0.028643 -4.339987 -1.408749 0
M  V30 122 H -2.057855 -4.436844 -3.652995 0
M  V30 123 H -2.322597 -4.188377 -1.901994 0
M  V30 124 H -1.448265 -6.524863 -3.252021 0
M  V30 125 H 1.413377 -3.098209 -4.371093 0
M  V30 126 H 2.764974 -5.564089 -5.257576 0
M  V30 127 H 5.286253 -4.805919 -6.324240 0
M  V30 128 H 5.490361 -3.180934 -6.202147 0
M  V30 129 H 2.802604 -4.447624 -7.413971 0
M  V30 130 H 1.031228 -6.071798 -6.706649 0
M  V30 131 H -0.064536 -4.620264 -6.447153 0
M  V30 132 H 0.576284 -5.001260 -8.053356 0
M  V30 133 H 2.478394 -0.270501 -6.810341 0
M  V30 134 H 4.412015 -2.531357 -9.267201 0
M  V30 END ATOM
M  V30 BEGIN BOND
M  V30 1 1 1 2
M  V30 2 2 2 3
M  V30 3 1 2 4
M  V30 4 1 4 5
M  V30 5 1 5 6
M  V30 6 1 6 7
M  V30 7 1 7 8
M  V30 8 1 8 9
M  V30 9 2 9 10
M  V30 10 1 9 11
M  V30 11 1 11 12
M  V30 12 1 12 13
M  V30 13 1 13 14
M  V30 14 1 14 15
M  V30 15 1 14 16
M  V30 16 1 12 17
M  V30 17 2 17 18
M  V30 18 1 17 19
M  V30 19 1 19 20
M  V30 20 1 20 21
M  V30 21 1 21 22
M  V30 22 2 22 23
M  V30 23 1 23 24
M  V30 24 2 24 25
M  V30 25 1 25 26
M  V30 26 1 26 27
M  V30 27 1 27 28
M  V30 28 1 28 29
M  V30 29 1 29 30
M  V30 30 1 30 31
M  V30 31 1 31 32
M  V30 32 1 32 33
M  V30 33 1 33 34
M  V30 34 2 34 35
M  V30 35 1 35 36
M  V30 36 2 36 37
M  V30 37 1 37 38
M  V30 38 2 38 39
M  V30 39 1 39 40
M  V30 40 1 40 41
M  V30 41 2 41 42
M  V30 42 1 42 43
M  V30 43 2 43 44
M  V30 44 1 44 45
M  V30 45 1 45 46
M  V30 46 2 46 47
M  V30 47 1 47 48
M  V30 48 2 48 49
M  V30 49 1 49 50
M  V30 50 2 45 51
M  V30 51 1 20 52
M  V30 52 2 52 53
M  V30 53 1 52 54
M  V30 54 1 54 55
M  V30 55 1 55 56
M  V30 56 1 56 57
M  V30 57 1 55 58
M  V30 58 2 58 59
M  V30 59 1 58 60
M  V30 60 1 60 61
M  V30 61 1 61 62
M  V30 62 1 62 63
M  V30 63 2 62 64
M  V30 64 1 61 65
M  V30 65 1 65 66
M  V30 66 1 65 67
M  V30 67 1 67 68
M  V30 68 2 68 69
M  V30 69 1 68 70
M  V30 70 1 68 71
M  V30 71 1 8 4
M  V30 72 1 26 22
M  V30 73 1 40 36
M  V30 74 1 51 41
M  V30 75 1 50 46
M  V30 76 1 1 72
M  V30 77 1 1 73
M  V30 78 1 1 74
M  V30 79 1 5 75
M  V30 80 1 5 76
M  V30 81 1 6 77
M  V30 82 1 6 78
M  V30 83 1 7 79
M  V30 84 1 7 80
M  V30 85 1 8 81 CFG=1
M  V30 86 1 11 82
M  V30 87 1 12 83 CFG=3
M  V30 88 1 13 84
M  V30 89 1 13 85
M  V30 90 1 14 86
M  V30 91 1 15 87
M  V30 92 1 15 88
M  V30 93 1 15 89
M  V30 94 1 16 90
M  V30 95 1 16 91
M  V30 96 1 16 92
M  V30 97 1 19 93
M  V30 98 1 20 94 CFG=1
M  V30 99 1 21 95
M  V30 100 1 21 96
M  V30 101 1 23 97
M  V30 102 1 25 98
M  V30 103 1 27 99
M  V30 104 1 27 100
M  V30 105 1 28 101
M  V30 106 1 28 102
M  V30 107 1 29 103
M  V30 108 1 29 104
M  V30 109 1 30 105
M  V30 110 1 30 106
M  V30 111 1 31 107
M  V30 112 1 31 108
M  V30 113 1 32 109
M  V30 114 1 32 110
M  V30 115 1 35 111
M  V30 116 1 37 112
M  V30 117 1 38 113
M  V30 118 1 39 114
M  V30 119 1 43 115
M  V30 120 1 44 116
M  V30 121 1 47 117
M  V30 122 1 48 118
M  V30 123 1 49 119
M  V30 124 1 54 120
M  V30 125 1 55 121 CFG=1
M  V30 126 1 56 122
M  V30 127 1 56 123
M  V30 128 1 57 124
M  V30 129 1 60 125
M  V30 130 1 61 126 CFG=3
M  V30 131 1 63 127
M  V30 132 1 63 128
M  V30 133 1 65 129 CFG=3
M  V30 134 1 66 130
M  V30 135 1 66 131
M  V30 136 1 66 132
M  V30 137 1 70 133
M  V30 138 1 71 134
M  V30 END BOND
M  V30 END CTAB
M  END
>  <Dataset>  (577) 
ChEMBL_Kinases

>  <Ligand_Instance>  (577) 
nan

>  <PDB_ID>  (577) 
nan

>  <Standardized_SMILES>  (577) 
CC(=O)N1CCC[C@H]1C(=O)N[C@@H](CC(C)C)C(=O)N[C@@H](Cc1cncn1CCCCCCO/N=C/c1cccn1-c1nccc(-c2cccs2)n1)C(=O)N[C@@H](CO)C(=O)N[C@H](C(N)=O)[C@@H](C)OP(=O)(O)O

>  <Name>  (577) 
nan

>  <Pocket>  (577) 
nan

>  <ATP_Site>  (577) 
nan

>  <Peripheral>  (577) 
nan

>  <Num_H_Atoms_ProtBoundConf>  (577) 
nan

>  <Num_Resolved_Atoms>  (577) 
nan

>  <Num_Not_Resolved_Atoms>  (577) 
nan

$$$$
CHEMBL3954114
     RDKit          3D

  0  0  0  0  0  0  0  0  0  0999 V3000
M  V30 BEGIN CTAB
M  V30 COUNTS 133 136 0 0 0
M  V30 BEGIN ATOM
M  V30 1 C 8.258474 1.036669 -0.957191 0
M  V30 2 C 6.975371 1.352598 -1.641905 0
M  V30 3 O 6.732776 2.586012 -1.536141 0
M  V30 4 N 6.173515 0.371743 -2.305760 0
M  V30 5 C 6.369641 -1.053832 -2.476655 0
M  V30 6 C 5.705933 -1.388105 -3.773847 0
M  V30 7 C 4.631915 -0.346203 -3.945351 0
M  V30 8 C 4.922752 0.742986 -2.958923 0 CFG=1
M  V30 9 C 3.868657 0.827478 -1.892607 0
M  V30 10 O 4.822829 0.436605 -1.126687 0
M  V30 11 N 2.497516 1.145752 -1.651563 0
M  V30 12 C 2.038090 1.021092 -0.311384 0 CFG=1
M  V30 13 C 1.824804 2.356075 0.372617 0
M  V30 14 C 0.860186 3.284687 -0.235983 0
M  V30 15 C 1.221690 3.709572 -1.648977 0
M  V30 16 C -0.581905 2.848286 -0.251902 0
M  V30 17 C 0.826509 0.230665 -0.096074 0
M  V30 18 O 0.587913 -0.016420 1.134940 0
M  V30 19 N -0.093754 -0.282643 -1.032769 0
M  V30 20 C -1.291392 -1.049077 -1.114102 0 CFG=1
M  V30 21 C -2.532258 -0.192204 -1.025448 0
M  V30 22 C -3.753545 -0.988291 -1.164761 0
M  V30 23 C -4.375508 -1.145328 -2.412025 0
M  V30 24 N -5.469656 -1.896492 -2.190576 0
M  V30 25 C -5.475969 -2.159889 -0.872645 0
M  V30 26 N -4.422030 -1.611303 -0.195640 0
M  V30 27 C -4.351783 -1.837441 1.192305 0
M  V30 28 C -5.108213 -0.895554 2.092251 0
M  V30 29 C -4.565011 0.494625 1.960794 0
M  V30 30 C -5.297263 1.491559 2.801691 0
M  V30 31 C -5.249819 1.058883 4.258595 0
M  V30 32 C -5.945768 2.073592 5.090444 0
M  V30 33 C -5.356794 3.410959 5.100869 0
M  V30 34 C -4.034237 3.603519 5.721589 0
M  V30 35 C -2.838439 2.944857 5.235416 0
M  V30 36 C -2.161933 1.867905 5.823679 0
M  V30 37 C -1.014544 1.260887 5.370054 0
M  V30 38 C -0.502936 1.811115 4.191333 0
M  V30 39 C -1.135454 2.873054 3.578235 0
M  V30 40 C -2.290601 3.446367 4.080974 0
M  V30 41 C -2.662507 4.570049 3.243625 0
M  V30 42 C -3.002207 4.484729 1.913222 0
M  V30 43 C -3.323916 5.510587 1.068406 0
M  V30 44 C -3.313201 6.798590 1.590022 0
M  V30 45 C -2.980224 6.945674 2.916042 0
M  V30 46 C -2.666691 5.874768 3.714533 0
M  V30 47 C -1.323778 -2.108757 -2.114063 0
M  V30 48 O -2.304621 -2.868490 -2.232132 0
M  V30 49 N -0.295414 -2.392045 -3.029162 0
M  V30 50 C -0.460511 -3.485216 -3.971067 0 CFG=1
M  V30 51 C -0.334163 -3.056130 -5.408579 0
M  V30 52 O -1.293862 -2.102738 -5.713050 0
M  V30 53 C 0.619476 -4.464768 -3.615014 0
M  V30 54 O 1.007287 -3.667980 -2.704607 0
M  V30 55 N 1.076947 -5.738121 -4.048149 0
M  V30 56 C 2.203375 -6.273206 -3.345554 0 CFG=2
M  V30 57 C 3.282191 -6.766450 -4.237404 0
M  V30 58 N 4.421815 -7.301461 -3.555803 0
M  V30 59 O 3.009527 -6.628834 -5.479321 0
M  V30 60 C 1.721388 -7.471673 -2.511837 0 CFG=1
M  V30 61 C 1.164485 -8.564359 -3.377154 0
M  V30 62 O 2.855551 -7.968693 -1.826272 0
M  V30 63 P 2.517446 -7.714607 -0.167230 0
M  V30 64 O 1.279803 -8.496112 0.217196 0
M  V30 65 O 3.830094 -8.106016 0.786694 0
M  V30 66 O 2.192291 -6.042153 0.006358 0
M  V30 67 H 9.127144 1.610238 -1.389273 0
M  V30 68 H 8.499392 -0.045269 -0.995277 0
M  V30 69 H 8.208612 1.355860 0.099349 0
M  V30 70 H 5.878467 -1.602736 -1.621147 0
M  V30 71 H 7.456432 -1.280459 -2.457293 0
M  V30 72 H 5.233189 -2.404012 -3.756349 0
M  V30 73 H 6.449490 -1.405894 -4.597212 0
M  V30 74 H 3.616318 -0.761736 -3.745281 0
M  V30 75 H 4.619232 0.062930 -4.992085 0
M  V30 76 H 5.048269 1.728374 -3.436509 0
M  V30 77 H 2.235981 1.389405 -2.631361 0
M  V30 78 H 2.863351 0.556203 0.294965 0
M  V30 79 H 2.801228 2.893052 0.447190 0
M  V30 80 H 1.566960 2.099462 1.425179 0
M  V30 81 H 0.900423 4.233539 0.379954 0
M  V30 82 H 1.038609 4.821242 -1.759594 0
M  V30 83 H 0.671909 3.152691 -2.431580 0
M  V30 84 H 2.313305 3.607912 -1.792116 0
M  V30 85 H -0.884654 2.191065 0.554077 0
M  V30 86 H -1.209876 3.762295 -0.217090 0
M  V30 87 H -0.827684 2.413852 -1.270804 0
M  V30 88 H 0.151397 -0.038833 -2.023405 0
M  V30 89 H -1.313790 -1.604108 -0.102036 0
M  V30 90 H -2.500837 0.265906 -0.007950 0
M  V30 91 H -2.503288 0.605914 -1.812875 0
M  V30 92 H -4.049831 -0.745436 -3.373236 0
M  V30 93 H -6.331885 -2.773996 -0.548192 0
M  V30 94 H -3.275724 -1.752467 1.572480 0
M  V30 95 H -4.709671 -2.884211 1.454189 0
M  V30 96 H -4.979746 -1.254281 3.150889 0
M  V30 97 H -6.207956 -0.950930 1.927695 0
M  V30 98 H -3.479247 0.462311 2.172526 0
M  V30 99 H -4.635896 0.859098 0.890059 0
M  V30 100 H -4.939339 2.507571 2.634684 0
M  V30 101 H -6.387048 1.511737 2.508566 0
M  V30 102 H -4.250720 0.787730 4.586235 0
M  V30 103 H -5.845527 0.077696 4.281399 0
M  V30 104 H -7.009550 2.126834 4.660109 0
M  V30 105 H -6.086750 1.659131 6.136547 0
M  V30 106 H -5.343203 3.855353 4.057055 0
M  V30 107 H -6.101728 4.098480 5.654388 0
M  V30 108 H -3.876799 4.744962 5.750989 0
M  V30 109 H -4.180363 3.343037 6.837343 0
M  V30 110 H -2.629989 1.497683 6.740705 0
M  V30 111 H -0.609510 0.436854 5.932786 0
M  V30 112 H 0.412241 1.303423 3.852289 0
M  V30 113 H -0.571542 3.141527 2.692547 0
M  V30 114 H -3.023136 3.487393 1.455328 0
M  V30 115 H -3.582319 5.375833 0.028925 0
M  V30 116 H -3.566088 7.600998 0.918201 0
M  V30 117 H -2.994279 7.994141 3.244327 0
M  V30 118 H -2.413893 6.174972 4.712323 0
M  V30 119 H 0.580408 -1.823375 -3.035577 0
M  V30 120 H -1.407155 -4.020055 -3.872533 0
M  V30 121 H -0.594161 -3.956321 -6.018351 0
M  V30 122 H 0.691497 -2.762403 -5.701252 0
M  V30 123 H -2.166099 -2.557766 -5.619279 0
M  V30 124 H 0.433910 -5.978829 -4.820730 0
M  V30 125 H 2.584695 -5.553440 -2.590209 0
M  V30 126 H 4.985659 -6.488156 -3.218148 0
M  V30 127 H 4.554161 -8.353217 -3.476214 0
M  V30 128 H 0.973769 -7.099511 -1.788839 0
M  V30 129 H 1.560351 -8.468449 -4.400990 0
M  V30 130 H 1.400754 -9.589727 -2.989436 0
M  V30 131 H 0.049091 -8.488591 -3.439564 0
M  V30 132 H 4.274494 -7.285699 1.120585 0
M  V30 133 H 2.564371 -5.698422 0.853522 0
M  V30 END ATOM
M  V30 BEGIN BOND
M  V30 1 1 1 2
M  V30 2 2 2 3
M  V30 3 1 2 4
M  V30 4 1 4 5
M  V30 5 1 5 6
M  V30 6 1 6 7
M  V30 7 1 7 8
M  V30 8 1 8 9
M  V30 9 2 9 10
M  V30 10 1 9 11
M  V30 11 1 11 12
M  V30 12 1 12 13
M  V30 13 1 13 14
M  V30 14 1 14 15
M  V30 15 1 14 16
M  V30 16 1 12 17
M  V30 17 2 17 18
M  V30 18 1 17 19
M  V30 19 1 19 20
M  V30 20 1 20 21
M  V30 21 1 21 22
M  V30 22 2 22 23
M  V30 23 1 23 24
M  V30 24 2 24 25
M  V30 25 1 25 26
M  V30 26 1 26 27
M  V30 27 1 27 28
M  V30 28 1 28 29
M  V30 29 1 29 30
M  V30 30 1 30 31
M  V30 31 1 31 32
M  V30 32 1 32 33
M  V30 33 1 33 34
M  V30 34 1 34 35
M  V30 35 2 35 36
M  V30 36 1 36 37
M  V30 37 2 37 38
M  V30 38 1 38 39
M  V30 39 2 39 40
M  V30 40 1 40 41
M  V30 41 2 41 42
M  V30 42 1 42 43
M  V30 43 2 43 44
M  V30 44 1 44 45
M  V30 45 2 45 46
M  V30 46 1 20 47
M  V30 47 2 47 48
M  V30 48 1 47 49
M  V30 49 1 49 50
M  V30 50 1 50 51
M  V30 51 1 51 52
M  V30 52 1 50 53
M  V30 53 2 53 54
M  V30 54 1 53 55
M  V30 55 1 55 56
M  V30 56 1 56 57
M  V30 57 1 57 58
M  V30 58 2 57 59
M  V30 59 1 56 60
M  V30 60 1 60 61
M  V30 61 1 60 62
M  V30 62 1 62 63
M  V30 63 2 63 64
M  V30 64 1 63 65
M  V30 65 1 63 66
M  V30 66 1 8 4
M  V30 67 1 26 22
M  V30 68 1 40 35
M  V30 69 1 46 41
M  V30 70 1 1 67
M  V30 71 1 1 68
M  V30 72 1 1 69
M  V30 73 1 5 70
M  V30 74 1 5 71
M  V30 75 1 6 72
M  V30 76 1 6 73
M  V30 77 1 7 74
M  V30 78 1 7 75
M  V30 79 1 8 76 CFG=3
M  V30 80 1 11 77
M  V30 81 1 12 78 CFG=1
M  V30 82 1 13 79
M  V30 83 1 13 80
M  V30 84 1 14 81
M  V30 85 1 15 82
M  V30 86 1 15 83
M  V30 87 1 15 84
M  V30 88 1 16 85
M  V30 89 1 16 86
M  V30 90 1 16 87
M  V30 91 1 19 88
M  V30 92 1 20 89 CFG=1
M  V30 93 1 21 90
M  V30 94 1 21 91
M  V30 95 1 23 92
M  V30 96 1 25 93
M  V30 97 1 27 94
M  V30 98 1 27 95
M  V30 99 1 28 96
M  V30 100 1 28 97
M  V30 101 1 29 98
M  V30 102 1 29 99
M  V30 103 1 30 100
M  V30 104 1 30 101
M  V30 105 1 31 102
M  V30 106 1 31 103
M  V30 107 1 32 104
M  V30 108 1 32 105
M  V30 109 1 33 106
M  V30 110 1 33 107
M  V30 111 1 34 108
M  V30 112 1 34 109
M  V30 113 1 36 110
M  V30 114 1 37 111
M  V30 115 1 38 112
M  V30 116 1 39 113
M  V30 117 1 42 114
M  V30 118 1 43 115
M  V30 119 1 44 116
M  V30 120 1 45 117
M  V30 121 1 46 118
M  V30 122 1 49 119
M  V30 123 1 50 120 CFG=3
M  V30 124 1 51 121
M  V30 125 1 51 122
M  V30 126 1 52 123
M  V30 127 1 55 124
M  V30 128 1 56 125 CFG=1
M  V30 129 1 58 126
M  V30 130 1 58 127
M  V30 131 1 60 128 CFG=1
M  V30 132 1 61 129
M  V30 133 1 61 130
M  V30 134 1 61 131
M  V30 135 1 65 132
M  V30 136 1 66 133
M  V30 END BOND
M  V30 END CTAB
M  END
>  <Dataset>  (578) 
ChEMBL_Kinases

>  <Ligand_Instance>  (578) 
nan

>  <PDB_ID>  (578) 
nan

>  <Standardized_SMILES>  (578) 
CC(=O)N1CCC[C@H]1C(=O)N[C@@H](CC(C)C)C(=O)N[C@@H](Cc1cncn1CCCCCCCCc1ccccc1-c1ccccc1)C(=O)N[C@@H](CO)C(=O)N[C@H](C(N)=O)[C@@H](C)OP(=O)(O)O

>  <Name>  (578) 
nan

>  <Pocket>  (578) 
nan

>  <ATP_Site>  (578) 
nan

>  <Peripheral>  (578) 
nan

>  <Num_H_Atoms_ProtBoundConf>  (578) 
nan

>  <Num_Resolved_Atoms>  (578) 
nan

>  <Num_Not_Resolved_Atoms>  (578) 
nan

$$$$
CHEMBL3954836
     RDKit          3D

  0  0  0  0  0  0  0  0  0  0999 V3000
M  V30 BEGIN CTAB
M  V30 COUNTS 52 55 0 0 0
M  V30 BEGIN ATOM
M  V30 1 C 6.144802 -3.737882 3.193898 0
M  V30 2 C 5.541960 -3.123358 1.943752 0
M  V30 3 C 6.375996 -3.551301 0.750765 0
M  V30 4 O 5.439698 -1.743889 2.034255 0
M  V30 5 C 4.231360 -1.081760 1.966722 0
M  V30 6 C 4.478697 0.292956 2.090299 0
M  V30 7 C 3.441859 1.234675 2.059498 0
M  V30 8 C 2.131078 0.809006 1.903107 0
M  V30 9 C 1.911934 -0.547885 1.783527 0
M  V30 10 C 2.923088 -1.483931 1.812281 0
M  V30 11 C 0.481784 -0.825251 1.626589 0
M  V30 12 O -0.115479 -1.915464 1.490221 0
M  V30 13 N -0.134436 0.457191 1.660875 0
M  V30 14 C -1.533528 0.703591 1.545147 0
M  V30 15 C -2.240533 0.717338 2.734842 0
M  V30 16 C -3.601190 0.950468 2.695460 0
M  V30 17 C -4.254868 1.168238 1.484611 0
M  V30 18 C -3.504850 1.145007 0.319987 0
M  V30 19 C -4.180775 1.371999 -0.952554 0
M  V30 20 N -4.801321 2.568305 -1.162836 0
M  V30 21 N -5.352833 2.594184 -2.355666 0
M  V30 22 C -5.085133 1.403005 -2.919619 0
M  V30 23 N -4.363128 0.638710 -2.066344 0
M  V30 24 C -3.789036 -0.680602 -2.077938 0 CFG=2
M  V30 25 C -3.880272 -1.185004 -3.517212 0
M  V30 26 C -4.488324 -1.649626 -1.162841 0
M  V30 27 O -3.865164 -2.904270 -1.237481 0
M  V30 28 N -2.178608 0.917023 0.366832 0
M  V30 29 C 0.831221 1.526341 1.830762 0
M  V30 30 H 7.196119 -4.051397 3.042354 0
M  V30 31 H 5.557091 -4.632930 3.541776 0
M  V30 32 H 6.125331 -3.027912 4.055151 0
M  V30 33 H 4.558988 -3.577966 1.816487 0
M  V30 34 H 6.060835 -4.575488 0.462750 0
M  V30 35 H 7.455240 -3.612808 1.020025 0
M  V30 36 H 6.237831 -2.897929 -0.116599 0
M  V30 37 H 5.444259 0.808057 2.220145 0
M  V30 38 H 3.566101 2.289073 2.148016 0
M  V30 39 H 2.844605 -2.539195 1.728081 0
M  V30 40 H -1.735564 0.546805 3.696217 0
M  V30 41 H -4.141136 0.957965 3.637903 0
M  V30 42 H -5.332764 1.349547 1.491417 0
M  V30 43 H -5.340012 0.984523 -3.888293 0
M  V30 44 H -2.712504 -0.669472 -1.820107 0
M  V30 45 H -4.872745 -1.600181 -3.742781 0
M  V30 46 H -3.043283 -1.896749 -3.713410 0
M  V30 47 H -3.704197 -0.293301 -4.180995 0
M  V30 48 H -5.548478 -1.791624 -1.475127 0
M  V30 49 H -4.396617 -1.280251 -0.121861 0
M  V30 50 H -2.883481 -2.774131 -1.303384 0
M  V30 51 H 0.832767 2.178556 0.915658 0
M  V30 52 H 0.631956 2.142449 2.729324 0
M  V30 END ATOM
M  V30 BEGIN BOND
M  V30 1 1 1 2
M  V30 2 1 2 3
M  V30 3 1 2 4
M  V30 4 1 4 5
M  V30 5 2 5 6
M  V30 6 1 6 7
M  V30 7 2 7 8
M  V30 8 1 8 9
M  V30 9 2 9 10
M  V30 10 1 9 11
M  V30 11 2 11 12
M  V30 12 1 11 13
M  V30 13 1 13 14
M  V30 14 2 14 15
M  V30 15 1 15 16
M  V30 16 2 16 17
M  V30 17 1 17 18
M  V30 18 1 18 19
M  V30 19 2 19 20
M  V30 20 1 20 21
M  V30 21 2 21 22
M  V30 22 1 22 23
M  V30 23 1 23 24
M  V30 24 1 24 25
M  V30 25 1 24 26
M  V30 26 1 26 27
M  V30 27 2 18 28
M  V30 28 1 13 29
M  V30 29 1 10 5
M  V30 30 1 28 14
M  V30 31 1 29 8
M  V30 32 1 23 19
M  V30 33 1 1 30
M  V30 34 1 1 31
M  V30 35 1 1 32
M  V30 36 1 2 33
M  V30 37 1 3 34
M  V30 38 1 3 35
M  V30 39 1 3 36
M  V30 40 1 6 37
M  V30 41 1 7 38
M  V30 42 1 10 39
M  V30 43 1 15 40
M  V30 44 1 16 41
M  V30 45 1 17 42
M  V30 46 1 22 43
M  V30 47 1 24 44 CFG=1
M  V30 48 1 25 45
M  V30 49 1 25 46
M  V30 50 1 25 47
M  V30 51 1 26 48
M  V30 52 1 26 49
M  V30 53 1 27 50
M  V30 54 1 29 51
M  V30 55 1 29 52
M  V30 END BOND
M  V30 END CTAB
M  END
>  <Dataset>  (579) 
ChEMBL_Kinases

>  <Ligand_Instance>  (579) 
nan

>  <PDB_ID>  (579) 
nan

>  <Standardized_SMILES>  (579) 
CC(C)Oc1ccc2c(c1)C(=O)N(c1cccc(-c3nncn3[C@H](C)CO)n1)C2

>  <Name>  (579) 
nan

>  <Pocket>  (579) 
nan

>  <ATP_Site>  (579) 
nan

>  <Peripheral>  (579) 
nan

>  <Num_H_Atoms_ProtBoundConf>  (579) 
nan

>  <Num_Resolved_Atoms>  (579) 
nan

>  <Num_Not_Resolved_Atoms>  (579) 
nan

$$$$
CHEMBL728
     RDKit          3D

  0  0  0  0  0  0  0  0  0  0999 V3000
M  V30 BEGIN CTAB
M  V30 COUNTS 49 52 0 0 0
M  V30 BEGIN ATOM
M  V30 1 C 0.154663 -5.384112 2.313559 0
M  V30 2 N -0.805730 -4.974363 1.334854 0
M  V30 3 C -0.262422 -4.332658 0.173281 0
M  V30 4 C -0.895257 -2.976192 -0.117682 0
M  V30 5 N -0.713276 -2.074403 1.016440 0
M  V30 6 C 0.581313 -1.504407 0.906881 0
M  V30 7 C 0.972283 -0.534475 1.989936 0
M  V30 8 C 0.083230 0.690292 2.060750 0
M  V30 9 N 0.189952 1.400917 0.820184 0
M  V30 10 C 1.390778 2.085361 0.581316 0
M  V30 11 C 2.366479 2.174876 1.552507 0
M  V30 12 C 3.559070 2.857912 1.434817 0
M  V30 13 C 3.844305 3.533932 0.244130 0
M  V30 14 C 2.902644 3.477906 -0.758510 0
M  V30 15 C 1.753878 2.776341 -0.547546 0
M  V30 16 S 0.636001 2.809525 -1.936565 0
M  V30 17 C -0.829499 1.947358 -1.408322 0
M  V30 18 C -1.827048 1.933079 -2.314712 0
M  V30 19 C -3.000657 1.279568 -2.003333 0
M  V30 20 C -3.111842 0.668671 -0.785749 0
M  V30 21 Cl -4.608088 -0.148620 -0.423850 0
M  V30 22 C -2.037402 0.739195 0.071958 0
M  V30 23 C -0.832819 1.369548 -0.160109 0
M  V30 24 C -0.996929 -2.764444 2.230389 0
M  V30 25 C -1.745865 -4.074821 1.973685 0
M  V30 26 H 1.005454 -4.689089 2.457815 0
M  V30 27 H 0.577152 -6.388777 2.177575 0
M  V30 28 H -0.366713 -5.388127 3.313076 0
M  V30 29 H 0.839411 -4.206011 0.252111 0
M  V30 30 H -0.456200 -4.963670 -0.717688 0
M  V30 31 H -1.936093 -3.085267 -0.432410 0
M  V30 32 H -0.327033 -2.552599 -0.974129 0
M  V30 33 H 0.575989 -0.896822 -0.045344 0
M  V30 34 H 1.399841 -2.215670 0.772995 0
M  V30 35 H 2.034027 -0.352037 1.869617 0
M  V30 36 H 0.870981 -1.093655 2.973875 0
M  V30 37 H 0.413638 1.311644 2.932465 0
M  V30 38 H -0.893430 0.311691 2.338267 0
M  V30 39 H 2.309902 1.752385 2.523709 0
M  V30 40 H 4.337674 2.941810 2.178781 0
M  V30 41 H 4.764908 4.080252 0.109738 0
M  V30 42 H 3.145269 4.007029 -1.665762 0
M  V30 43 H -1.781814 2.402292 -3.287376 0
M  V30 44 H -3.818306 1.250925 -2.709395 0
M  V30 45 H -2.250109 0.223514 1.002933 0
M  V30 46 H -0.151972 -2.976419 2.886624 0
M  V30 47 H -1.744888 -2.146644 2.809037 0
M  V30 48 H -2.120347 -4.459050 2.924420 0
M  V30 49 H -2.602197 -3.951140 1.306358 0
M  V30 END ATOM
M  V30 BEGIN BOND
M  V30 1 1 1 2
M  V30 2 1 2 3
M  V30 3 1 3 4
M  V30 4 1 4 5
M  V30 5 1 5 6
M  V30 6 1 6 7
M  V30 7 1 7 8
M  V30 8 1 8 9
M  V30 9 1 9 10
M  V30 10 2 10 11
M  V30 11 1 11 12
M  V30 12 2 12 13
M  V30 13 1 13 14
M  V30 14 2 14 15
M  V30 15 1 15 16
M  V30 16 1 16 17
M  V30 17 2 17 18
M  V30 18 1 18 19
M  V30 19 2 19 20
M  V30 20 1 20 21
M  V30 21 1 20 22
M  V30 22 2 22 23
M  V30 23 1 5 24
M  V30 24 1 24 25
M  V30 25 1 25 2
M  V30 26 1 23 9
M  V30 27 1 15 10
M  V30 28 1 23 17
M  V30 29 1 1 26
M  V30 30 1 1 27
M  V30 31 1 1 28
M  V30 32 1 3 29
M  V30 33 1 3 30
M  V30 34 1 4 31
M  V30 35 1 4 32
M  V30 36 1 6 33
M  V30 37 1 6 34
M  V30 38 1 7 35
M  V30 39 1 7 36
M  V30 40 1 8 37
M  V30 41 1 8 38
M  V30 42 1 11 39
M  V30 43 1 12 40
M  V30 44 1 13 41
M  V30 45 1 14 42
M  V30 46 1 18 43
M  V30 47 1 19 44
M  V30 48 1 22 45
M  V30 49 1 24 46
M  V30 50 1 24 47
M  V30 51 1 25 48
M  V30 52 1 25 49
M  V30 END BOND
M  V30 END CTAB
M  END
>  <Dataset>  (580) 
ChEMBL_Kinases

>  <Ligand_Instance>  (580) 
nan

>  <PDB_ID>  (580) 
nan

>  <Standardized_SMILES>  (580) 
CN1CCN(CCCN2c3ccccc3Sc3ccc(Cl)cc32)CC1

>  <Name>  (580) 
PROCHLORPERAZINE

>  <Pocket>  (580) 
nan

>  <ATP_Site>  (580) 
nan

>  <Peripheral>  (580) 
nan

>  <Num_H_Atoms_ProtBoundConf>  (580) 
nan

>  <Num_Resolved_Atoms>  (580) 
nan

>  <Num_Not_Resolved_Atoms>  (580) 
nan

$$$$
CHEMBL3954524
     RDKit          3D

  0  0  0  0  0  0  0  0  0  0999 V3000
M  V30 BEGIN CTAB
M  V30 COUNTS 56 59 0 0 0
M  V30 BEGIN ATOM
M  V30 1 C 1.931290 -0.215677 5.386198 0
M  V30 2 C 3.279568 -0.111435 4.656165 0
M  V30 3 N 3.363551 -1.244285 3.766372 0
M  V30 4 N 3.891051 -2.417503 4.159004 0
M  V30 5 C 3.830100 -3.304464 3.132972 0
M  V30 6 C 3.244203 -2.692818 2.033980 0
M  V30 7 C 2.931384 -3.125577 0.759898 0
M  V30 8 C 2.338714 -2.111894 0.060416 0
M  V30 9 N 2.078595 -0.876961 0.477853 0
M  V30 10 C 2.388325 -0.487149 1.706772 0
M  V30 11 C 2.980973 -1.420187 2.494439 0
M  V30 12 C 2.024364 0.935670 1.983486 0
M  V30 13 C 1.289303 1.532304 0.816921 0
M  V30 14 C -0.085040 1.074280 0.498624 0
M  V30 15 O -0.409648 -0.220664 0.445352 0
M  V30 16 C -1.587855 -0.608424 -0.169870 0
M  V30 17 C -2.723131 0.181814 0.350210 0
M  V30 18 C -1.827383 -2.054127 0.333550 0
M  V30 19 C -1.550865 -0.595362 -1.676367 0 CFG=2
M  V30 20 C -2.787787 -0.457937 -2.367661 0
M  V30 21 C -3.324188 0.791125 -2.617853 0
M  V30 22 C -4.525459 0.829446 -3.295316 0
M  V30 23 C -5.221248 -0.262310 -3.734971 0
M  V30 24 C -4.671776 -1.495655 -3.476688 0
M  V30 25 C -3.456053 -1.584280 -2.793223 0
M  V30 26 N -0.616166 -1.564112 -2.278216 0
M  V30 27 C 0.664588 -2.281686 -2.207227 0
M  V30 28 O 0.271603 -1.542959 -1.308650 0
M  V30 29 N 1.783019 -2.428953 -1.271172 0
M  V30 30 H 2.009013 -0.929476 6.230900 0
M  V30 31 H 1.650411 0.795334 5.703447 0
M  V30 32 H 1.197058 -0.550994 4.626931 0
M  V30 33 H 3.298125 0.874732 4.200579 0
M  V30 34 H 4.023597 -0.206861 5.486223 0
M  V30 35 H 4.172110 -4.336415 3.127194 0
M  V30 36 H 3.127737 -4.113277 0.389064 0
M  V30 37 H 3.023557 1.458480 2.055581 0
M  V30 38 H 1.382038 1.037736 2.846641 0
M  V30 39 H 1.948341 1.548021 -0.103156 0
M  V30 40 H 1.196385 2.654432 1.027932 0
M  V30 41 H -0.733458 1.516825 1.339084 0
M  V30 42 H -0.428658 1.691596 -0.370405 0
M  V30 43 H -3.686048 -0.099673 -0.133802 0
M  V30 44 H -2.864459 -0.108266 1.427692 0
M  V30 45 H -2.568728 1.276416 0.353667 0
M  V30 46 H -0.991097 -2.413972 0.962264 0
M  V30 47 H -2.071022 -2.732643 -0.522369 0
M  V30 48 H -2.722777 -2.120859 0.983465 0
M  V30 49 H -0.937380 0.377143 -1.828080 0
M  V30 50 H -2.808488 1.685543 -2.288343 0
M  V30 51 H -4.965275 1.800469 -3.502746 0
M  V30 52 H -6.160321 -0.141194 -4.260689 0
M  V30 53 H -5.231771 -2.362976 -3.830036 0
M  V30 54 H -3.144654 -2.606987 -2.661057 0
M  V30 55 H -1.005079 -1.960767 -3.207832 0
M  V30 56 H 2.410314 -3.078452 -1.794303 0
M  V30 END ATOM
M  V30 BEGIN BOND
M  V30 1 1 1 2
M  V30 2 1 2 3
M  V30 3 1 3 4
M  V30 4 2 4 5
M  V30 5 1 5 6
M  V30 6 2 6 7
M  V30 7 1 7 8
M  V30 8 2 8 9
M  V30 9 1 9 10
M  V30 10 2 10 11
M  V30 11 1 10 12
M  V30 12 1 12 13
M  V30 13 1 13 14
M  V30 14 1 14 15
M  V30 15 1 15 16
M  V30 16 1 16 17
M  V30 17 1 16 18
M  V30 18 1 16 19
M  V30 19 1 19 20
M  V30 20 2 20 21
M  V30 21 1 21 22
M  V30 22 2 22 23
M  V30 23 1 23 24
M  V30 24 2 24 25
M  V30 25 1 19 26
M  V30 26 1 26 27
M  V30 27 2 27 28
M  V30 28 1 27 29
M  V30 29 1 11 3
M  V30 30 1 25 20
M  V30 31 1 11 6
M  V30 32 1 29 8
M  V30 33 1 1 30
M  V30 34 1 1 31
M  V30 35 1 1 32
M  V30 36 1 2 33
M  V30 37 1 2 34
M  V30 38 1 5 35
M  V30 39 1 7 36
M  V30 40 1 12 37
M  V30 41 1 12 38
M  V30 42 1 13 39
M  V30 43 1 13 40
M  V30 44 1 14 41
M  V30 45 1 14 42
M  V30 46 1 17 43
M  V30 47 1 17 44
M  V30 48 1 17 45
M  V30 49 1 18 46
M  V30 50 1 18 47
M  V30 51 1 18 48
M  V30 52 1 19 49 CFG=1
M  V30 53 1 21 50
M  V30 54 1 22 51
M  V30 55 1 23 52
M  V30 56 1 24 53
M  V30 57 1 25 54
M  V30 58 1 26 55
M  V30 59 1 29 56
M  V30 END BOND
M  V30 END CTAB
M  END
>  <Dataset>  (581) 
ChEMBL_Kinases

>  <Ligand_Instance>  (581) 
nan

>  <PDB_ID>  (581) 
nan

>  <Standardized_SMILES>  (581) 
CCn1ncc2cc3nc(c21)CCCOC(C)(C)[C@H](c1ccccc1)NC(=O)N3

>  <Name>  (581) 
nan

>  <Pocket>  (581) 
nan

>  <ATP_Site>  (581) 
nan

>  <Peripheral>  (581) 
nan

>  <Num_H_Atoms_ProtBoundConf>  (581) 
nan

>  <Num_Resolved_Atoms>  (581) 
nan

>  <Num_Not_Resolved_Atoms>  (581) 
nan

$$$$
CHEMBL72
     RDKit          3D

  0  0  0  0  0  0  0  0  0  0999 V3000
M  V30 BEGIN CTAB
M  V30 COUNTS 42 44 0 0 0
M  V30 BEGIN ATOM
M  V30 1 C -1.965852 -2.486253 4.198811 0
M  V30 2 N -1.507339 -3.607866 3.382686 0
M  V30 3 C -1.609145 -3.227347 1.961506 0
M  V30 4 C -0.563931 -2.126213 1.693411 0
M  V30 5 C -0.584944 -1.658779 0.254464 0
M  V30 6 N 0.395472 -0.621097 -0.038550 0
M  V30 7 C 0.055807 0.480826 -0.943046 0
M  V30 8 C -0.970819 0.068043 -1.763434 0
M  V30 9 C -1.400331 1.019025 -2.659258 0
M  V30 10 C -0.825353 2.272984 -2.703090 0
M  V30 11 C 0.211885 2.631529 -1.846513 0
M  V30 12 C 0.702005 1.722816 -0.911689 0
M  V30 13 C 1.810311 2.312874 -0.133236 0
M  V30 14 C 2.075297 1.732452 1.204611 0
M  V30 15 C 2.398792 0.289719 1.106725 0
M  V30 16 C 3.624207 -0.075736 1.638681 0
M  V30 17 C 4.054316 -1.401922 1.618470 0
M  V30 18 C 3.289172 -2.424509 1.070804 0
M  V30 19 C 2.069048 -2.135554 0.527474 0
M  V30 20 C 1.696881 -0.779582 0.580909 0
M  V30 21 H -1.108578 -1.930307 4.662396 0
M  V30 22 H -2.577033 -2.849744 5.050249 0
M  V30 23 H -2.532787 -1.776051 3.591786 0
M  V30 24 H -0.484409 -3.771983 3.625364 0
M  V30 25 H -2.628889 -2.899109 1.766592 0
M  V30 26 H -1.373430 -4.139653 1.378244 0
M  V30 27 H 0.347859 -2.545334 2.079514 0
M  V30 28 H -0.963022 -1.295703 2.371223 0
M  V30 29 H -1.556328 -1.114696 0.221880 0
M  V30 30 H -0.658641 -2.458901 -0.468221 0
M  V30 31 H -1.347726 -0.942024 -1.659845 0
M  V30 32 H -2.206232 0.747545 -3.330195 0
M  V30 33 H -1.216620 2.986613 -3.444799 0
M  V30 34 H 0.641725 3.635068 -1.910711 0
M  V30 35 H 1.597423 3.416586 -0.037237 0
M  V30 36 H 2.707875 2.252996 -0.801476 0
M  V30 37 H 2.928742 2.260984 1.661279 0
M  V30 38 H 1.145482 1.886762 1.828429 0
M  V30 39 H 4.257438 0.698738 2.079270 0
M  V30 40 H 5.028083 -1.672809 2.044371 0
M  V30 41 H 3.573082 -3.458533 1.031859 0
M  V30 42 H 1.335397 -2.808400 0.052007 0
M  V30 END ATOM
M  V30 BEGIN BOND
M  V30 1 1 1 2
M  V30 2 1 2 3
M  V30 3 1 3 4
M  V30 4 1 4 5
M  V30 5 1 5 6
M  V30 6 1 6 7
M  V30 7 2 7 8
M  V30 8 1 8 9
M  V30 9 2 9 10
M  V30 10 1 10 11
M  V30 11 2 11 12
M  V30 12 1 12 13
M  V30 13 1 13 14
M  V30 14 1 14 15
M  V30 15 2 15 16
M  V30 16 1 16 17
M  V30 17 2 17 18
M  V30 18 1 18 19
M  V30 19 2 19 20
M  V30 20 1 20 6
M  V30 21 1 12 7
M  V30 22 1 20 15
M  V30 23 1 1 21
M  V30 24 1 1 22
M  V30 25 1 1 23
M  V30 26 1 2 24
M  V30 27 1 3 25
M  V30 28 1 3 26
M  V30 29 1 4 27
M  V30 30 1 4 28
M  V30 31 1 5 29
M  V30 32 1 5 30
M  V30 33 1 8 31
M  V30 34 1 9 32
M  V30 35 1 10 33
M  V30 36 1 11 34
M  V30 37 1 13 35
M  V30 38 1 13 36
M  V30 39 1 14 37
M  V30 40 1 14 38
M  V30 41 1 16 39
M  V30 42 1 17 40
M  V30 43 1 18 41
M  V30 44 1 19 42
M  V30 END BOND
M  V30 END CTAB
M  END
>  <Dataset>  (582) 
ChEMBL_Kinases

>  <Ligand_Instance>  (582) 
nan

>  <PDB_ID>  (582) 
nan

>  <Standardized_SMILES>  (582) 
CNCCCN1c2ccccc2CCc2ccccc21

>  <Name>  (582) 
DESIPRAMINE

>  <Pocket>  (582) 
nan

>  <ATP_Site>  (582) 
nan

>  <Peripheral>  (582) 
nan

>  <Num_H_Atoms_ProtBoundConf>  (582) 
nan

>  <Num_Resolved_Atoms>  (582) 
nan

>  <Num_Not_Resolved_Atoms>  (582) 
nan

$$$$
CHEMBL715
     RDKit          3D

  0  0  0  0  0  0  0  0  0  0999 V3000
M  V30 BEGIN CTAB
M  V30 COUNTS 42 45 0 0 0
M  V30 BEGIN ATOM
M  V30 1 C 2.316847 -3.672399 4.526844 0
M  V30 2 C 2.268074 -2.998837 3.220792 0
M  V30 3 C 1.359094 -2.105210 2.727477 0
M  V30 4 C 1.480022 -1.580870 1.477581 0
M  V30 5 C 2.658877 -2.082971 0.774085 0
M  V30 6 S 3.465246 -3.227263 1.930665 0
M  V30 7 N 3.165166 -1.784342 -0.577765 0
M  V30 8 C 2.834526 -0.629262 -1.335704 0
M  V30 9 C 3.822768 -0.489648 -2.277879 0
M  V30 10 C 3.698045 0.598436 -3.144115 0
M  V30 11 C 2.612807 1.456040 -3.010173 0
M  V30 12 C 1.646147 1.248389 -2.025306 0
M  V30 13 C 1.735971 0.179576 -1.147414 0
M  V30 14 N 0.704208 0.068830 -0.198011 0
M  V30 15 C 0.568189 -0.630676 0.871413 0
M  V30 16 N -0.647191 -0.477298 1.595824 0
M  V30 17 C -0.884157 0.773931 2.307879 0
M  V30 18 C -2.022369 1.449306 1.617702 0
M  V30 19 N -3.057380 0.651541 1.112967 0
M  V30 20 C -3.176913 0.854535 -0.319560 0
M  V30 21 C -3.076846 -0.739993 1.385202 0
M  V30 22 C -1.805291 -1.361805 1.804373 0
M  V30 23 H 2.372154 -4.779070 4.307641 0
M  V30 24 H 1.354536 -3.523831 5.010964 0
M  V30 25 H 3.202371 -3.414955 5.111775 0
M  V30 26 H 0.533125 -1.822635 3.362509 0
M  V30 27 H 3.797946 -2.535193 -0.897234 0
M  V30 28 H 4.652956 -1.175005 -2.354658 0
M  V30 29 H 4.450489 0.753559 -3.904975 0
M  V30 30 H 2.529952 2.299145 -3.692743 0
M  V30 31 H 0.792063 1.911218 -1.909122 0
M  V30 32 H -0.008524 1.449991 2.237550 0
M  V30 33 H -1.180225 0.568952 3.355199 0
M  V30 34 H -1.638638 2.156367 0.843997 0
M  V30 35 H -2.481482 2.136168 2.389504 0
M  V30 36 H -3.538070 1.885253 -0.521009 0
M  V30 37 H -3.725822 0.064603 -0.831694 0
M  V30 38 H -2.123176 0.828502 -0.717963 0
M  V30 39 H -3.472133 -1.307468 0.491831 0
M  V30 40 H -3.846405 -0.921505 2.165167 0
M  V30 41 H -1.662505 -2.339164 1.352780 0
M  V30 42 H -1.809559 -1.527485 2.915315 0
M  V30 END ATOM
M  V30 BEGIN BOND
M  V30 1 1 1 2
M  V30 2 2 2 3
M  V30 3 1 3 4
M  V30 4 2 4 5
M  V30 5 1 5 6
M  V30 6 1 5 7
M  V30 7 1 7 8
M  V30 8 2 8 9
M  V30 9 1 9 10
M  V30 10 2 10 11
M  V30 11 1 11 12
M  V30 12 2 12 13
M  V30 13 1 13 14
M  V30 14 2 14 15
M  V30 15 1 15 16
M  V30 16 1 16 17
M  V30 17 1 17 18
M  V30 18 1 18 19
M  V30 19 1 19 20
M  V30 20 1 19 21
M  V30 21 1 21 22
M  V30 22 1 6 2
M  V30 23 1 13 8
M  V30 24 1 22 16
M  V30 25 1 15 4
M  V30 26 1 1 23
M  V30 27 1 1 24
M  V30 28 1 1 25
M  V30 29 1 3 26
M  V30 30 1 7 27
M  V30 31 1 9 28
M  V30 32 1 10 29
M  V30 33 1 11 30
M  V30 34 1 12 31
M  V30 35 1 17 32
M  V30 36 1 17 33
M  V30 37 1 18 34
M  V30 38 1 18 35
M  V30 39 1 20 36
M  V30 40 1 20 37
M  V30 41 1 20 38
M  V30 42 1 21 39
M  V30 43 1 21 40
M  V30 44 1 22 41
M  V30 45 1 22 42
M  V30 END BOND
M  V30 END CTAB
M  END
>  <Dataset>  (583) 
ChEMBL_Kinases

>  <Ligand_Instance>  (583) 
nan

>  <PDB_ID>  (583) 
nan

>  <Standardized_SMILES>  (583) 
Cc1cc2c(s1)Nc1ccccc1N=C2N1CCN(C)CC1

>  <Name>  (583) 
OLANZAPINE

>  <Pocket>  (583) 
nan

>  <ATP_Site>  (583) 
nan

>  <Peripheral>  (583) 
nan

>  <Num_H_Atoms_ProtBoundConf>  (583) 
nan

>  <Num_Resolved_Atoms>  (583) 
nan

>  <Num_Not_Resolved_Atoms>  (583) 
nan

$$$$
CHEMBL3954343
     RDKit          3D

  0  0  0  0  0  0  0  0  0  0999 V3000
M  V30 BEGIN CTAB
M  V30 COUNTS 44 47 0 0 0
M  V30 BEGIN ATOM
M  V30 1 N 0.329874 -9.298334 1.411870 0
M  V30 2 C 0.132485 -8.030137 0.794650 0
M  V30 3 O -0.757843 -8.287138 -0.044240 0
M  V30 4 C 0.816215 -6.795490 1.101328 0
M  V30 5 C 1.791635 -6.590593 2.045291 0
M  V30 6 C 2.325173 -5.326363 2.186738 0
M  V30 7 C 1.932481 -4.242674 1.427265 0
M  V30 8 N 2.301802 -2.933135 1.383821 0
M  V30 9 C 1.559133 -2.351305 0.425029 0
M  V30 10 C 1.624847 -0.944454 0.035333 0
M  V30 11 C 2.509584 -0.100050 0.677187 0
M  V30 12 C 2.545270 1.225438 0.282859 0
M  V30 13 C 1.710987 1.694175 -0.734011 0
M  V30 14 S 1.692718 3.389658 -1.304672 0
M  V30 15 C 0.485005 4.298406 -0.323276 0
M  V30 16 C 0.271809 5.641475 -0.561663 0
M  V30 17 C -0.653989 6.344334 0.188461 0
M  V30 18 C -1.375945 5.720956 1.181166 0
M  V30 19 O -2.331564 6.273331 2.015714 0
M  V30 20 C -3.717089 6.283916 1.645061 0
M  V30 21 F -3.826540 6.988314 0.478158 0
M  V30 22 F -4.458806 6.905727 2.618902 0
M  V30 23 F -4.072698 4.962905 1.513731 0
M  V30 24 C -1.158428 4.371455 1.417147 0
M  V30 25 C -0.235887 3.678255 0.667161 0
M  V30 26 C 0.823824 0.848311 -1.377904 0
M  V30 27 C 0.804546 -0.470885 -0.968620 0
M  V30 28 N 0.750117 -3.282457 -0.110214 0
M  V30 29 C 0.951171 -4.472212 0.485218 0
M  V30 30 C 0.398130 -5.725701 0.320067 0
M  V30 31 H -0.139110 -9.639795 2.278276 0
M  V30 32 H -0.294792 -9.328601 2.270669 0
M  V30 33 H 2.070588 -7.445686 2.612539 0
M  V30 34 H 3.090941 -5.220167 2.945596 0
M  V30 35 H 3.037231 -2.518832 2.010999 0
M  V30 36 H 3.174131 -0.418710 1.469367 0
M  V30 37 H 3.188023 1.981822 0.702638 0
M  V30 38 H 0.801855 6.182580 -1.319516 0
M  V30 39 H -0.891309 7.393486 0.078299 0
M  V30 40 H -1.674695 3.795079 2.172474 0
M  V30 41 H -0.046436 2.622017 0.831227 0
M  V30 42 H 0.150650 1.129426 -2.166798 0
M  V30 43 H 0.137745 -1.182405 -1.427931 0
M  V30 44 H -0.374949 -5.796765 -0.457806 0
M  V30 END ATOM
M  V30 BEGIN BOND
M  V30 1 1 1 2
M  V30 2 2 2 3
M  V30 3 1 2 4
M  V30 4 2 4 5
M  V30 5 1 5 6
M  V30 6 2 6 7
M  V30 7 1 7 8
M  V30 8 1 8 9
M  V30 9 1 9 10
M  V30 10 2 10 11
M  V30 11 1 11 12
M  V30 12 2 12 13
M  V30 13 1 13 14
M  V30 14 1 14 15
M  V30 15 2 15 16
M  V30 16 1 16 17
M  V30 17 2 17 18
M  V30 18 1 18 19
M  V30 19 1 19 20
M  V30 20 1 20 21
M  V30 21 1 20 22
M  V30 22 1 20 23
M  V30 23 1 18 24
M  V30 24 2 24 25
M  V30 25 1 13 26
M  V30 26 2 26 27
M  V30 27 2 9 28
M  V30 28 1 28 29
M  V30 29 2 29 30
M  V30 30 1 30 4
M  V30 31 1 29 7
M  V30 32 1 27 10
M  V30 33 1 25 15
M  V30 34 1 1 31
M  V30 35 1 1 32
M  V30 36 1 5 33
M  V30 37 1 6 34
M  V30 38 1 8 35
M  V30 39 1 11 36
M  V30 40 1 12 37
M  V30 41 1 16 38
M  V30 42 1 17 39
M  V30 43 1 24 40
M  V30 44 1 25 41
M  V30 45 1 26 42
M  V30 46 1 27 43
M  V30 47 1 30 44
M  V30 END BOND
M  V30 END CTAB
M  END
>  <Dataset>  (584) 
ChEMBL_Kinases

>  <Ligand_Instance>  (584) 
nan

>  <PDB_ID>  (584) 
nan

>  <Standardized_SMILES>  (584) 
NC(=O)c1ccc2[nH]c(-c3ccc(Sc4ccc(OC(F)(F)F)cc4)cc3)nc2c1

>  <Name>  (584) 
nan

>  <Pocket>  (584) 
nan

>  <ATP_Site>  (584) 
nan

>  <Peripheral>  (584) 
nan

>  <Num_H_Atoms_ProtBoundConf>  (584) 
nan

>  <Num_Resolved_Atoms>  (584) 
nan

>  <Num_Not_Resolved_Atoms>  (584) 
nan

$$$$
CHEMBL3954326
     RDKit          3D

  0  0  0  0  0  0  0  0  0  0999 V3000
M  V30 BEGIN CTAB
M  V30 COUNTS 40 43 0 0 0
M  V30 BEGIN ATOM
M  V30 1 N 1.930039 -7.482580 -0.141108 0
M  V30 2 C 3.127243 -6.727383 -0.107340 0
M  V30 3 O 4.238500 -7.307019 -0.125584 0
M  V30 4 C 3.004797 -5.275942 -0.051605 0
M  V30 5 C 4.148783 -4.507772 -0.018208 0
M  V30 6 C 4.050330 -3.114405 0.035422 0
M  V30 7 C 2.830627 -2.471081 0.056429 0
M  V30 8 N 2.529798 -1.162361 0.106121 0
M  V30 9 C 1.172557 -1.101325 0.104136 0
M  V30 10 C 0.395428 0.141843 0.149776 0
M  V30 11 C 1.101863 1.327113 0.197989 0
M  V30 12 C 0.334810 2.475460 0.239955 0
M  V30 13 C -1.053960 2.472727 0.235311 0
M  V30 14 C -1.845245 3.710005 0.280673 0
M  V30 15 O -2.862934 3.562441 -0.688871 0
M  V30 16 C -2.443434 3.875759 1.586120 0
M  V30 17 C -2.254309 3.395069 2.827656 0
M  V30 18 C -2.999091 3.743931 3.902569 0
M  V30 19 C -4.058399 4.721107 3.573615 0
M  V30 20 S -3.839785 5.001319 1.780284 0
M  V30 21 C -1.702171 1.258712 0.186175 0
M  V30 22 C -0.982967 0.060686 0.142127 0
M  V30 23 N 0.677150 -2.364716 0.053650 0
M  V30 24 C 1.704470 -3.264238 0.022122 0
M  V30 25 C 1.784676 -4.642377 -0.030976 0
M  V30 26 H 1.265362 -7.233205 0.635839 0
M  V30 27 H 1.059282 -8.040210 -0.175612 0
M  V30 28 H 5.061112 -5.073025 -0.037207 0
M  V30 29 H 5.015395 -2.616752 0.057765 0
M  V30 30 H 3.214691 -0.378378 0.138662 0
M  V30 31 H 2.178477 1.378391 0.203492 0
M  V30 32 H 0.776595 3.451999 0.279220 0
M  V30 33 H -1.203883 4.594654 0.073221 0
M  V30 34 H -3.756130 3.650749 -0.293489 0
M  V30 35 H -1.435595 2.691877 2.880963 0
M  V30 36 H -2.845096 3.356877 4.896678 0
M  V30 37 H -4.726586 5.042491 4.505490 0
M  V30 38 H -2.789053 1.134974 0.177829 0
M  V30 39 H -1.481964 -0.901022 0.103248 0
M  V30 40 H 0.882098 -5.232841 -0.056711 0
M  V30 END ATOM
M  V30 BEGIN BOND
M  V30 1 1 1 2
M  V30 2 2 2 3
M  V30 3 1 2 4
M  V30 4 2 4 5
M  V30 5 1 5 6
M  V30 6 2 6 7
M  V30 7 1 7 8
M  V30 8 1 8 9
M  V30 9 1 9 10
M  V30 10 2 10 11
M  V30 11 1 11 12
M  V30 12 2 12 13
M  V30 13 1 13 14
M  V30 14 1 14 15
M  V30 15 1 14 16
M  V30 16 2 16 17
M  V30 17 1 17 18
M  V30 18 2 18 19
M  V30 19 1 19 20
M  V30 20 1 13 21
M  V30 21 2 21 22
M  V30 22 2 9 23
M  V30 23 1 23 24
M  V30 24 2 24 25
M  V30 25 1 25 4
M  V30 26 1 24 7
M  V30 27 1 22 10
M  V30 28 1 20 16
M  V30 29 1 1 26
M  V30 30 1 1 27
M  V30 31 1 5 28
M  V30 32 1 6 29
M  V30 33 1 8 30
M  V30 34 1 11 31
M  V30 35 1 12 32
M  V30 36 1 14 33
M  V30 37 1 15 34
M  V30 38 1 17 35
M  V30 39 1 18 36
M  V30 40 1 19 37
M  V30 41 1 21 38
M  V30 42 1 22 39
M  V30 43 1 25 40
M  V30 END BOND
M  V30 END CTAB
M  END
>  <Dataset>  (585) 
ChEMBL_Kinases

>  <Ligand_Instance>  (585) 
nan

>  <PDB_ID>  (585) 
nan

>  <Standardized_SMILES>  (585) 
NC(=O)c1ccc2[nH]c(-c3ccc(C(O)c4cccs4)cc3)nc2c1

>  <Name>  (585) 
nan

>  <Pocket>  (585) 
nan

>  <ATP_Site>  (585) 
nan

>  <Peripheral>  (585) 
nan

>  <Num_H_Atoms_ProtBoundConf>  (585) 
nan

>  <Num_Resolved_Atoms>  (585) 
nan

>  <Num_Not_Resolved_Atoms>  (585) 
nan

$$$$
CHEMBL4874546
     RDKit          3D

  0  0  0  0  0  0  0  0  0  0999 V3000
M  V30 BEGIN CTAB
M  V30 COUNTS 78 84 0 0 0
M  V30 BEGIN ATOM
M  V30 1 C 5.136578 1.158504 4.890469 0
M  V30 2 C 4.596697 -0.032595 5.082726 0
M  V30 3 C 3.135015 -0.159398 5.056334 0
M  V30 4 N 2.731791 -1.087604 3.992004 0
M  V30 5 C 2.654337 -2.417621 4.284226 0
M  V30 6 O 2.885611 -3.031488 5.333939 0
M  V30 7 C 2.239547 -3.037874 3.122508 0
M  V30 8 C 1.947771 -4.324366 2.692376 0
M  V30 9 N 1.546390 -4.540586 1.435704 0
M  V30 10 C 1.393882 -3.576096 0.512561 0
M  V30 11 N 0.939436 -4.170464 -0.689511 0
M  V30 12 C -0.207222 -3.621277 -1.325995 0
M  V30 13 C -0.759381 -2.399897 -1.038803 0
M  V30 14 C -1.894546 -1.929233 -1.656501 0
M  V30 15 C -2.552707 -2.663624 -2.609386 0
M  V30 16 C -2.015903 -3.892671 -2.913759 0
M  V30 17 C -2.864612 -4.405887 -3.876764 0
M  V30 18 C -3.825574 -3.474464 -4.076279 0
M  V30 19 N -3.674763 -2.361853 -3.305375 0
M  V30 20 C -4.544715 -1.218883 -3.336357 0
M  V30 21 C -4.973240 -0.661206 -2.023473 0
M  V30 22 C -5.429019 -1.753528 -1.123082 0
M  V30 23 N -6.220332 -2.694496 -1.783653 0
M  V30 24 C -7.045248 -3.526456 -0.965908 0
M  V30 25 C -6.702985 -2.454211 -3.089028 0
M  V30 26 C -5.860598 -1.651489 -4.010465 0
M  V30 27 C -0.886859 -4.352083 -2.295813 0
M  V30 28 N 1.675631 -2.334252 0.924574 0
M  V30 29 C 2.083475 -2.056301 2.175228 0
M  V30 30 N 2.388147 -0.868999 2.721698 0
M  V30 31 C 2.378245 0.439360 2.171333 0
M  V30 32 C 1.106098 0.721616 1.654433 0
M  V30 33 C 0.885308 1.975357 1.071850 0
M  V30 34 C 1.946216 2.875133 1.038499 0
M  V30 35 C 3.204768 2.562252 1.563324 0
M  V30 36 N 3.355453 1.360154 2.102969 0
M  V30 37 C 4.098766 3.728810 1.379026 0 CFG=1
M  V30 38 O 4.413045 4.283017 2.635665 0
M  V30 39 C 5.416321 3.395933 0.740212 0
M  V30 40 C 5.266990 2.793634 -0.623198 0
M  V30 41 C 3.312288 4.758134 0.638394 0
M  V30 42 C 1.913680 4.239790 0.468641 0
M  V30 43 H 5.037204 2.201388 4.702738 0
M  V30 44 H 6.054030 1.709117 4.821402 0
M  V30 45 H 5.309799 -0.824881 5.243368 0
M  V30 46 H 2.776685 -0.531407 6.035868 0
M  V30 47 H 2.635714 0.826493 4.873059 0
M  V30 48 H 2.079459 -5.081140 3.459157 0
M  V30 49 H 1.406663 -4.987376 -1.133652 0
M  V30 50 H -0.269633 -1.780343 -0.288595 0
M  V30 51 H -2.239651 -0.976453 -1.367580 0
M  V30 52 H -2.672401 -5.392197 -4.307357 0
M  V30 53 H -4.576026 -3.741800 -4.819834 0
M  V30 54 H -4.079403 -0.435027 -3.993706 0
M  V30 55 H -4.292719 0.085883 -1.568298 0
M  V30 56 H -5.911984 -0.047663 -2.237814 0
M  V30 57 H -4.531440 -2.143006 -0.568835 0
M  V30 58 H -6.064002 -1.253868 -0.327697 0
M  V30 59 H -7.727691 -4.116736 -1.576647 0
M  V30 60 H -6.375069 -4.230854 -0.418635 0
M  V30 61 H -7.543670 -2.870749 -0.211105 0
M  V30 62 H -7.703425 -1.937815 -3.008178 0
M  V30 63 H -6.897260 -3.448773 -3.578904 0
M  V30 64 H -5.672472 -2.096884 -5.006583 0
M  V30 65 H -6.342028 -0.652284 -4.261046 0
M  V30 66 H -0.503418 -5.323984 -2.572263 0
M  V30 67 H 0.247638 0.068062 1.650839 0
M  V30 68 H -0.095609 2.224382 0.661582 0
M  V30 69 H 3.591576 4.169077 3.209261 0
M  V30 70 H 6.031858 2.758491 1.391529 0
M  V30 71 H 6.002695 4.348046 0.632796 0
M  V30 72 H 4.793138 1.786851 -0.539091 0
M  V30 73 H 4.678344 3.455732 -1.256563 0
M  V30 74 H 6.308546 2.651203 -1.020355 0
M  V30 75 H 3.801703 5.015000 -0.315926 0
M  V30 76 H 3.252098 5.727754 1.203480 0
M  V30 77 H 1.650975 4.200651 -0.609057 0
M  V30 78 H 1.180849 4.901853 0.979218 0
M  V30 END ATOM
M  V30 BEGIN BOND
M  V30 1 2 1 2
M  V30 2 1 2 3
M  V30 3 1 3 4
M  V30 4 1 4 5
M  V30 5 2 5 6
M  V30 6 1 5 7
M  V30 7 2 7 8
M  V30 8 1 8 9
M  V30 9 2 9 10
M  V30 10 1 10 11
M  V30 11 1 11 12
M  V30 12 2 12 13
M  V30 13 1 13 14
M  V30 14 2 14 15
M  V30 15 1 15 16
M  V30 16 1 16 17
M  V30 17 2 17 18
M  V30 18 1 18 19
M  V30 19 1 19 20
M  V30 20 1 20 21
M  V30 21 1 21 22
M  V30 22 1 22 23
M  V30 23 1 23 24
M  V30 24 1 23 25
M  V30 25 1 25 26
M  V30 26 2 16 27
M  V30 27 1 10 28
M  V30 28 2 28 29
M  V30 29 1 29 30
M  V30 30 1 30 31
M  V30 31 2 31 32
M  V30 32 1 32 33
M  V30 33 2 33 34
M  V30 34 1 34 35
M  V30 35 2 35 36
M  V30 36 1 35 37
M  V30 37 1 37 38 CFG=1
M  V30 38 1 37 39
M  V30 39 1 39 40
M  V30 40 1 37 41
M  V30 41 1 41 42
M  V30 42 1 30 4
M  V30 43 1 36 31
M  V30 44 1 29 7
M  V30 45 1 42 34
M  V30 46 1 27 12
M  V30 47 1 19 15
M  V30 48 1 26 20
M  V30 49 1 1 43
M  V30 50 1 1 44
M  V30 51 1 2 45
M  V30 52 1 3 46
M  V30 53 1 3 47
M  V30 54 1 8 48
M  V30 55 1 11 49
M  V30 56 1 13 50
M  V30 57 1 14 51
M  V30 58 1 17 52
M  V30 59 1 18 53
M  V30 60 1 20 54
M  V30 61 1 21 55
M  V30 62 1 21 56
M  V30 63 1 22 57
M  V30 64 1 22 58
M  V30 65 1 24 59
M  V30 66 1 24 60
M  V30 67 1 24 61
M  V30 68 1 25 62
M  V30 69 1 25 63
M  V30 70 1 26 64
M  V30 71 1 26 65
M  V30 72 1 27 66
M  V30 73 1 32 67
M  V30 74 1 33 68
M  V30 75 1 38 69
M  V30 76 1 39 70
M  V30 77 1 39 71
M  V30 78 1 40 72
M  V30 79 1 40 73
M  V30 80 1 40 74
M  V30 81 1 41 75
M  V30 82 1 41 76
M  V30 83 1 42 77
M  V30 84 1 42 78
M  V30 END BOND
M  V30 END CTAB
M  END
>  <Dataset>  (586) 
ChEMBL_Kinases

>  <Ligand_Instance>  (586) 
nan

>  <PDB_ID>  (586) 
nan

>  <Standardized_SMILES>  (586) 
C=CCn1c(=O)c2cnc(Nc3ccc4c(ccn4C4CCN(C)CC4)c3)nc2n1-c1ccc2c(n1)[C@@](O)(CC)CC2

>  <Name>  (586) 
nan

>  <Pocket>  (586) 
nan

>  <ATP_Site>  (586) 
nan

>  <Peripheral>  (586) 
nan

>  <Num_H_Atoms_ProtBoundConf>  (586) 
nan

>  <Num_Resolved_Atoms>  (586) 
nan

>  <Num_Not_Resolved_Atoms>  (586) 
nan

$$$$
CHEMBL4874586
     RDKit          3D

  0  0  0  0  0  0  0  0  0  0999 V3000
M  V30 BEGIN CTAB
M  V30 COUNTS 57 61 0 0 0
M  V30 BEGIN ATOM
M  V30 1 C 7.082889 -5.152391 4.062716 0
M  V30 2 C 6.245633 -4.239577 3.249902 0
M  V30 3 C 5.868035 -3.002556 3.731256 0
M  V30 4 C 5.087669 -2.209941 2.915180 0
M  V30 5 C 4.669060 -2.584978 1.655682 0
M  V30 6 C 3.845266 -1.777272 0.765041 0
M  V30 7 C 3.390514 -0.526542 1.118752 0
M  V30 8 C 2.612595 0.246488 0.306600 0
M  V30 9 N 2.169973 1.554973 0.722635 0
M  V30 10 C 1.205773 2.335942 0.033605 0
M  V30 11 C 1.598935 3.565812 -0.476443 0
M  V30 12 C 0.604035 4.281443 -1.140711 0
M  V30 13 N -0.670160 3.863110 -1.309608 0
M  V30 14 C -1.061553 2.677973 -0.821365 0
M  V30 15 C -2.360342 2.235435 -0.979332 0
M  V30 16 C -2.757942 1.016445 -0.468708 0
M  V30 17 C -4.108184 0.448201 -0.579002 0
M  V30 18 C -4.606587 -0.371369 0.404876 0
M  V30 19 C -5.870918 -0.931219 0.345496 0
M  V30 20 C -6.656593 -0.654617 -0.741674 0
M  V30 21 S -8.255066 -1.318952 -0.892809 0
M  V30 22 C -8.264807 -2.872637 -1.736753 0
M  V30 23 O -9.182527 -0.387322 -1.619714 0
M  V30 24 O -8.810553 -1.551651 0.506171 0
M  V30 25 C -6.143042 0.174685 -1.729985 0
M  V30 26 C -4.869229 0.750351 -1.689767 0
M  V30 27 C -1.822227 0.250261 0.205243 0
M  V30 28 C -0.524386 0.722314 0.347603 0
M  V30 29 C -0.109140 1.931821 -0.154076 0
M  V30 30 C 2.286806 -0.302816 -0.938941 0
M  V30 31 C 2.736352 -1.551355 -1.301000 0
M  V30 32 N 3.500713 -2.271462 -0.462018 0
M  V30 33 C 5.087802 -3.834677 1.246978 0
M  V30 34 C 5.867765 -4.686754 2.001309 0
M  V30 35 H 8.159601 -5.090730 3.789175 0
M  V30 36 H 7.043089 -4.909367 5.146704 0
M  V30 37 H 6.795332 -6.210879 3.946018 0
M  V30 38 H 6.170349 -2.664391 4.709789 0
M  V30 39 H 4.785414 -1.239621 3.280115 0
M  V30 40 H 3.633116 -0.087756 2.075841 0
M  V30 41 H 2.580101 1.946480 1.572840 0
M  V30 42 H 2.591176 3.955440 -0.377845 0
M  V30 43 H 0.835828 5.257690 -1.569266 0
M  V30 44 H -3.107834 2.814115 -1.500419 0
M  V30 45 H -4.031468 -0.629051 1.293535 0
M  V30 46 H -6.305685 -1.580102 1.092799 0
M  V30 47 H -7.243148 -3.315956 -1.676725 0
M  V30 48 H -9.015734 -3.574963 -1.299627 0
M  V30 49 H -8.475930 -2.674038 -2.807581 0
M  V30 50 H -6.738344 0.417450 -2.608965 0
M  V30 51 H -4.528619 1.387159 -2.491350 0
M  V30 52 H -2.107555 -0.716793 0.619355 0
M  V30 53 H 0.139293 0.073495 0.890547 0
M  V30 54 H 1.668331 0.300586 -1.595047 0
M  V30 55 H 2.462380 -1.937666 -2.269469 0
M  V30 56 H 4.790728 -4.196664 0.255096 0
M  V30 57 H 6.175034 -5.665355 1.638427 0
M  V30 END ATOM
M  V30 BEGIN BOND
M  V30 1 1 1 2
M  V30 2 2 2 3
M  V30 3 1 3 4
M  V30 4 2 4 5
M  V30 5 1 5 6
M  V30 6 2 6 7
M  V30 7 1 7 8
M  V30 8 1 8 9
M  V30 9 1 9 10
M  V30 10 2 10 11
M  V30 11 1 11 12
M  V30 12 2 12 13
M  V30 13 1 13 14
M  V30 14 2 14 15
M  V30 15 1 15 16
M  V30 16 1 16 17
M  V30 17 2 17 18
M  V30 18 1 18 19
M  V30 19 2 19 20
M  V30 20 1 20 21
M  V30 21 1 21 22
M  V30 22 2 21 23
M  V30 23 2 21 24
M  V30 24 1 20 25
M  V30 25 2 25 26
M  V30 26 2 16 27
M  V30 27 1 27 28
M  V30 28 2 28 29
M  V30 29 2 8 30
M  V30 30 1 30 31
M  V30 31 2 31 32
M  V30 32 1 5 33
M  V30 33 2 33 34
M  V30 34 1 34 2
M  V30 35 1 32 6
M  V30 36 1 29 10
M  V30 37 1 29 14
M  V30 38 1 26 17
M  V30 39 1 1 35
M  V30 40 1 1 36
M  V30 41 1 1 37
M  V30 42 1 3 38
M  V30 43 1 4 39
M  V30 44 1 7 40
M  V30 45 1 9 41
M  V30 46 1 11 42
M  V30 47 1 12 43
M  V30 48 1 15 44
M  V30 49 1 18 45
M  V30 50 1 19 46
M  V30 51 1 22 47
M  V30 52 1 22 48
M  V30 53 1 22 49
M  V30 54 1 25 50
M  V30 55 1 26 51
M  V30 56 1 27 52
M  V30 57 1 28 53
M  V30 58 1 30 54
M  V30 59 1 31 55
M  V30 60 1 33 56
M  V30 61 1 34 57
M  V30 END BOND
M  V30 END CTAB
M  END
>  <Dataset>  (587) 
ChEMBL_Kinases

>  <Ligand_Instance>  (587) 
nan

>  <PDB_ID>  (587) 
nan

>  <Standardized_SMILES>  (587) 
Cc1ccc(-c2cc(Nc3ccnc4cc(-c5ccc(S(C)(=O)=O)cc5)ccc34)ccn2)cc1

>  <Name>  (587) 
nan

>  <Pocket>  (587) 
nan

>  <ATP_Site>  (587) 
nan

>  <Peripheral>  (587) 
nan

>  <Num_H_Atoms_ProtBoundConf>  (587) 
nan

>  <Num_Resolved_Atoms>  (587) 
nan

>  <Num_Not_Resolved_Atoms>  (587) 
nan

$$$$
CHEMBL4874623
     RDKit          3D

  0  0  0  0  0  0  0  0  0  0999 V3000
M  V30 BEGIN CTAB
M  V30 COUNTS 33 36 0 0 0
M  V30 BEGIN ATOM
M  V30 1 F -5.378150 -3.868777 2.026448 0
M  V30 2 C -4.128581 -3.456660 1.699964 0
M  V30 3 C -3.109817 -3.463569 2.631044 0
M  V30 4 C -1.806475 -3.053585 2.359874 0
M  V30 5 C -1.579281 -2.622600 1.057342 0
M  V30 6 C -0.392276 -2.154430 0.479430 0
M  V30 7 N 0.862898 -2.015006 1.107648 0
M  V30 8 C 2.065949 -1.530998 0.489886 0
M  V30 9 C 2.006600 -0.170214 -0.034434 0
M  V30 10 C 1.659083 0.277895 -1.290635 0
M  V30 11 C 1.670778 1.628265 -1.566217 0
M  V30 12 C 2.015747 2.586764 -0.646216 0
M  V30 13 C 2.371031 2.156196 0.631306 0
M  V30 14 C 2.356118 0.815606 0.894109 0
M  V30 15 O 2.660654 3.310748 1.322080 0
M  V30 16 C 2.072837 4.440894 0.681652 0
M  V30 17 O 2.105641 3.983437 -0.673439 0
M  V30 18 N -0.721115 -1.873402 -0.794512 0
M  V30 19 N -1.991153 -2.133819 -1.015898 0
M  V30 20 C -2.569191 -2.601258 0.101563 0
M  V30 21 C -3.855129 -3.019172 0.415910 0
M  V30 22 H -3.363274 -3.814016 3.628989 0
M  V30 23 H -1.075764 -3.091243 3.141872 0
M  V30 24 H 0.929909 -2.291299 2.129758 0
M  V30 25 H 2.227071 -2.206558 -0.403949 0
M  V30 26 H 2.941684 -1.651066 1.137514 0
M  V30 27 H 1.398843 -0.502508 -1.977873 0
M  V30 28 H 1.387032 1.913186 -2.572769 0
M  V30 29 H 2.651913 0.586915 1.927467 0
M  V30 30 H 2.616759 5.369597 0.840757 0
M  V30 31 H 1.009738 4.456477 0.998233 0
M  V30 32 H -2.497248 -2.002797 -1.923896 0
M  V30 33 H -4.601850 -2.985073 -0.367902 0
M  V30 END ATOM
M  V30 BEGIN BOND
M  V30 1 1 1 2
M  V30 2 2 2 3
M  V30 3 1 3 4
M  V30 4 2 4 5
M  V30 5 1 5 6
M  V30 6 1 6 7
M  V30 7 1 7 8
M  V30 8 1 8 9
M  V30 9 2 9 10
M  V30 10 1 10 11
M  V30 11 2 11 12
M  V30 12 1 12 13
M  V30 13 2 13 14
M  V30 14 1 13 15
M  V30 15 1 15 16
M  V30 16 1 16 17
M  V30 17 2 6 18
M  V30 18 1 18 19
M  V30 19 1 19 20
M  V30 20 2 20 21
M  V30 21 1 21 2
M  V30 22 1 20 5
M  V30 23 1 14 9
M  V30 24 1 17 12
M  V30 25 1 3 22
M  V30 26 1 4 23
M  V30 27 1 7 24
M  V30 28 1 8 25
M  V30 29 1 8 26
M  V30 30 1 10 27
M  V30 31 1 11 28
M  V30 32 1 14 29
M  V30 33 1 16 30
M  V30 34 1 16 31
M  V30 35 1 19 32
M  V30 36 1 21 33
M  V30 END BOND
M  V30 END CTAB
M  END
>  <Dataset>  (588) 
ChEMBL_Kinases

>  <Ligand_Instance>  (588) 
nan

>  <PDB_ID>  (588) 
nan

>  <Standardized_SMILES>  (588) 
Fc1ccc2c(NCc3ccc4c(c3)OCO4)n[nH]c2c1

>  <Name>  (588) 
nan

>  <Pocket>  (588) 
nan

>  <ATP_Site>  (588) 
nan

>  <Peripheral>  (588) 
nan

>  <Num_H_Atoms_ProtBoundConf>  (588) 
nan

>  <Num_Resolved_Atoms>  (588) 
nan

>  <Num_Not_Resolved_Atoms>  (588) 
nan

$$$$
CHEMBL4874631
     RDKit          3D

  0  0  0  0  0  0  0  0  0  0999 V3000
M  V30 BEGIN CTAB
M  V30 COUNTS 45 47 0 0 0
M  V30 BEGIN ATOM
M  V30 1 C 0.630986 -5.042510 0.563450 0
M  V30 2 N -0.420059 -4.078760 0.316477 0
M  V30 3 C -1.748360 -4.539866 0.702600 0
M  V30 4 C -0.260729 -2.812008 -0.222413 0
M  V30 5 O 0.666101 -3.604739 -0.069980 0
M  V30 6 C -0.189541 -1.485511 -0.769269 0
M  V30 7 C 1.162806 -1.087078 -0.907947 0
M  V30 8 C 1.246041 0.245145 -1.265169 0
M  V30 9 C 0.097967 1.035199 -1.443500 0
M  V30 10 C 0.396320 2.504299 -1.555373 0
M  V30 11 C -0.459102 3.210637 -0.450286 0
M  V30 12 N -0.555150 2.218454 0.661174 0
M  V30 13 C 0.808315 2.096450 1.197227 0
M  V30 14 N 1.882548 2.619855 0.668540 0
M  V30 15 C 3.119656 2.222780 1.058745 0
M  V30 16 N 3.105548 1.269946 2.008317 0
M  V30 17 C 1.969711 0.759321 2.527105 0
M  V30 18 C 2.245976 -0.204439 3.461285 0
M  V30 19 C 1.091991 -0.720314 3.969843 0
M  V30 20 C -0.202947 -0.443848 3.719845 0
M  V30 21 C -1.312787 -1.035016 4.368789 0
M  V30 22 N -2.228437 -1.523592 4.908326 0
M  V30 23 C -0.411641 0.544046 2.752565 0
M  V30 24 C 0.662244 1.156724 2.147604 0
M  V30 25 C -1.173201 0.581355 -1.297928 0
M  V30 26 C -1.341326 -0.773390 -0.936121 0
M  V30 27 H 1.423073 -5.067718 -0.221174 0
M  V30 28 H 0.167340 -6.050901 0.672224 0
M  V30 29 H 1.033296 -4.751508 1.580291 0
M  V30 30 H -1.777770 -4.498975 1.823743 0
M  V30 31 H -2.566011 -3.925672 0.315526 0
M  V30 32 H -1.837666 -5.637799 0.448027 0
M  V30 33 H 2.017212 -1.690250 -0.764338 0
M  V30 34 H 2.278408 0.603804 -1.363220 0
M  V30 35 H 0.041407 2.899022 -2.520626 0
M  V30 36 H 1.403552 2.717653 -1.403573 0
M  V30 37 H -1.362018 3.514539 -0.889547 0
M  V30 38 H 0.140776 4.020656 -0.006933 0
M  V30 39 H -1.484038 1.870878 0.821165 0
M  V30 40 H 3.811445 2.783824 0.465304 0
M  V30 41 H 3.231923 -0.531983 3.744789 0
M  V30 42 H 1.180968 -1.498748 4.714295 0
M  V30 43 H -1.360006 0.916609 2.412980 0
M  V30 44 H -2.039227 1.168575 -1.444569 0
M  V30 45 H -2.256762 -1.328152 -0.778123 0
M  V30 END ATOM
M  V30 BEGIN BOND
M  V30 1 1 1 2
M  V30 2 1 2 3
M  V30 3 1 2 4
M  V30 4 2 4 5
M  V30 5 1 4 6
M  V30 6 2 6 7
M  V30 7 1 7 8
M  V30 8 2 8 9
M  V30 9 1 9 10
M  V30 10 1 10 11
M  V30 11 1 11 12
M  V30 12 1 12 13
M  V30 13 2 13 14
M  V30 14 1 14 15
M  V30 15 2 15 16
M  V30 16 1 16 17
M  V30 17 2 17 18
M  V30 18 1 18 19
M  V30 19 2 19 20
M  V30 20 1 20 21
M  V30 21 3 21 22
M  V30 22 1 20 23
M  V30 23 2 23 24
M  V30 24 1 9 25
M  V30 25 2 25 26
M  V30 26 1 26 6
M  V30 27 1 24 13
M  V30 28 1 24 17
M  V30 29 1 1 27
M  V30 30 1 1 28
M  V30 31 1 1 29
M  V30 32 1 3 30
M  V30 33 1 3 31
M  V30 34 1 3 32
M  V30 35 1 7 33
M  V30 36 1 8 34
M  V30 37 1 10 35
M  V30 38 1 10 36
M  V30 39 1 11 37
M  V30 40 1 11 38
M  V30 41 1 12 39
M  V30 42 1 15 40
M  V30 43 1 18 41
M  V30 44 1 19 42
M  V30 45 1 23 43
M  V30 46 1 25 44
M  V30 47 1 26 45
M  V30 END BOND
M  V30 END CTAB
M  END
>  <Dataset>  (589) 
ChEMBL_Kinases

>  <Ligand_Instance>  (589) 
nan

>  <PDB_ID>  (589) 
nan

>  <Standardized_SMILES>  (589) 
CN(C)C(=O)c1ccc(CCNc2ncnc3ccc(C#N)cc23)cc1

>  <Name>  (589) 
nan

>  <Pocket>  (589) 
nan

>  <ATP_Site>  (589) 
nan

>  <Peripheral>  (589) 
nan

>  <Num_H_Atoms_ProtBoundConf>  (589) 
nan

>  <Num_Resolved_Atoms>  (589) 
nan

>  <Num_Not_Resolved_Atoms>  (589) 
nan

$$$$
CHEMBL4874923
     RDKit          3D

  0  0  0  0  0  0  0  0  0  0999 V3000
M  V30 BEGIN CTAB
M  V30 COUNTS 34 36 0 0 0
M  V30 BEGIN ATOM
M  V30 1 C -0.005272 -1.003359 3.373005 0
M  V30 2 O 0.382174 -1.256535 2.052136 0
M  V30 3 C 0.949702 -2.420246 1.642168 0
M  V30 4 C 1.220740 -3.510802 2.477091 0
M  V30 5 C 1.806600 -4.607363 1.861976 0
M  V30 6 N 2.113560 -4.672422 0.560099 0
M  V30 7 N 1.853470 -3.627480 -0.240679 0
M  V30 8 N 2.067400 -3.447912 -1.539763 0
M  V30 9 C 1.661126 -2.244248 -1.942432 0
M  V30 10 C 1.162983 -1.641479 -0.810014 0
M  V30 11 C 0.590433 -0.314902 -0.577082 0
M  V30 12 C 1.640856 0.566529 -0.304277 0
M  V30 13 C 1.410779 1.911860 -0.006145 0
M  V30 14 N 0.121771 2.366686 0.015559 0
M  V30 15 C -0.893742 1.489905 -0.254619 0
M  V30 16 N -2.275536 1.822786 -0.285368 0
M  V30 17 C -2.710793 1.881990 1.100222 0
M  V30 18 C -2.980084 2.024907 -1.547944 0
M  V30 19 N -0.636183 0.196999 -0.538386 0
M  V30 20 C 1.276444 -2.506563 0.286256 0
M  V30 21 H 0.896272 -0.896227 4.007974 0
M  V30 22 H -0.648115 -1.772303 3.830159 0
M  V30 23 H -0.615585 -0.053920 3.398218 0
M  V30 24 H 0.949381 -3.390122 3.516450 0
M  V30 25 H 1.990036 -5.417903 2.560379 0
M  V30 26 H 1.642778 -1.700245 -2.875360 0
M  V30 27 H 2.722436 0.366061 -0.276352 0
M  V30 28 H 2.177801 2.636226 0.219858 0
M  V30 29 H -2.568731 0.875433 1.540138 0
M  V30 30 H -2.137859 2.661329 1.638939 0
M  V30 31 H -3.790796 2.112730 1.178820 0
M  V30 32 H -3.916376 2.569332 -1.418446 0
M  V30 33 H -2.275701 2.480399 -2.256946 0
M  V30 34 H -3.183574 0.977375 -1.927390 0
M  V30 END ATOM
M  V30 BEGIN BOND
M  V30 1 1 1 2
M  V30 2 1 2 3
M  V30 3 2 3 4
M  V30 4 1 4 5
M  V30 5 2 5 6
M  V30 6 1 6 7
M  V30 7 1 7 8
M  V30 8 2 8 9
M  V30 9 1 9 10
M  V30 10 1 10 11
M  V30 11 2 11 12
M  V30 12 1 12 13
M  V30 13 2 13 14
M  V30 14 1 14 15
M  V30 15 1 15 16
M  V30 16 1 16 17
M  V30 17 1 16 18
M  V30 18 2 15 19
M  V30 19 2 10 20
M  V30 20 1 20 3
M  V30 21 1 20 7
M  V30 22 1 19 11
M  V30 23 1 1 21
M  V30 24 1 1 22
M  V30 25 1 1 23
M  V30 26 1 4 24
M  V30 27 1 5 25
M  V30 28 1 9 26
M  V30 29 1 12 27
M  V30 30 1 13 28
M  V30 31 1 17 29
M  V30 32 1 17 30
M  V30 33 1 17 31
M  V30 34 1 18 32
M  V30 35 1 18 33
M  V30 36 1 18 34
M  V30 END BOND
M  V30 END CTAB
M  END
>  <Dataset>  (590) 
ChEMBL_Kinases

>  <Ligand_Instance>  (590) 
nan

>  <PDB_ID>  (590) 
nan

>  <Standardized_SMILES>  (590) 
COc1ccnn2ncc(-c3ccnc(N(C)C)n3)c12

>  <Name>  (590) 
nan

>  <Pocket>  (590) 
nan

>  <ATP_Site>  (590) 
nan

>  <Peripheral>  (590) 
nan

>  <Num_H_Atoms_ProtBoundConf>  (590) 
nan

>  <Num_Resolved_Atoms>  (590) 
nan

>  <Num_Not_Resolved_Atoms>  (590) 
nan

$$$$
CHEMBL4874679
     RDKit          3D

  0  0  0  0  0  0  0  0  0  0999 V3000
M  V30 BEGIN CTAB
M  V30 COUNTS 35 39 0 0 0
M  V30 BEGIN ATOM
M  V30 1 C 1.437452 -1.584005 4.195657 0
M  V30 2 C 1.957305 -2.710224 4.778520 0
M  V30 3 N 2.210662 -3.783946 3.997120 0
M  V30 4 N 1.981660 -3.798041 2.704574 0
M  V30 5 N 2.156020 -4.723790 1.787659 0
M  V30 6 C 1.773879 -4.281294 0.576880 0
M  V30 7 C 1.322549 -2.985882 0.715617 0
M  V30 8 C 0.807770 -2.095936 -0.318947 0
M  V30 9 C 0.742242 -2.556876 -1.616857 0
M  V30 10 C 0.261180 -1.757149 -2.648540 0
M  V30 11 N -0.143819 -0.501942 -2.335248 0
M  V30 12 C -0.083551 -0.038006 -1.060315 0
M  V30 13 N -0.497637 1.273751 -0.682285 0
M  V30 14 C -0.488483 1.896940 0.632647 0
M  V30 15 C -1.903847 2.412837 0.693136 0
M  V30 16 C -2.293752 3.724196 0.159546 0
M  V30 17 C -2.329286 2.591215 -0.774124 0
M  V30 18 C -1.038209 2.321633 -1.537041 0
M  V30 19 N 0.388990 -0.829801 -0.059540 0
M  V30 20 C 1.471024 -2.726348 2.061879 0
M  V30 21 C 1.210046 -1.631524 2.844087 0
M  V30 22 H 1.237433 -0.729587 4.826262 0
M  V30 23 H 2.162701 -2.748382 5.834755 0
M  V30 24 H 1.807189 -4.837443 -0.368218 0
M  V30 25 H 1.068522 -3.570682 -1.874476 0
M  V30 26 H 0.187530 -2.066767 -3.684002 0
M  V30 27 H -0.318953 1.156816 1.439371 0
M  V30 28 H 0.253207 2.726009 0.658403 0
M  V30 29 H -2.576323 1.889633 1.387884 0
M  V30 30 H -3.276080 4.100209 0.489922 0
M  V30 31 H -1.573440 4.535815 -0.078555 0
M  V30 32 H -3.228248 2.017006 -1.027988 0
M  V30 33 H -0.382424 3.216157 -1.482458 0
M  V30 34 H -1.209480 1.983148 -2.559739 0
M  V30 35 H 0.800332 -0.759193 2.353705 0
M  V30 END ATOM
M  V30 BEGIN BOND
M  V30 1 1 1 2
M  V30 2 2 2 3
M  V30 3 1 3 4
M  V30 4 1 4 5
M  V30 5 2 5 6
M  V30 6 1 6 7
M  V30 7 1 7 8
M  V30 8 2 8 9
M  V30 9 1 9 10
M  V30 10 2 10 11
M  V30 11 1 11 12
M  V30 12 1 12 13
M  V30 13 1 13 14
M  V30 14 1 14 15
M  V30 15 1 15 16
M  V30 16 1 16 17
M  V30 17 1 17 18
M  V30 18 2 12 19
M  V30 19 2 7 20
M  V30 20 1 20 21
M  V30 21 2 21 1
M  V30 22 1 20 4
M  V30 23 1 19 8
M  V30 24 1 18 13
M  V30 25 1 17 15
M  V30 26 1 1 22
M  V30 27 1 2 23
M  V30 28 1 6 24
M  V30 29 1 9 25
M  V30 30 1 10 26
M  V30 31 1 14 27
M  V30 32 1 14 28
M  V30 33 1 15 29
M  V30 34 1 16 30
M  V30 35 1 16 31
M  V30 36 1 17 32
M  V30 37 1 18 33
M  V30 38 1 18 34
M  V30 39 1 21 35
M  V30 END BOND
M  V30 END CTAB
M  END
>  <Dataset>  (591) 
ChEMBL_Kinases

>  <Ligand_Instance>  (591) 
nan

>  <PDB_ID>  (591) 
nan

>  <Standardized_SMILES>  (591) 
c1cnn2ncc(-c3ccnc(N4CC5CC5C4)n3)c2c1

>  <Name>  (591) 
nan

>  <Pocket>  (591) 
nan

>  <ATP_Site>  (591) 
nan

>  <Peripheral>  (591) 
nan

>  <Num_H_Atoms_ProtBoundConf>  (591) 
nan

>  <Num_Resolved_Atoms>  (591) 
nan

>  <Num_Not_Resolved_Atoms>  (591) 
nan

$$$$
CHEMBL4874692
     RDKit          3D

  0  0  0  0  0  0  0  0  0  0999 V3000
M  V30 BEGIN CTAB
M  V30 COUNTS 81 85 0 0 0
M  V30 BEGIN ATOM
M  V30 1 C 4.233722 -4.172716 5.401681 0
M  V30 2 C 3.483234 -3.235032 4.513959 0
M  V30 3 C 4.301682 -2.064609 4.122184 0
M  V30 4 O 5.501407 -1.910994 4.448759 0
M  V30 5 N 3.673912 -1.048348 3.319510 0
M  V30 6 C 4.321343 0.160783 2.843846 0 CFG=1
M  V30 7 C 4.252747 0.185501 1.354891 0
M  V30 8 C 3.007899 0.839507 0.801919 0
M  V30 9 C 2.893598 2.195804 1.441033 0 CFG=1
M  V30 10 N 2.019718 3.114163 0.783657 0
M  V30 11 C 2.514327 4.333278 0.420747 0
M  V30 12 O 3.701934 4.704037 0.630676 0
M  V30 13 C 1.730144 5.266693 -0.216734 0
M  V30 14 C 0.414985 4.960032 -0.492453 0
M  V30 15 C -0.486837 5.928931 -1.178059 0
M  V30 16 C -0.662658 5.500123 -2.595134 0
M  V30 17 C -0.069232 3.723748 -0.119053 0
M  V30 18 C -1.367106 3.344395 -0.363520 0
M  V30 19 N -1.870647 2.130851 -0.011208 0
M  V30 20 C -1.025763 1.258106 0.617705 0
M  V30 21 N -1.304836 -0.070051 1.069090 0
M  V30 22 C -1.922884 -1.072585 0.242362 0
M  V30 23 C -2.304507 -0.811240 -1.051288 0
M  V30 24 C -2.894234 -1.758360 -1.869954 0
M  V30 25 C -3.116970 -3.025597 -1.385226 0
M  V30 26 N -3.728833 -3.985004 -2.234463 0
M  V30 27 C -3.140088 -5.299279 -2.526777 0
M  V30 28 C -2.876928 -5.373728 -4.008455 0
M  V30 29 N -3.485590 -4.362413 -4.798448 0
M  V30 30 C -2.582733 -3.382053 -5.326159 0
M  V30 31 C -4.752388 -3.869216 -4.395402 0
M  V30 32 C -4.999708 -3.851465 -2.920240 0
M  V30 33 C -2.749239 -3.319221 -0.101013 0
M  V30 34 C -2.160470 -2.352182 0.700409 0
M  V30 35 O -1.762462 -2.579457 2.018937 0
M  V30 36 C -1.992479 -3.873210 2.552853 0
M  V30 37 N 0.267382 1.583064 0.884214 0
M  V30 38 C 0.733114 2.775664 0.529465 0
M  V30 39 C 2.523546 1.914974 2.882541 0
M  V30 40 C 3.759943 1.364754 3.526978 0
M  V30 41 H 4.238160 -5.182815 4.939759 0
M  V30 42 H 5.277921 -3.814499 5.541208 0
M  V30 43 H 3.676171 -4.247111 6.373730 0
M  V30 44 H 3.136355 -3.728940 3.567959 0
M  V30 45 H 2.576135 -2.843343 5.040684 0
M  V30 46 H 2.668551 -1.097735 2.998600 0
M  V30 47 H 5.386895 0.072558 3.139136 0
M  V30 48 H 5.107107 0.738480 0.918473 0
M  V30 49 H 4.307051 -0.826957 0.914026 0
M  V30 50 H 2.162883 0.193971 1.158852 0
M  V30 51 H 3.086066 0.868429 -0.283940 0
M  V30 52 H 3.939945 2.619480 1.488534 0
M  V30 53 H 2.078751 6.241419 -0.518246 0
M  V30 54 H -1.430783 6.091220 -0.624924 0
M  V30 55 H 0.045660 6.910883 -1.175838 0
M  V30 56 H -1.539829 5.981552 -3.071871 0
M  V30 57 H -0.637914 4.401422 -2.762340 0
M  V30 58 H 0.220180 5.877439 -3.180592 0
M  V30 59 H -2.066061 3.996267 -0.852330 0
M  V30 60 H -1.054939 -0.336704 2.060681 0
M  V30 61 H -2.141695 0.186380 -1.473485 0
M  V30 62 H -3.163439 -1.470462 -2.876297 0
M  V30 63 H -2.164647 -5.384939 -1.975274 0
M  V30 64 H -3.820293 -6.134544 -2.261452 0
M  V30 65 H -3.126815 -6.393125 -4.385674 0
M  V30 66 H -1.765917 -5.269273 -4.158458 0
M  V30 67 H -1.599673 -3.436316 -4.813816 0
M  V30 68 H -2.464220 -3.474796 -6.432924 0
M  V30 69 H -2.994263 -2.368236 -5.128761 0
M  V30 70 H -5.613622 -4.410026 -4.878519 0
M  V30 71 H -4.828636 -2.808026 -4.788768 0
M  V30 72 H -5.616948 -4.752595 -2.659279 0
M  V30 73 H -5.533377 -2.916473 -2.644958 0
M  V30 74 H -2.909154 -4.319138 0.330981 0
M  V30 75 H -1.599605 -3.976932 3.569577 0
M  V30 76 H -1.576184 -4.609733 1.850836 0
M  V30 77 H -3.098966 -4.073779 2.602219 0
M  V30 78 H 1.670232 1.224480 2.903866 0
M  V30 79 H 2.235420 2.867892 3.360674 0
M  V30 80 H 3.527441 1.114338 4.572544 0
M  V30 81 H 4.488488 2.195704 3.532754 0
M  V30 END ATOM
M  V30 BEGIN BOND
M  V30 1 1 1 2
M  V30 2 1 2 3
M  V30 3 2 3 4
M  V30 4 1 3 5
M  V30 5 1 5 6
M  V30 6 1 6 7
M  V30 7 1 7 8
M  V30 8 1 8 9
M  V30 9 1 9 10
M  V30 10 1 10 11
M  V30 11 2 11 12
M  V30 12 1 11 13
M  V30 13 2 13 14
M  V30 14 1 14 15
M  V30 15 1 15 16
M  V30 16 1 14 17
M  V30 17 2 17 18
M  V30 18 1 18 19
M  V30 19 2 19 20
M  V30 20 1 20 21
M  V30 21 1 21 22
M  V30 22 2 22 23
M  V30 23 1 23 24
M  V30 24 2 24 25
M  V30 25 1 25 26
M  V30 26 1 26 27
M  V30 27 1 27 28
M  V30 28 1 28 29
M  V30 29 1 29 30
M  V30 30 1 29 31
M  V30 31 1 31 32
M  V30 32 1 25 33
M  V30 33 2 33 34
M  V30 34 1 34 35
M  V30 35 1 35 36
M  V30 36 1 20 37
M  V30 37 2 37 38
M  V30 38 1 9 39
M  V30 39 1 39 40
M  V30 40 1 40 6
M  V30 41 1 38 10
M  V30 42 1 38 17
M  V30 43 1 34 22
M  V30 44 1 32 26
M  V30 45 1 1 41
M  V30 46 1 1 42
M  V30 47 1 1 43
M  V30 48 1 2 44
M  V30 49 1 2 45
M  V30 50 1 5 46
M  V30 51 1 6 47 CFG=3
M  V30 52 1 7 48
M  V30 53 1 7 49
M  V30 54 1 8 50
M  V30 55 1 8 51
M  V30 56 1 9 52 CFG=1
M  V30 57 1 13 53
M  V30 58 1 15 54
M  V30 59 1 15 55
M  V30 60 1 16 56
M  V30 61 1 16 57
M  V30 62 1 16 58
M  V30 63 1 18 59
M  V30 64 1 21 60
M  V30 65 1 23 61
M  V30 66 1 24 62
M  V30 67 1 27 63
M  V30 68 1 27 64
M  V30 69 1 28 65
M  V30 70 1 28 66
M  V30 71 1 30 67
M  V30 72 1 30 68
M  V30 73 1 30 69
M  V30 74 1 31 70
M  V30 75 1 31 71
M  V30 76 1 32 72
M  V30 77 1 32 73
M  V30 78 1 33 74
M  V30 79 1 36 75
M  V30 80 1 36 76
M  V30 81 1 36 77
M  V30 82 1 39 78
M  V30 83 1 39 79
M  V30 84 1 40 80
M  V30 85 1 40 81
M  V30 END BOND
M  V30 END CTAB
M  END
>  <Dataset>  (592) 
ChEMBL_Kinases

>  <Ligand_Instance>  (592) 
nan

>  <PDB_ID>  (592) 
nan

>  <Standardized_SMILES>  (592) 
CCC(=O)N[C@H]1CC[C@@H](n2c(=O)cc(CC)c3cnc(Nc4ccc(N5CCN(C)CC5)cc4OC)nc32)CC1

>  <Name>  (592) 
nan

>  <Pocket>  (592) 
nan

>  <ATP_Site>  (592) 
nan

>  <Peripheral>  (592) 
nan

>  <Num_H_Atoms_ProtBoundConf>  (592) 
nan

>  <Num_Resolved_Atoms>  (592) 
nan

>  <Num_Not_Resolved_Atoms>  (592) 
nan

$$$$
CHEMBL487470
     RDKit          3D

  0  0  0  0  0  0  0  0  0  0999 V3000
M  V30 BEGIN CTAB
M  V30 COUNTS 48 50 0 0 0
M  V30 BEGIN ATOM
M  V30 1 C 1.833496 -0.766710 -3.908961 0
M  V30 2 C 2.959804 -1.257325 -3.064744 0
M  V30 3 C 3.911771 -2.040849 -3.669966 0
M  V30 4 C 4.946327 -2.479145 -2.830778 0
M  V30 5 C 4.998772 -2.142651 -1.489969 0
M  V30 6 C 4.024233 -1.356326 -0.928534 0
M  V30 7 C 3.005010 -0.919701 -1.736840 0
M  V30 8 C 1.983586 -0.085988 -1.142194 0
M  V30 9 O 0.974075 0.439167 -1.662964 0
M  V30 10 O 1.992365 0.271460 0.206234 0
M  V30 11 C 0.913362 1.092487 0.608569 0
M  V30 12 C 0.936717 1.455722 2.067220 0
M  V30 13 C 2.074105 2.369975 2.353833 0
M  V30 14 O 2.057496 2.896092 3.639230 0
M  V30 15 C -0.431616 2.090102 2.347289 0
M  V30 16 C -1.258324 0.844256 2.485220 0
M  V30 17 C -2.585046 0.664298 2.525537 0
M  V30 18 C -3.355984 -0.556422 2.664259 0
M  V30 19 C -3.169705 -1.568634 3.586569 0
M  V30 20 C -3.955039 -2.705218 3.604678 0
M  V30 21 C -4.966890 -2.842146 2.669260 0
M  V30 22 N -5.712317 -4.056517 2.780551 0 CHG=1 VAL=4
M  V30 23 O -6.625917 -4.203965 1.931391 0
M  V30 24 O -5.497269 -5.039187 3.722760 0 CHG=-1 VAL=1
M  V30 25 C -5.181349 -1.853455 1.735949 0
M  V30 26 C -4.381020 -0.738156 1.748131 0
M  V30 27 C -0.337667 -0.305740 2.537996 0
M  V30 28 O -0.672888 -1.515485 2.275061 0
M  V30 29 O 0.873324 0.315825 2.924820 0
M  V30 30 H 0.864930 -1.192064 -3.521824 0
M  V30 31 H 1.778675 0.341849 -3.853348 0
M  V30 32 H 1.928188 -1.106954 -4.959469 0
M  V30 33 H 3.933756 -2.343033 -4.709931 0
M  V30 34 H 5.762175 -3.093794 -3.144891 0
M  V30 35 H 5.794043 -2.475196 -0.829335 0
M  V30 36 H 4.053184 -1.085827 0.119450 0
M  V30 37 H -0.063724 0.640956 0.311197 0
M  V30 38 H 0.971735 2.039846 0.040417 0
M  V30 39 H 3.001356 1.769524 2.256541 0
M  V30 40 H 2.114703 3.135167 1.580290 0
M  V30 41 H 2.304688 2.217469 4.304420 0
M  V30 42 H -0.421033 2.622870 3.320532 0
M  V30 43 H -0.695789 2.696090 1.483258 0
M  V30 44 H -3.192416 1.571584 2.442132 0
M  V30 45 H -2.393652 -1.441614 4.313957 0
M  V30 46 H -3.738245 -3.447959 4.363158 0
M  V30 47 H -5.995501 -2.018268 1.022547 0
M  V30 48 H -4.616459 -0.003626 0.976019 0
M  V30 END ATOM
M  V30 BEGIN BOND
M  V30 1 1 1 2
M  V30 2 2 2 3
M  V30 3 1 3 4
M  V30 4 2 4 5
M  V30 5 1 5 6
M  V30 6 2 6 7
M  V30 7 1 7 8
M  V30 8 2 8 9
M  V30 9 1 8 10
M  V30 10 1 10 11
M  V30 11 1 11 12
M  V30 12 1 12 13
M  V30 13 1 13 14
M  V30 14 1 12 15
M  V30 15 1 15 16
M  V30 16 2 16 17
M  V30 17 1 17 18
M  V30 18 2 18 19
M  V30 19 1 19 20
M  V30 20 2 20 21
M  V30 21 1 21 22
M  V30 22 2 22 23
M  V30 23 1 22 24
M  V30 24 1 21 25
M  V30 25 2 25 26
M  V30 26 1 16 27
M  V30 27 2 27 28
M  V30 28 1 27 29
M  V30 29 1 7 2
M  V30 30 1 29 12
M  V30 31 1 26 18
M  V30 32 1 1 30
M  V30 33 1 1 31
M  V30 34 1 1 32
M  V30 35 1 3 33
M  V30 36 1 4 34
M  V30 37 1 5 35
M  V30 38 1 6 36
M  V30 39 1 11 37
M  V30 40 1 11 38
M  V30 41 1 13 39
M  V30 42 1 13 40
M  V30 43 1 14 41
M  V30 44 1 15 42
M  V30 45 1 15 43
M  V30 46 1 17 44
M  V30 47 1 19 45
M  V30 48 1 20 46
M  V30 49 1 25 47
M  V30 50 1 26 48
M  V30 END BOND
M  V30 END CTAB
M  END
>  <Dataset>  (593) 
ChEMBL_Kinases

>  <Ligand_Instance>  (593) 
nan

>  <PDB_ID>  (593) 
nan

>  <Standardized_SMILES>  (593) 
Cc1ccccc1C(=O)OCC1(CO)C/C(=C/c2ccc([N+](=O)[O-])cc2)C(=O)O1

>  <Name>  (593) 
nan

>  <Pocket>  (593) 
nan

>  <ATP_Site>  (593) 
nan

>  <Peripheral>  (593) 
nan

>  <Num_H_Atoms_ProtBoundConf>  (593) 
nan

>  <Num_Resolved_Atoms>  (593) 
nan

>  <Num_Not_Resolved_Atoms>  (593) 
nan

$$$$
CHEMBL487471
     RDKit          3D

  0  0  0  0  0  0  0  0  0  0999 V3000
M  V30 BEGIN CTAB
M  V30 COUNTS 72 74 0 0 0
M  V30 BEGIN ATOM
M  V30 1 C 5.704733 -2.352913 2.933845 0
M  V30 2 C 5.653640 -2.585016 1.431776 0
M  V30 3 C 5.647697 -4.071349 1.211172 0
M  V30 4 C 4.514738 -1.941253 0.771089 0
M  V30 5 C 3.201035 -2.126725 1.087837 0
M  V30 6 C 2.106850 -1.532466 0.487736 0
M  V30 7 C 0.706220 -1.821012 0.879948 0
M  V30 8 C 0.040971 -0.778266 1.716403 0
M  V30 9 C -0.120671 -2.470666 -0.170679 0
M  V30 10 C 2.404839 -0.647459 -0.554517 0
M  V30 11 C 1.385482 0.079644 -1.205842 0
M  V30 12 O 1.233351 0.917033 -2.129530 0
M  V30 13 O 0.044964 0.205034 -1.113321 0
M  V30 14 C -0.804537 1.010401 -1.880348 0
M  V30 15 C -2.243709 0.936923 -1.490962 0
M  V30 16 C -2.985101 1.823167 -2.503787 0
M  V30 17 O -2.830290 1.250801 -3.755137 0
M  V30 18 C -2.538515 1.465890 -0.130139 0
M  V30 19 C -3.678599 0.627439 0.373297 0
M  V30 20 C -4.573209 0.824925 1.311461 0
M  V30 21 C -5.648770 -0.058568 1.722647 0
M  V30 22 C -6.601636 -0.764121 1.013473 0
M  V30 23 C -7.494900 -1.566537 1.692579 0
M  V30 24 C -7.507627 -1.718420 3.047736 0
M  V30 25 N -8.434506 -2.552556 3.725302 0 CHG=1 VAL=4
M  V30 26 O -9.321972 -3.211771 3.156015 0
M  V30 27 O -8.379831 -2.665491 5.103485 0 CHG=-1 VAL=1
M  V30 28 C -6.567336 -1.024242 3.776842 0
M  V30 29 C -5.657318 -0.210147 3.114341 0
M  V30 30 C -3.586858 -0.580575 -0.416779 0
M  V30 31 O -4.102530 -1.693495 -0.087213 0
M  V30 32 O -2.849554 -0.311142 -1.570914 0
M  V30 33 C 3.719768 -0.378036 -0.971882 0
M  V30 34 C 4.065066 0.528827 -2.102360 0
M  V30 35 C 3.892953 1.986351 -1.777804 0
M  V30 36 C 3.568204 0.099255 -3.437647 0
M  V30 37 C 4.729642 -1.059554 -0.264589 0
M  V30 38 H 4.658174 -2.461891 3.293748 0
M  V30 39 H 6.353805 -3.136574 3.373386 0
M  V30 40 H 6.017877 -1.320355 3.189836 0
M  V30 41 H 6.631381 -2.220688 1.014560 0
M  V30 42 H 4.949116 -4.515403 1.953916 0
M  V30 43 H 6.660054 -4.442597 1.553801 0
M  V30 44 H 5.414503 -4.347263 0.175573 0
M  V30 45 H 2.998052 -2.828494 1.913261 0
M  V30 46 H 0.834971 -2.670759 1.635364 0
M  V30 47 H -1.048202 -0.817830 1.479433 0
M  V30 48 H 0.482999 0.233028 1.599554 0
M  V30 49 H 0.076301 -0.942607 2.814979 0
M  V30 50 H 0.514922 -2.477008 -1.108520 0
M  V30 51 H -1.135144 -2.104962 -0.324421 0
M  V30 52 H -0.263911 -3.579606 0.011026 0
M  V30 53 H -0.502447 2.078904 -1.708034 0
M  V30 54 H -0.686232 0.860580 -2.993178 0
M  V30 55 H -2.651668 2.858427 -2.435568 0
M  V30 56 H -4.062639 1.751184 -2.217112 0
M  V30 57 H -3.628159 0.755795 -4.002353 0
M  V30 58 H -1.707195 1.496911 0.572172 0
M  V30 59 H -2.969377 2.508672 -0.153486 0
M  V30 60 H -4.444689 1.787244 1.808234 0
M  V30 61 H -6.543177 -0.589057 -0.037218 0
M  V30 62 H -8.203146 -2.080820 1.065917 0
M  V30 63 H -6.582624 -1.149620 4.848041 0
M  V30 64 H -4.972096 0.277851 3.814926 0
M  V30 65 H 5.202381 0.415781 -2.191145 0
M  V30 66 H 4.842175 2.528071 -1.565285 0
M  V30 67 H 3.341663 2.055523 -0.792591 0
M  V30 68 H 3.414077 2.553629 -2.586178 0
M  V30 69 H 3.144812 0.939371 -4.038395 0
M  V30 70 H 4.392741 -0.280751 -4.127012 0
M  V30 71 H 2.884775 -0.799164 -3.414532 0
M  V30 72 H 5.775517 -0.887561 -0.545602 0
M  V30 END ATOM
M  V30 BEGIN BOND
M  V30 1 1 1 2
M  V30 2 1 2 3
M  V30 3 1 2 4
M  V30 4 2 4 5
M  V30 5 1 5 6
M  V30 6 1 6 7
M  V30 7 1 7 8
M  V30 8 1 7 9
M  V30 9 2 6 10
M  V30 10 1 10 11
M  V30 11 2 11 12
M  V30 12 1 11 13
M  V30 13 1 13 14
M  V30 14 1 14 15
M  V30 15 1 15 16
M  V30 16 1 16 17
M  V30 17 1 15 18
M  V30 18 1 18 19
M  V30 19 2 19 20
M  V30 20 1 20 21
M  V30 21 2 21 22
M  V30 22 1 22 23
M  V30 23 2 23 24
M  V30 24 1 24 25
M  V30 25 2 25 26
M  V30 26 1 25 27
M  V30 27 1 24 28
M  V30 28 2 28 29
M  V30 29 1 19 30
M  V30 30 2 30 31
M  V30 31 1 30 32
M  V30 32 1 10 33
M  V30 33 1 33 34
M  V30 34 1 34 35
M  V30 35 1 34 36
M  V30 36 2 33 37
M  V30 37 1 37 4
M  V30 38 1 32 15
M  V30 39 1 29 21
M  V30 40 1 1 38
M  V30 41 1 1 39
M  V30 42 1 1 40
M  V30 43 1 2 41
M  V30 44 1 3 42
M  V30 45 1 3 43
M  V30 46 1 3 44
M  V30 47 1 5 45
M  V30 48 1 7 46
M  V30 49 1 8 47
M  V30 50 1 8 48
M  V30 51 1 8 49
M  V30 52 1 9 50
M  V30 53 1 9 51
M  V30 54 1 9 52
M  V30 55 1 14 53
M  V30 56 1 14 54
M  V30 57 1 16 55
M  V30 58 1 16 56
M  V30 59 1 17 57
M  V30 60 1 18 58
M  V30 61 1 18 59
M  V30 62 1 20 60
M  V30 63 1 22 61
M  V30 64 1 23 62
M  V30 65 1 28 63
M  V30 66 1 29 64
M  V30 67 1 34 65
M  V30 68 1 35 66
M  V30 69 1 35 67
M  V30 70 1 35 68
M  V30 71 1 36 69
M  V30 72 1 36 70
M  V30 73 1 36 71
M  V30 74 1 37 72
M  V30 END BOND
M  V30 END CTAB
M  END
>  <Dataset>  (594) 
ChEMBL_Kinases

>  <Ligand_Instance>  (594) 
nan

>  <PDB_ID>  (594) 
nan

>  <Standardized_SMILES>  (594) 
CC(C)c1cc(C(C)C)c(C(=O)OCC2(CO)C/C(=C/c3ccc([N+](=O)[O-])cc3)C(=O)O2)c(C(C)C)c1

>  <Name>  (594) 
nan

>  <Pocket>  (594) 
nan

>  <ATP_Site>  (594) 
nan

>  <Peripheral>  (594) 
nan

>  <Num_H_Atoms_ProtBoundConf>  (594) 
nan

>  <Num_Resolved_Atoms>  (594) 
nan

>  <Num_Not_Resolved_Atoms>  (594) 
nan

$$$$
CHEMBL487472
     RDKit          3D

  0  0  0  0  0  0  0  0  0  0999 V3000
M  V30 BEGIN CTAB
M  V30 COUNTS 48 49 0 0 0
M  V30 BEGIN ATOM
M  V30 1 C 2.399033 -3.847178 2.978624 0
M  V30 2 C 2.542279 -3.186499 1.613175 0
M  V30 3 C 1.716114 -4.033471 0.665084 0
M  V30 4 C 3.994697 -3.273151 1.230761 0
M  V30 5 C 1.999955 -1.831300 1.678669 0
M  V30 6 O 1.502237 -1.389072 2.762269 0
M  V30 7 O 2.001377 -0.970594 0.576639 0
M  V30 8 C 1.436561 0.288882 0.832226 0
M  V30 9 C 1.402774 1.248420 -0.293191 0
M  V30 10 C 2.784092 1.672183 -0.716613 0
M  V30 11 O 3.397857 0.553427 -1.277480 0
M  V30 12 C 0.576178 2.441681 0.232120 0
M  V30 13 C -0.768799 1.778347 0.160398 0
M  V30 14 C -1.900171 1.739669 0.837782 0
M  V30 15 C -3.154386 1.042562 0.668620 0
M  V30 16 C -4.145298 1.973693 0.349774 0
M  V30 17 C -5.480118 1.605136 0.167356 0
M  V30 18 C -5.794129 0.273368 0.314633 0
M  V30 19 C -4.778028 -0.601472 0.630346 0
M  V30 20 C -3.437600 -0.272877 0.819709 0
M  V30 21 C -2.425330 -1.252496 1.184406 0
M  V30 22 F -1.804884 -0.893678 2.394142 0
M  V30 23 F -3.155415 -2.420656 1.546747 0
M  V30 24 F -1.476240 -1.551042 0.287783 0
M  V30 25 C -0.674774 1.022274 -1.109218 0
M  V30 26 O -1.678899 0.644906 -1.804678 0
M  V30 27 O 0.673356 0.790645 -1.419519 0
M  V30 28 H 3.200799 -3.482682 3.664429 0
M  V30 29 H 1.422669 -3.585638 3.466400 0
M  V30 30 H 2.472398 -4.927217 2.869763 0
M  V30 31 H 1.690495 -3.638193 -0.367154 0
M  V30 32 H 0.687426 -4.152249 1.094548 0
M  V30 33 H 2.157415 -5.048194 0.659524 0
M  V30 34 H 4.102532 -2.884489 0.201033 0
M  V30 35 H 4.636852 -2.717692 1.924227 0
M  V30 36 H 4.255941 -4.357132 1.268941 0
M  V30 37 H 2.035737 0.744011 1.667250 0
M  V30 38 H 0.438722 0.107693 1.284000 0
M  V30 39 H 3.390004 2.023991 0.125698 0
M  V30 40 H 2.726294 2.452634 -1.511924 0
M  V30 41 H 4.243300 0.791773 -1.766528 0
M  V30 42 H 0.880542 2.659019 1.277630 0
M  V30 43 H 0.670234 3.297070 -0.449383 0
M  V30 44 H -1.829575 2.399468 1.723996 0
M  V30 45 H -4.034187 3.059479 0.204395 0
M  V30 46 H -6.282867 2.282833 -0.079686 0
M  V30 47 H -6.805610 -0.089392 0.189124 0
M  V30 48 H -5.067533 -1.654014 0.737881 0
M  V30 END ATOM
M  V30 BEGIN BOND
M  V30 1 1 1 2
M  V30 2 1 2 3
M  V30 3 1 2 4
M  V30 4 1 2 5
M  V30 5 2 5 6
M  V30 6 1 5 7
M  V30 7 1 7 8
M  V30 8 1 8 9
M  V30 9 1 9 10
M  V30 10 1 10 11
M  V30 11 1 9 12
M  V30 12 1 12 13
M  V30 13 2 13 14
M  V30 14 1 14 15
M  V30 15 2 15 16
M  V30 16 1 16 17
M  V30 17 2 17 18
M  V30 18 1 18 19
M  V30 19 2 19 20
M  V30 20 1 20 21
M  V30 21 1 21 22
M  V30 22 1 21 23
M  V30 23 1 21 24
M  V30 24 1 13 25
M  V30 25 2 25 26
M  V30 26 1 25 27
M  V30 27 1 27 9
M  V30 28 1 20 15
M  V30 29 1 1 28
M  V30 30 1 1 29
M  V30 31 1 1 30
M  V30 32 1 3 31
M  V30 33 1 3 32
M  V30 34 1 3 33
M  V30 35 1 4 34
M  V30 36 1 4 35
M  V30 37 1 4 36
M  V30 38 1 8 37
M  V30 39 1 8 38
M  V30 40 1 10 39
M  V30 41 1 10 40
M  V30 42 1 11 41
M  V30 43 1 12 42
M  V30 44 1 12 43
M  V30 45 1 14 44
M  V30 46 1 16 45
M  V30 47 1 17 46
M  V30 48 1 18 47
M  V30 49 1 19 48
M  V30 END BOND
M  V30 END CTAB
M  END
>  <Dataset>  (595) 
ChEMBL_Kinases

>  <Ligand_Instance>  (595) 
nan

>  <PDB_ID>  (595) 
nan

>  <Standardized_SMILES>  (595) 
CC(C)(C)C(=O)OCC1(CO)C/C(=C/c2ccccc2C(F)(F)F)C(=O)O1

>  <Name>  (595) 
nan

>  <Pocket>  (595) 
nan

>  <ATP_Site>  (595) 
nan

>  <Peripheral>  (595) 
nan

>  <Num_H_Atoms_ProtBoundConf>  (595) 
nan

>  <Num_Resolved_Atoms>  (595) 
nan

>  <Num_Not_Resolved_Atoms>  (595) 
nan

$$$$
CHEMBL487473
     RDKit          3D

  0  0  0  0  0  0  0  0  0  0999 V3000
M  V30 BEGIN CTAB
M  V30 COUNTS 52 55 0 0 0
M  V30 BEGIN ATOM
M  V30 1 C -0.824921 -6.427319 3.910018 0
M  V30 2 O 0.255402 -6.323494 3.004326 0
M  V30 3 C 0.731026 -5.109060 2.535987 0
M  V30 4 C 1.803849 -5.148188 1.644978 0
M  V30 5 C 2.309788 -3.955741 1.152723 0
M  V30 6 C 1.791014 -2.732798 1.512022 0
M  V30 7 C 2.433104 -1.576233 0.910185 0
M  V30 8 O 3.389759 -1.719164 0.132857 0
M  V30 9 O 2.107299 -0.243012 1.092578 0
M  V30 10 C 2.856199 0.735058 0.415534 0
M  V30 11 C 2.364993 2.112418 0.721526 0
M  V30 12 C 3.095820 3.173320 -0.065549 0
M  V30 13 O 3.003465 2.994258 -1.435322 0
M  V30 14 C 0.885339 2.294711 0.500935 0
M  V30 15 C 0.335507 1.524963 1.646095 0
M  V30 16 C -0.764843 0.797330 1.779541 0
M  V30 17 C -1.717985 0.618396 0.695084 0
M  V30 18 C -3.043667 0.583571 1.091352 0
M  V30 19 C -3.995305 0.411839 0.098792 0
M  V30 20 C -3.552763 0.289160 -1.202373 0
M  V30 21 C -4.572288 0.119402 -2.137733 0
M  V30 22 C -4.228715 -0.013932 -3.476594 0
M  V30 23 C -2.888606 0.026423 -3.833440 0
M  V30 24 C -1.895309 0.193760 -2.904515 0
M  V30 25 C -2.226194 0.327006 -1.573487 0
M  V30 26 N -1.322968 0.495500 -0.583340 0
M  V30 27 C 1.340908 1.752934 2.680166 0
M  V30 28 O 1.258113 1.496170 3.922876 0
M  V30 29 O 2.476176 2.320375 2.118048 0
M  V30 30 C 0.735771 -2.679751 2.387635 0
M  V30 31 C 0.237534 -3.867769 2.873153 0
M  V30 32 H -1.029896 -7.478246 4.137984 0
M  V30 33 H -0.590155 -5.817661 4.817128 0
M  V30 34 H -1.712536 -5.956709 3.415901 0
M  V30 35 H 2.215058 -6.123425 1.360442 0
M  V30 36 H 3.152846 -4.105470 0.459566 0
M  V30 37 H 3.886502 0.669336 0.855275 0
M  V30 38 H 2.941731 0.524326 -0.654763 0
M  V30 39 H 4.154056 3.179090 0.213172 0
M  V30 40 H 2.656669 4.171855 0.152358 0
M  V30 41 H 3.787901 3.336053 -1.930654 0
M  V30 42 H 0.541935 1.963363 -0.484740 0
M  V30 43 H 0.650164 3.357716 0.723115 0
M  V30 44 H -0.923734 0.336954 2.743801 0
M  V30 45 H -3.357076 0.683736 2.128365 0
M  V30 46 H -5.040591 0.380493 0.376377 0
M  V30 47 H -5.624370 0.083901 -1.889163 0
M  V30 48 H -5.007033 -0.148720 -4.235006 0
M  V30 49 H -2.618532 -0.079348 -4.894542 0
M  V30 50 H -0.841946 0.229458 -3.151100 0
M  V30 51 H 0.338802 -1.723670 2.662491 0
M  V30 52 H -0.592958 -3.849707 3.563622 0
M  V30 END ATOM
M  V30 BEGIN BOND
M  V30 1 1 1 2
M  V30 2 1 2 3
M  V30 3 2 3 4
M  V30 4 1 4 5
M  V30 5 2 5 6
M  V30 6 1 6 7
M  V30 7 2 7 8
M  V30 8 1 7 9
M  V30 9 1 9 10
M  V30 10 1 10 11
M  V30 11 1 11 12
M  V30 12 1 12 13
M  V30 13 1 11 14
M  V30 14 1 14 15
M  V30 15 2 15 16
M  V30 16 1 16 17
M  V30 17 2 17 18
M  V30 18 1 18 19
M  V30 19 2 19 20
M  V30 20 1 20 21
M  V30 21 2 21 22
M  V30 22 1 22 23
M  V30 23 2 23 24
M  V30 24 1 24 25
M  V30 25 2 25 26
M  V30 26 1 15 27
M  V30 27 2 27 28
M  V30 28 1 27 29
M  V30 29 1 6 30
M  V30 30 2 30 31
M  V30 31 1 31 3
M  V30 32 1 29 11
M  V30 33 1 26 17
M  V30 34 1 25 20
M  V30 35 1 1 32
M  V30 36 1 1 33
M  V30 37 1 1 34
M  V30 38 1 4 35
M  V30 39 1 5 36
M  V30 40 1 10 37
M  V30 41 1 10 38
M  V30 42 1 12 39
M  V30 43 1 12 40
M  V30 44 1 13 41
M  V30 45 1 14 42
M  V30 46 1 14 43
M  V30 47 1 16 44
M  V30 48 1 18 45
M  V30 49 1 19 46
M  V30 50 1 21 47
M  V30 51 1 22 48
M  V30 52 1 23 49
M  V30 53 1 24 50
M  V30 54 1 30 51
M  V30 55 1 31 52
M  V30 END BOND
M  V30 END CTAB
M  END
>  <Dataset>  (596) 
ChEMBL_Kinases

>  <Ligand_Instance>  (596) 
nan

>  <PDB_ID>  (596) 
nan

>  <Standardized_SMILES>  (596) 
COc1ccc(C(=O)OCC2(CO)C/C(=C\c3ccc4ccccc4n3)C(=O)O2)cc1

>  <Name>  (596) 
nan

>  <Pocket>  (596) 
nan

>  <ATP_Site>  (596) 
nan

>  <Peripheral>  (596) 
nan

>  <Num_H_Atoms_ProtBoundConf>  (596) 
nan

>  <Num_Resolved_Atoms>  (596) 
nan

>  <Num_Not_Resolved_Atoms>  (596) 
nan

$$$$
CHEMBL487480
     RDKit          3D

  0  0  0  0  0  0  0  0  0  0999 V3000
M  V30 BEGIN CTAB
M  V30 COUNTS 45 46 0 0 0
M  V30 BEGIN ATOM
M  V30 1 C 1.446534 -4.388374 4.251112 0
M  V30 2 C 1.341529 -4.145134 2.757581 0
M  V30 3 C -0.122684 -4.312646 2.399929 0
M  V30 4 C 1.813115 -2.767148 2.489835 0
M  V30 5 O 2.277048 -1.873832 3.275904 0
M  V30 6 O 1.713620 -2.440680 1.164829 0
M  V30 7 C 2.088694 -1.177331 0.631562 0
M  V30 8 C 1.854723 -1.127553 -0.864922 0
M  V30 9 C 2.757853 -2.013790 -1.630688 0
M  V30 10 O 2.574948 -1.974456 -2.994593 0
M  V30 11 C 1.879526 0.325558 -1.354500 0
M  V30 12 C 0.657065 0.856567 -0.646500 0
M  V30 13 C 0.228206 2.049184 -0.209301 0
M  V30 14 C -1.003092 2.412541 0.468371 0
M  V30 15 C -0.752380 2.531987 1.826811 0
M  V30 16 C -1.746167 2.885693 2.741518 0
M  V30 17 C -3.033645 3.125007 2.255919 0
M  V30 18 C -3.251788 2.997111 0.878066 0
M  V30 19 C -2.257197 2.643421 -0.035761 0
M  V30 20 C -2.456562 2.540335 -1.480386 0
M  V30 21 F -1.657344 3.411949 -2.203439 0
M  V30 22 F -2.415379 1.251207 -1.923037 0
M  V30 23 F -3.773627 2.980063 -1.711392 0
M  V30 24 C -0.179047 -0.338638 -0.388204 0
M  V30 25 O -1.258935 -0.422718 0.284610 0
M  V30 26 O 0.458604 -1.401649 -1.040897 0
M  V30 27 H 0.662065 -5.126754 4.537841 0
M  V30 28 H 2.468073 -4.675874 4.522893 0
M  V30 29 H 1.124595 -3.428763 4.755993 0
M  V30 30 H 1.903128 -4.922918 2.215146 0
M  V30 31 H -0.312124 -4.519125 1.346923 0
M  V30 32 H -0.707897 -3.407473 2.692921 0
M  V30 33 H -0.508238 -5.139540 3.041627 0
M  V30 34 H 1.598538 -0.338900 1.123817 0
M  V30 35 H 3.207752 -1.109768 0.767175 0
M  V30 36 H 3.804506 -1.678667 -1.424750 0
M  V30 37 H 2.716303 -3.056389 -1.226040 0
M  V30 38 H 1.715577 -1.565975 -3.270553 0
M  V30 39 H 2.785726 0.861745 -1.033227 0
M  V30 40 H 1.739493 0.311085 -2.449626 0
M  V30 41 H 0.966196 2.836814 -0.427587 0
M  V30 42 H 0.188379 2.380120 2.362094 0
M  V30 43 H -1.622504 2.993591 3.805487 0
M  V30 44 H -3.840847 3.402197 2.920280 0
M  V30 45 H -4.243506 3.184915 0.517302 0
M  V30 END ATOM
M  V30 BEGIN BOND
M  V30 1 1 1 2
M  V30 2 1 2 3
M  V30 3 1 2 4
M  V30 4 2 4 5
M  V30 5 1 4 6
M  V30 6 1 6 7
M  V30 7 1 7 8
M  V30 8 1 8 9
M  V30 9 1 9 10
M  V30 10 1 8 11
M  V30 11 1 11 12
M  V30 12 2 12 13
M  V30 13 1 13 14
M  V30 14 2 14 15
M  V30 15 1 15 16
M  V30 16 2 16 17
M  V30 17 1 17 18
M  V30 18 2 18 19
M  V30 19 1 19 20
M  V30 20 1 20 21
M  V30 21 1 20 22
M  V30 22 1 20 23
M  V30 23 1 12 24
M  V30 24 2 24 25
M  V30 25 1 24 26
M  V30 26 1 26 8
M  V30 27 1 19 14
M  V30 28 1 1 27
M  V30 29 1 1 28
M  V30 30 1 1 29
M  V30 31 1 2 30
M  V30 32 1 3 31
M  V30 33 1 3 32
M  V30 34 1 3 33
M  V30 35 1 7 34
M  V30 36 1 7 35
M  V30 37 1 9 36
M  V30 38 1 9 37
M  V30 39 1 10 38
M  V30 40 1 11 39
M  V30 41 1 11 40
M  V30 42 1 13 41
M  V30 43 1 15 42
M  V30 44 1 16 43
M  V30 45 1 17 44
M  V30 46 1 18 45
M  V30 END BOND
M  V30 END CTAB
M  END
>  <Dataset>  (597) 
ChEMBL_Kinases

>  <Ligand_Instance>  (597) 
nan

>  <PDB_ID>  (597) 
nan

>  <Standardized_SMILES>  (597) 
CC(C)C(=O)OCC1(CO)C/C(=C/c2ccccc2C(F)(F)F)C(=O)O1

>  <Name>  (597) 
nan

>  <Pocket>  (597) 
nan

>  <ATP_Site>  (597) 
nan

>  <Peripheral>  (597) 
nan

>  <Num_H_Atoms_ProtBoundConf>  (597) 
nan

>  <Num_Resolved_Atoms>  (597) 
nan

>  <Num_Not_Resolved_Atoms>  (597) 
nan

$$$$
CHEMBL711
     RDKit          3D

  0  0  0  0  0  0  0  0  0  0999 V3000
M  V30 BEGIN CTAB
M  V30 COUNTS 27 29 0 0 0
M  V30 BEGIN ATOM
M  V30 1 O 0.986157 -1.221314 3.346230 0
M  V30 2 C 1.146313 -0.909466 2.154690 0
M  V30 3 C 1.425032 -1.834258 1.062313 0
M  V30 4 C 1.404240 -3.220574 1.010977 0
M  V30 5 C 1.718316 -3.868498 -0.184001 0
M  V30 6 C 2.050803 -3.127272 -1.318784 0
M  V30 7 C 2.075417 -1.749891 -1.282089 0
M  V30 8 C 1.759857 -1.141622 -0.085360 0
M  V30 9 C 1.714692 0.284840 0.208164 0
M  V30 10 O 2.079604 1.299776 -0.440575 0
M  V30 11 C 1.097384 0.427466 1.561073 0
M  V30 12 C -0.320689 0.815854 1.354178 0
M  V30 13 C -0.859206 2.003812 1.861192 0
M  V30 14 C -2.187171 2.356036 1.660971 0
M  V30 15 C -2.988349 1.484323 0.929967 0
M  V30 16 C -2.487414 0.292971 0.409768 0
M  V30 17 C -1.147119 -0.040559 0.624209 0
M  V30 18 H 1.154565 -3.853166 1.856182 0
M  V30 19 H 1.729156 -4.956570 -0.322506 0
M  V30 20 H 2.295878 -3.644771 -2.252329 0
M  V30 21 H 2.334935 -1.153840 -2.166224 0
M  V30 22 H 1.607135 1.211986 2.155564 0
M  V30 23 H -0.211858 2.674194 2.432728 0
M  V30 24 H -2.573522 3.286793 2.068886 0
M  V30 25 H -4.015383 1.787727 0.792560 0
M  V30 26 H -3.135835 -0.359005 -0.151741 0
M  V30 27 H -0.807276 -0.989335 0.192189 0
M  V30 END ATOM
M  V30 BEGIN BOND
M  V30 1 2 1 2
M  V30 2 1 2 3
M  V30 3 2 3 4
M  V30 4 1 4 5
M  V30 5 2 5 6
M  V30 6 1 6 7
M  V30 7 2 7 8
M  V30 8 1 8 9
M  V30 9 2 9 10
M  V30 10 1 9 11
M  V30 11 1 11 12
M  V30 12 2 12 13
M  V30 13 1 13 14
M  V30 14 2 14 15
M  V30 15 1 15 16
M  V30 16 2 16 17
M  V30 17 1 11 2
M  V30 18 1 17 12
M  V30 19 1 8 3
M  V30 20 1 4 18
M  V30 21 1 5 19
M  V30 22 1 6 20
M  V30 23 1 7 21
M  V30 24 1 11 22
M  V30 25 1 13 23
M  V30 26 1 14 24
M  V30 27 1 15 25
M  V30 28 1 16 26
M  V30 29 1 17 27
M  V30 END BOND
M  V30 END CTAB
M  END
>  <Dataset>  (598) 
ChEMBL_Kinases

>  <Ligand_Instance>  (598) 
nan

>  <PDB_ID>  (598) 
nan

>  <Standardized_SMILES>  (598) 
O=C1c2ccccc2C(=O)C1c1ccccc1

>  <Name>  (598) 
PHENINDIONE

>  <Pocket>  (598) 
nan

>  <ATP_Site>  (598) 
nan

>  <Peripheral>  (598) 
nan

>  <Num_H_Atoms_ProtBoundConf>  (598) 
nan

>  <Num_Resolved_Atoms>  (598) 
nan

>  <Num_Not_Resolved_Atoms>  (598) 
nan

$$$$
CHEMBL487484
     RDKit          3D

  0  0  0  0  0  0  0  0  0  0999 V3000
M  V30 BEGIN CTAB
M  V30 COUNTS 50 52 0 0 0
M  V30 BEGIN ATOM
M  V30 1 C 5.050049 -6.668135 1.919313 0
M  V30 2 N 3.943673 -5.840048 2.412114 0
M  V30 3 C 3.290495 -6.172707 3.689858 0
M  V30 4 C 3.490063 -4.683147 1.667655 0
M  V30 5 C 2.431228 -3.988626 2.195440 0
M  V30 6 C 2.079842 -2.889716 1.441639 0
M  V30 7 C 2.668748 -2.456141 0.272132 0
M  V30 8 C 2.184939 -1.269953 -0.417492 0
M  V30 9 O 2.808280 -0.885758 -1.466753 0
M  V30 10 O 1.097190 -0.603405 0.062262 0
M  V30 11 C 0.562779 0.579460 -0.548415 0
M  V30 12 C -0.634791 0.923637 0.353119 0
M  V30 13 C -0.082030 1.058859 1.750807 0
M  V30 14 O -1.062927 1.186341 2.716057 0
M  V30 15 C -1.384901 2.107352 -0.132143 0
M  V30 16 C -2.604721 1.507808 -0.730934 0
M  V30 17 C -3.755086 2.038996 -1.116703 0
M  V30 18 C -4.098610 3.469087 -1.023114 0
M  V30 19 C -5.422469 3.648881 -0.568802 0
M  V30 20 C -6.001992 4.902481 -0.396691 0
M  V30 21 C -5.216035 5.980232 -0.693956 0
M  V30 22 N -3.934957 5.844724 -1.133814 0
M  V30 23 C -3.390433 4.607616 -1.294261 0
M  V30 24 C -2.330751 0.077519 -0.828218 0
M  V30 25 O -2.823892 -0.675763 -1.732395 0
M  V30 26 O -1.457628 -0.227005 0.242160 0
M  V30 27 C 3.731399 -3.246849 -0.157701 0
M  V30 28 C 4.189210 -4.389376 0.514133 0
M  V30 29 H 4.728433 -7.307272 1.075210 0
M  V30 30 H 5.323487 -7.401235 2.727796 0
M  V30 31 H 5.957453 -6.069910 1.728533 0
M  V30 32 H 3.377265 -5.320329 4.402347 0
M  V30 33 H 3.801536 -7.078803 4.067272 0
M  V30 34 H 2.246756 -6.471745 3.495987 0
M  V30 35 H 1.926682 -4.271831 3.104869 0
M  V30 36 H 1.235469 -2.268782 1.786653 0
M  V30 37 H 1.261882 1.425727 -0.448401 0
M  V30 38 H 0.241902 0.379964 -1.579112 0
M  V30 39 H 0.497738 0.109349 1.934542 0
M  V30 40 H 0.644618 1.874437 1.758965 0
M  V30 41 H -0.784473 1.879192 3.365213 0
M  V30 42 H -1.708365 2.754189 0.716959 0
M  V30 43 H -0.761110 2.619154 -0.882001 0
M  V30 44 H -4.532821 1.381823 -1.554809 0
M  V30 45 H -6.076745 2.793608 -0.320786 0
M  V30 46 H -7.035768 4.960200 -0.037661 0
M  V30 47 H -5.622235 6.973680 -0.577051 0
M  V30 48 H -2.398144 4.363581 -1.630863 0
M  V30 49 H 4.237103 -2.950099 -1.083363 0
M  V30 50 H 5.014188 -4.952700 0.123668 0
M  V30 END ATOM
M  V30 BEGIN BOND
M  V30 1 1 1 2
M  V30 2 1 2 3
M  V30 3 1 2 4
M  V30 4 2 4 5
M  V30 5 1 5 6
M  V30 6 2 6 7
M  V30 7 1 7 8
M  V30 8 2 8 9
M  V30 9 1 8 10
M  V30 10 1 10 11
M  V30 11 1 11 12
M  V30 12 1 12 13
M  V30 13 1 13 14
M  V30 14 1 12 15
M  V30 15 1 15 16
M  V30 16 2 16 17
M  V30 17 1 17 18
M  V30 18 2 18 19
M  V30 19 1 19 20
M  V30 20 2 20 21
M  V30 21 1 21 22
M  V30 22 2 22 23
M  V30 23 1 16 24
M  V30 24 2 24 25
M  V30 25 1 24 26
M  V30 26 1 7 27
M  V30 27 2 27 28
M  V30 28 1 28 4
M  V30 29 1 26 12
M  V30 30 1 23 18
M  V30 31 1 1 29
M  V30 32 1 1 30
M  V30 33 1 1 31
M  V30 34 1 3 32
M  V30 35 1 3 33
M  V30 36 1 3 34
M  V30 37 1 5 35
M  V30 38 1 6 36
M  V30 39 1 11 37
M  V30 40 1 11 38
M  V30 41 1 13 39
M  V30 42 1 13 40
M  V30 43 1 14 41
M  V30 44 1 15 42
M  V30 45 1 15 43
M  V30 46 1 17 44
M  V30 47 1 19 45
M  V30 48 1 20 46
M  V30 49 1 21 47
M  V30 50 1 23 48
M  V30 51 1 27 49
M  V30 52 1 28 50
M  V30 END BOND
M  V30 END CTAB
M  END
>  <Dataset>  (599) 
ChEMBL_Kinases

>  <Ligand_Instance>  (599) 
nan

>  <PDB_ID>  (599) 
nan

>  <Standardized_SMILES>  (599) 
CN(C)c1ccc(C(=O)OCC2(CO)C/C(=C\c3cccnc3)C(=O)O2)cc1

>  <Name>  (599) 
nan

>  <Pocket>  (599) 
nan

>  <ATP_Site>  (599) 
nan

>  <Peripheral>  (599) 
nan

>  <Num_H_Atoms_ProtBoundConf>  (599) 
nan

>  <Num_Resolved_Atoms>  (599) 
nan

>  <Num_Not_Resolved_Atoms>  (599) 
nan

$$$$
CHEMBL4874868
     RDKit          3D

  0  0  0  0  0  0  0  0  0  0999 V3000
M  V30 BEGIN CTAB
M  V30 COUNTS 64 68 0 0 0
M  V30 BEGIN ATOM
M  V30 1 C 3.284518 -0.218713 4.368763 0
M  V30 2 C 4.074072 0.506881 3.339848 0
M  V30 3 C 4.400821 -0.440543 2.207698 0
M  V30 4 C 3.463065 1.797873 2.837870 0
M  V30 5 O 4.377112 2.306734 1.879469 0
M  V30 6 C 4.066224 2.431887 0.561177 0
M  V30 7 O 5.029020 2.785993 -0.184410 0
M  V30 8 N 2.771250 2.193405 0.017366 0
M  V30 9 C 2.557165 2.358604 -1.394010 0
M  V30 10 C 1.620061 3.479556 -1.708854 0
M  V30 11 C 0.565432 2.922847 -2.632345 0
M  V30 12 C 0.741595 1.421846 -2.672427 0
M  V30 13 C 2.140278 1.148778 -2.154756 0
M  V30 14 C 1.784537 1.800253 0.958351 0
M  V30 15 N 0.533746 1.636321 0.477699 0
M  V30 16 C -0.488891 1.330856 1.265657 0
M  V30 17 N -1.872146 1.102350 1.035075 0
M  V30 18 C -2.449039 -0.196115 0.782795 0
M  V30 19 C -3.803183 -0.411266 0.617444 0
M  V30 20 C -4.292809 -1.686191 0.379656 0
M  V30 21 C -3.437794 -2.765563 0.303509 0
M  V30 22 N -3.849896 -4.083216 0.071725 0
M  V30 23 C -5.209751 -4.511274 -0.052869 0
M  V30 24 C -5.485479 -5.316832 -1.295836 0
M  V30 25 N -4.451469 -6.279817 -1.577274 0
M  V30 26 C -3.516155 -6.434484 -0.488876 0
M  V30 27 C -2.864774 -5.138925 -0.062511 0
M  V30 28 C -2.106625 -2.471164 0.478387 0
M  V30 29 C -1.522440 -1.245511 0.718073 0
M  V30 30 N -0.240965 1.186220 2.585722 0
M  V30 31 C 1.020080 1.349291 3.080902 0
M  V30 32 C 2.109934 1.664093 2.301870 0
M  V30 33 H 3.962043 -1.057491 4.731450 0
M  V30 34 H 3.042397 0.348950 5.281293 0
M  V30 35 H 2.405048 -0.774654 3.966435 0
M  V30 36 H 5.031657 0.827970 3.846075 0
M  V30 37 H 5.482502 -0.339059 1.978050 0
M  V30 38 H 3.843478 -0.079715 1.300248 0
M  V30 39 H 4.099981 -1.457782 2.453183 0
M  V30 40 H 3.443847 2.506666 3.687331 0
M  V30 41 H 3.552851 2.675370 -1.826236 0
M  V30 42 H 1.232033 3.942999 -0.797715 0
M  V30 43 H 2.098237 4.327412 -2.281049 0
M  V30 44 H -0.410686 3.210505 -2.170666 0
M  V30 45 H 0.584700 3.376092 -3.646204 0
M  V30 46 H -0.053828 0.890642 -2.152501 0
M  V30 47 H 0.617950 1.125869 -3.755527 0
M  V30 48 H 2.246673 0.184569 -1.634000 0
M  V30 49 H 2.757761 1.011296 -3.080332 0
M  V30 50 H -2.548244 1.886880 1.040324 0
M  V30 51 H -4.451379 0.461581 0.682927 0
M  V30 52 H -5.347906 -1.820405 0.255905 0
M  V30 53 H -5.433653 -5.201953 0.811159 0
M  V30 54 H -5.970953 -3.732892 -0.009893 0
M  V30 55 H -5.662745 -4.701350 -2.179592 0
M  V30 56 H -6.420776 -5.890088 -1.100270 0
M  V30 57 H -4.018347 -6.091337 -2.490721 0
M  V30 58 H -2.699461 -7.101741 -0.836263 0
M  V30 59 H -3.982806 -6.892813 0.381410 0
M  V30 60 H -2.397594 -5.342060 0.942931 0
M  V30 61 H -2.030081 -4.873376 -0.735565 0
M  V30 62 H -1.414509 -3.309315 0.421282 0
M  V30 63 H -0.454427 -1.150619 0.837463 0
M  V30 64 H 1.159206 1.230300 4.167897 0
M  V30 END ATOM
M  V30 BEGIN BOND
M  V30 1 1 1 2
M  V30 2 1 2 3
M  V30 3 1 2 4
M  V30 4 1 4 5
M  V30 5 1 5 6
M  V30 6 2 6 7
M  V30 7 1 6 8
M  V30 8 1 8 9
M  V30 9 1 9 10
M  V30 10 1 10 11
M  V30 11 1 11 12
M  V30 12 1 12 13
M  V30 13 1 8 14
M  V30 14 2 14 15
M  V30 15 1 15 16
M  V30 16 1 16 17
M  V30 17 1 17 18
M  V30 18 2 18 19
M  V30 19 1 19 20
M  V30 20 2 20 21
M  V30 21 1 21 22
M  V30 22 1 22 23
M  V30 23 1 23 24
M  V30 24 1 24 25
M  V30 25 1 25 26
M  V30 26 1 26 27
M  V30 27 1 21 28
M  V30 28 2 28 29
M  V30 29 2 16 30
M  V30 30 1 30 31
M  V30 31 2 31 32
M  V30 32 1 32 4
M  V30 33 1 13 9
M  V30 34 1 32 14
M  V30 35 1 29 18
M  V30 36 1 27 22
M  V30 37 1 1 33
M  V30 38 1 1 34
M  V30 39 1 1 35
M  V30 40 1 2 36
M  V30 41 1 3 37
M  V30 42 1 3 38
M  V30 43 1 3 39
M  V30 44 1 4 40
M  V30 45 1 9 41
M  V30 46 1 10 42
M  V30 47 1 10 43
M  V30 48 1 11 44
M  V30 49 1 11 45
M  V30 50 1 12 46
M  V30 51 1 12 47
M  V30 52 1 13 48
M  V30 53 1 13 49
M  V30 54 1 17 50
M  V30 55 1 19 51
M  V30 56 1 20 52
M  V30 57 1 23 53
M  V30 58 1 23 54
M  V30 59 1 24 55
M  V30 60 1 24 56
M  V30 61 1 25 57
M  V30 62 1 26 58
M  V30 63 1 26 59
M  V30 64 1 27 60
M  V30 65 1 27 61
M  V30 66 1 28 62
M  V30 67 1 29 63
M  V30 68 1 31 64
M  V30 END BOND
M  V30 END CTAB
M  END
>  <Dataset>  (600) 
ChEMBL_Kinases

>  <Ligand_Instance>  (600) 
nan

>  <PDB_ID>  (600) 
nan

>  <Standardized_SMILES>  (600) 
CC(C)C1OC(=O)N(C2CCCC2)c2nc(Nc3ccc(N4CCNCC4)cc3)ncc21

>  <Name>  (600) 
nan

>  <Pocket>  (600) 
nan

>  <ATP_Site>  (600) 
nan

>  <Peripheral>  (600) 
nan

>  <Num_H_Atoms_ProtBoundConf>  (600) 
nan

>  <Num_Resolved_Atoms>  (600) 
nan

>  <Num_Not_Resolved_Atoms>  (600) 
nan

$$$$
CHEMBL710
     RDKit          3D

  0  0  0  0  0  0  0  0  0  0999 V3000
M  V30 BEGIN CTAB
M  V30 COUNTS 63 66 0 0 0
M  V30 BEGIN ATOM
M  V30 1 C 4.672076 1.599446 -1.278124 0
M  V30 2 C 4.450011 0.467981 -2.227572 0
M  V30 3 C 5.624138 -0.485695 -2.072317 0
M  V30 4 C 4.584280 1.035082 -3.644408 0
M  V30 5 N 3.189510 -0.194991 -2.108985 0
M  V30 6 C 2.809548 -0.826562 -0.893688 0
M  V30 7 O 3.611409 -0.795361 0.097971 0
M  V30 8 C 1.504795 -1.545432 -0.682312 0 CFG=1
M  V30 9 C 1.528205 -2.068928 0.760162 0
M  V30 10 C 0.279038 -1.497875 1.423169 0
M  V30 11 C -0.623385 -1.324116 0.255857 0 CFG=1
M  V30 12 C -1.769722 -0.370185 0.463906 0 CFG=2
M  V30 13 C -2.607517 -0.933553 1.569338 0
M  V30 14 C -3.865359 -0.108053 1.738482 0
M  V30 15 C -4.631730 -0.008230 0.435280 0 CFG=1
M  V30 16 N -5.738723 0.900636 0.599998 0
M  V30 17 C -6.582386 1.021002 -0.565116 0
M  V30 18 O -7.841074 1.229927 -0.518829 0
M  V30 19 C -5.897039 0.887633 -1.864593 0
M  V30 20 C -4.573527 0.672945 -1.872868 0
M  V30 21 C -3.724867 0.558405 -0.665345 0 CFG=1
M  V30 22 C -3.343947 1.967682 -0.285385 0
M  V30 23 C -2.557875 -0.350660 -0.815743 0 CFG=1
M  V30 24 C -1.724728 -0.021314 -2.024056 0
M  V30 25 C -0.429694 -0.752141 -2.071703 0
M  V30 26 C 0.315023 -0.659816 -0.760777 0 CFG=2
M  V30 27 C 0.604317 0.764295 -0.427710 0
M  V30 28 H 5.435120 2.305038 -1.719189 0
M  V30 29 H 5.166076 1.211576 -0.353366 0
M  V30 30 H 3.744933 2.142322 -1.084069 0
M  V30 31 H 6.489084 -0.006877 -2.575723 0
M  V30 32 H 5.433288 -1.420693 -2.654155 0
M  V30 33 H 5.901456 -0.666253 -1.035272 0
M  V30 34 H 4.080290 2.007747 -3.694002 0
M  V30 35 H 5.678688 1.140969 -3.898446 0
M  V30 36 H 4.177878 0.313911 -4.398370 0
M  V30 37 H 2.520106 -0.231966 -2.907658 0
M  V30 38 H 1.460766 -2.418051 -1.335711 0
M  V30 39 H 1.542456 -3.177709 0.800595 0
M  V30 40 H 2.411443 -1.687190 1.317791 0
M  V30 41 H 0.462541 -0.585584 1.998058 0
M  V30 42 H -0.170363 -2.240927 2.145312 0
M  V30 43 H -0.946600 -2.284882 -0.138232 0
M  V30 44 H -1.351352 0.579018 0.784551 0
M  V30 45 H -2.885452 -1.972296 1.263467 0
M  V30 46 H -2.087203 -0.933843 2.538265 0
M  V30 47 H -4.519155 -0.658166 2.448686 0
M  V30 48 H -3.637199 0.866926 2.165295 0
M  V30 49 H -5.022420 -0.993242 0.141066 0
M  V30 50 H -6.039742 1.488612 1.419380 0
M  V30 51 H -6.458501 0.962812 -2.789464 0
M  V30 52 H -4.143766 0.584434 -2.861015 0
M  V30 53 H -3.816208 2.254306 0.684859 0
M  V30 54 H -2.260390 2.131994 -0.163469 0
M  V30 55 H -3.679114 2.720275 -1.027901 0
M  V30 56 H -2.948795 -1.381698 -0.956591 0
M  V30 57 H -2.332432 -0.353530 -2.906642 0
M  V30 58 H -1.617322 1.082449 -2.186637 0
M  V30 59 H 0.131822 -0.427722 -2.945085 0
M  V30 60 H -0.676135 -1.842243 -2.200947 0
M  V30 61 H 1.627825 1.046213 -0.813263 0
M  V30 62 H -0.068969 1.494731 -0.903074 0
M  V30 63 H 0.638781 1.002963 0.653360 0
M  V30 END ATOM
M  V30 BEGIN BOND
M  V30 1 1 1 2
M  V30 2 1 2 3
M  V30 3 1 2 4
M  V30 4 1 2 5
M  V30 5 1 5 6
M  V30 6 2 6 7
M  V30 7 1 6 8
M  V30 8 1 8 9
M  V30 9 1 9 10
M  V30 10 1 10 11
M  V30 11 1 11 12
M  V30 12 1 12 13
M  V30 13 1 13 14
M  V30 14 1 14 15
M  V30 15 1 15 16
M  V30 16 1 16 17
M  V30 17 2 17 18
M  V30 18 1 17 19
M  V30 19 2 19 20
M  V30 20 1 20 21
M  V30 21 1 21 22 CFG=1
M  V30 22 1 21 23
M  V30 23 1 23 24
M  V30 24 1 24 25
M  V30 25 1 25 26
M  V30 26 1 26 27 CFG=1
M  V30 27 1 26 8
M  V30 28 1 26 11
M  V30 29 1 23 12
M  V30 30 1 21 15
M  V30 31 1 1 28
M  V30 32 1 1 29
M  V30 33 1 1 30
M  V30 34 1 3 31
M  V30 35 1 3 32
M  V30 36 1 3 33
M  V30 37 1 4 34
M  V30 38 1 4 35
M  V30 39 1 4 36
M  V30 40 1 5 37
M  V30 41 1 8 38 CFG=3
M  V30 42 1 9 39
M  V30 43 1 9 40
M  V30 44 1 10 41
M  V30 45 1 10 42
M  V30 46 1 11 43 CFG=3
M  V30 47 1 12 44 CFG=1
M  V30 48 1 13 45
M  V30 49 1 13 46
M  V30 50 1 14 47
M  V30 51 1 14 48
M  V30 52 1 15 49 CFG=3
M  V30 53 1 16 50
M  V30 54 1 19 51
M  V30 55 1 20 52
M  V30 56 1 22 53
M  V30 57 1 22 54
M  V30 58 1 22 55
M  V30 59 1 23 56 CFG=3
M  V30 60 1 24 57
M  V30 61 1 24 58
M  V30 62 1 25 59
M  V30 63 1 25 60
M  V30 64 1 27 61
M  V30 65 1 27 62
M  V30 66 1 27 63
M  V30 END BOND
M  V30 END CTAB
M  END
>  <Dataset>  (601) 
ChEMBL_Kinases

>  <Ligand_Instance>  (601) 
nan

>  <PDB_ID>  (601) 
nan

>  <Standardized_SMILES>  (601) 
CC(C)(C)NC(=O)[C@H]1CC[C@H]2[C@@H]3CC[C@H]4NC(=O)C=C[C@]4(C)[C@H]3CC[C@]12C

>  <Name>  (601) 
FINASTERIDE

>  <Pocket>  (601) 
nan

>  <ATP_Site>  (601) 
nan

>  <Peripheral>  (601) 
nan

>  <Num_H_Atoms_ProtBoundConf>  (601) 
nan

>  <Num_Resolved_Atoms>  (601) 
nan

>  <Num_Not_Resolved_Atoms>  (601) 
nan

$$$$
CHEMBL4874663
     RDKit          3D

  0  0  0  0  0  0  0  0  0  0999 V3000
M  V30 BEGIN CTAB
M  V30 COUNTS 50 53 0 0 0
M  V30 BEGIN ATOM
M  V30 1 N 4.362858 -5.439776 0.668973 0
M  V30 2 C 4.573834 -4.301632 0.588074 0
M  V30 3 C 4.853937 -2.880371 0.502713 0
M  V30 4 C 5.907696 -2.308827 1.183257 0
M  V30 5 C 6.218753 -0.972883 1.139101 0
M  V30 6 C 5.395204 -0.188247 0.348719 0
M  V30 7 N 5.612419 1.137829 0.235437 0
M  V30 8 C 4.828862 1.910189 -0.521480 0
M  V30 9 N 3.794984 1.395989 -1.198687 0
M  V30 10 C 3.517898 0.096740 -1.136997 0
M  V30 11 N 2.395308 -0.401276 -1.895827 0
M  V30 12 C 1.590159 0.479100 -2.688981 0
M  V30 13 C 0.865121 1.473314 -1.844725 0
M  V30 14 C -0.039224 0.824933 -0.861242 0
M  V30 15 C 0.386488 0.506067 0.399311 0
M  V30 16 C -0.472221 -0.111454 1.314673 0
M  V30 17 C -1.750950 -0.376479 0.881868 0
M  V30 18 C -2.606249 -1.009887 1.857185 0
M  V30 19 O -2.053040 -1.636075 2.824864 0
M  V30 20 N -3.953088 -1.219708 2.177502 0
M  V30 21 C -4.069066 -2.008207 3.404510 0
M  V30 22 C -5.496131 -1.792346 3.878756 0
M  V30 23 O -5.880519 -0.483181 3.840606 0
M  V30 24 C -5.901140 0.069653 2.593420 0
M  V30 25 C -5.234883 -0.856998 1.602258 0
M  V30 26 C -2.176893 -0.049787 -0.400911 0
M  V30 27 C -1.323169 0.559629 -1.298221 0
M  V30 28 C 4.330874 -0.693599 -0.353749 0
M  V30 29 C 4.067362 -2.042561 -0.270668 0
M  V30 30 H 6.559546 -2.918096 1.805518 0
M  V30 31 H 7.060801 -0.546391 1.688264 0
M  V30 32 H 4.964633 2.989249 -0.643922 0
M  V30 33 H 2.120481 -1.400897 -1.905616 0
M  V30 34 H 0.876267 -0.102504 -3.288679 0
M  V30 35 H 2.260970 1.055261 -3.386893 0
M  V30 36 H 1.570713 2.125349 -1.309690 0
M  V30 37 H 0.262860 2.123481 -2.539765 0
M  V30 38 H 1.396346 0.723326 0.727998 0
M  V30 39 H -0.101249 -0.351738 2.302288 0
M  V30 40 H -3.373520 -1.630881 4.192027 0
M  V30 41 H -3.945311 -3.077356 3.193897 0
M  V30 42 H -5.547176 -2.108074 4.952398 0
M  V30 43 H -6.184909 -2.425342 3.313947 0
M  V30 44 H -5.319178 1.017467 2.611503 0
M  V30 45 H -6.917510 0.295679 2.219415 0
M  V30 46 H -5.129219 -0.333058 0.627596 0
M  V30 47 H -5.846123 -1.778121 1.432750 0
M  V30 48 H -3.172612 -0.262919 -0.722998 0
M  V30 49 H -1.644626 0.814337 -2.291595 0
M  V30 50 H 3.265151 -2.530358 -0.778918 0
M  V30 END ATOM
M  V30 BEGIN BOND
M  V30 1 3 1 2
M  V30 2 1 2 3
M  V30 3 2 3 4
M  V30 4 1 4 5
M  V30 5 2 5 6
M  V30 6 1 6 7
M  V30 7 2 7 8
M  V30 8 1 8 9
M  V30 9 2 9 10
M  V30 10 1 10 11
M  V30 11 1 11 12
M  V30 12 1 12 13
M  V30 13 1 13 14
M  V30 14 2 14 15
M  V30 15 1 15 16
M  V30 16 2 16 17
M  V30 17 1 17 18
M  V30 18 2 18 19
M  V30 19 1 18 20
M  V30 20 1 20 21
M  V30 21 1 21 22
M  V30 22 1 22 23
M  V30 23 1 23 24
M  V30 24 1 24 25
M  V30 25 1 17 26
M  V30 26 2 26 27
M  V30 27 1 10 28
M  V30 28 2 28 29
M  V30 29 1 29 3
M  V30 30 1 28 6
M  V30 31 1 27 14
M  V30 32 1 25 20
M  V30 33 1 4 30
M  V30 34 1 5 31
M  V30 35 1 8 32
M  V30 36 1 11 33
M  V30 37 1 12 34
M  V30 38 1 12 35
M  V30 39 1 13 36
M  V30 40 1 13 37
M  V30 41 1 15 38
M  V30 42 1 16 39
M  V30 43 1 21 40
M  V30 44 1 21 41
M  V30 45 1 22 42
M  V30 46 1 22 43
M  V30 47 1 24 44
M  V30 48 1 24 45
M  V30 49 1 25 46
M  V30 50 1 25 47
M  V30 51 1 26 48
M  V30 52 1 27 49
M  V30 53 1 29 50
M  V30 END BOND
M  V30 END CTAB
M  END
>  <Dataset>  (602) 
ChEMBL_Kinases

>  <Ligand_Instance>  (602) 
nan

>  <PDB_ID>  (602) 
nan

>  <Standardized_SMILES>  (602) 
N#Cc1ccc2ncnc(NCCc3ccc(C(=O)N4CCOCC4)cc3)c2c1

>  <Name>  (602) 
nan

>  <Pocket>  (602) 
nan

>  <ATP_Site>  (602) 
nan

>  <Peripheral>  (602) 
nan

>  <Num_H_Atoms_ProtBoundConf>  (602) 
nan

>  <Num_Resolved_Atoms>  (602) 
nan

>  <Num_Not_Resolved_Atoms>  (602) 
nan

$$$$
CHEMBL3730364
     RDKit          3D

  0  0  0  0  0  0  0  0  0  0999 V3000
M  V30 BEGIN CTAB
M  V30 COUNTS 48 52 0 0 0
M  V30 BEGIN ATOM
M  V30 1 F 1.869618 -3.734341 3.247095 0
M  V30 2 C 2.415267 -2.806537 2.411520 0
M  V30 3 C 3.791339 -2.730151 2.339382 0
M  V30 4 N 4.389776 -1.818144 1.517855 0
M  V30 5 C 3.617803 -0.996192 0.780728 0
M  V30 6 N 4.258323 -0.049624 -0.071953 0
M  V30 7 C 4.689362 1.283872 0.133934 0
M  V30 8 C 5.289804 1.939659 -0.921874 0
M  V30 9 C 5.691270 3.230572 -0.675226 0
M  V30 10 C 5.490981 3.812518 0.571698 0
M  V30 11 C 4.887860 3.120761 1.595260 0
M  V30 12 C 4.470630 1.817935 1.382274 0
M  V30 13 C 2.225241 -1.020327 0.805916 0
M  V30 14 C 1.652776 -1.950496 1.643717 0
M  V30 15 C 0.199868 -2.053935 1.740338 0
M  V30 16 N -0.466420 -1.183672 0.959057 0
M  V30 17 C -1.836647 -1.241545 1.014174 0
M  V30 18 N -2.721648 -0.411845 0.300420 0
M  V30 19 C -4.143147 -0.261094 0.106370 0 CFG=2
M  V30 20 C -4.701939 -1.401456 -0.704166 0
M  V30 21 C -4.955812 -0.824133 -2.056681 0
M  V30 22 N -4.885790 0.599135 -1.987690 0
M  V30 23 C -4.515640 0.958340 -0.655796 0
M  V30 24 C -2.465011 -2.165335 1.847371 0
M  V30 25 S -4.124280 -2.517816 2.188950 0
M  V30 26 C -3.720336 -3.888234 3.427328 0
M  V30 27 C -2.306070 -3.951347 3.466463 0
M  V30 28 C -1.753761 -3.035609 2.628629 0
M  V30 29 N -0.395106 -2.933075 2.532662 0
M  V30 30 H 4.440565 -3.373537 2.916264 0
M  V30 31 H 4.374060 -0.552514 -0.980359 0
M  V30 32 H 5.421582 1.435625 -1.877677 0
M  V30 33 H 6.165555 3.783207 -1.470482 0
M  V30 34 H 5.823345 4.830238 0.718804 0
M  V30 35 H 4.752786 3.609143 2.543466 0
M  V30 36 H 3.998051 1.249504 2.154820 0
M  V30 37 H 1.649604 -0.347712 0.202608 0
M  V30 38 H -2.171149 0.299381 -0.244870 0
M  V30 39 H -4.640602 -0.274635 1.118023 0
M  V30 40 H -3.931715 -2.207772 -0.725151 0
M  V30 41 H -5.638971 -1.818626 -0.279217 0
M  V30 42 H -4.219324 -1.229264 -2.803384 0
M  V30 43 H -5.948793 -1.173178 -2.465985 0
M  V30 44 H -5.796426 0.990914 -2.321600 0
M  V30 45 H -5.447583 1.384073 -0.179597 0
M  V30 46 H -3.725070 1.752264 -0.612687 0
M  V30 47 H -4.423464 -4.627499 4.107640 0
M  V30 48 H -1.886738 -4.684707 4.126354 0
M  V30 END ATOM
M  V30 BEGIN BOND
M  V30 1 1 1 2
M  V30 2 2 2 3
M  V30 3 1 3 4
M  V30 4 2 4 5
M  V30 5 1 5 6
M  V30 6 1 6 7
M  V30 7 2 7 8
M  V30 8 1 8 9
M  V30 9 2 9 10
M  V30 10 1 10 11
M  V30 11 2 11 12
M  V30 12 1 5 13
M  V30 13 2 13 14
M  V30 14 1 14 15
M  V30 15 2 15 16
M  V30 16 1 16 17
M  V30 17 1 17 18
M  V30 18 1 18 19
M  V30 19 1 19 20
M  V30 20 1 20 21
M  V30 21 1 21 22
M  V30 22 1 22 23
M  V30 23 2 17 24
M  V30 24 1 24 25
M  V30 25 1 25 26
M  V30 26 2 26 27
M  V30 27 1 27 28
M  V30 28 2 28 29
M  V30 29 1 14 2
M  V30 30 1 29 15
M  V30 31 1 12 7
M  V30 32 1 23 19
M  V30 33 1 28 24
M  V30 34 1 3 30
M  V30 35 1 6 31
M  V30 36 1 8 32
M  V30 37 1 9 33
M  V30 38 1 10 34
M  V30 39 1 11 35
M  V30 40 1 12 36
M  V30 41 1 13 37
M  V30 42 1 18 38
M  V30 43 1 19 39 CFG=1
M  V30 44 1 20 40
M  V30 45 1 20 41
M  V30 46 1 21 42
M  V30 47 1 21 43
M  V30 48 1 22 44
M  V30 49 1 23 45
M  V30 50 1 23 46
M  V30 51 1 26 47
M  V30 52 1 27 48
M  V30 END BOND
M  V30 END CTAB
M  END
>  <Dataset>  (603) 
ChEMBL_Kinases

>  <Ligand_Instance>  (603) 
nan

>  <PDB_ID>  (603) 
nan

>  <Standardized_SMILES>  (603) 
Fc1cnc(Nc2ccccc2)cc1-c1nc(N[C@@H]2CCNC2)c2sccc2n1

>  <Name>  (603) 
nan

>  <Pocket>  (603) 
nan

>  <ATP_Site>  (603) 
nan

>  <Peripheral>  (603) 
nan

>  <Num_H_Atoms_ProtBoundConf>  (603) 
nan

>  <Num_Resolved_Atoms>  (603) 
nan

>  <Num_Not_Resolved_Atoms>  (603) 
nan

$$$$
CHEMBL3730360
     RDKit          3D

  0  0  0  0  0  0  0  0  0  0999 V3000
M  V30 BEGIN CTAB
M  V30 COUNTS 61 66 0 0 0
M  V30 BEGIN ATOM
M  V30 1 N 3.628185 -0.822039 1.952196 0
M  V30 2 C 2.630961 -1.796383 2.220381 0 CFG=1
M  V30 3 C 1.280414 -1.236501 1.755694 0
M  V30 4 N 0.755252 -0.028295 2.296258 0
M  V30 5 C -0.209455 0.278123 1.442829 0
M  V30 6 N 0.452771 1.514290 1.561290 0
M  V30 7 C 0.126194 2.674803 0.928135 0
M  V30 8 C 0.737131 4.044942 0.934637 0
M  V30 9 C 1.920262 3.956171 1.624751 0
M  V30 10 C 2.611982 5.178538 1.697063 0
M  V30 11 N 2.204385 6.364451 1.156388 0
M  V30 12 C 0.992458 6.285810 0.487623 0
M  V30 13 C 0.232175 5.160420 0.353743 0
M  V30 14 N -0.941844 2.722975 0.073042 0
M  V30 15 C -1.679542 1.615728 -0.143968 0
M  V30 16 S -3.095279 0.887762 -0.950123 0
M  V30 17 C -2.996722 -0.717209 -0.293830 0
M  V30 18 C -1.876090 -0.683712 0.539102 0
M  V30 19 C -1.203554 0.596966 0.565294 0
M  V30 20 C -1.913236 -2.041487 1.225550 0
M  V30 21 C -3.399098 -2.244032 1.623715 0
M  V30 22 C -3.974558 -2.878444 0.341412 0
M  V30 23 C -3.934700 -1.759618 -0.709449 0
M  V30 24 O -3.230680 -3.977200 -0.009801 0
M  V30 25 C -4.074232 -5.048566 -0.170814 0
M  V30 26 C -5.436565 -4.345033 -0.355286 0
M  V30 27 O -5.268068 -3.275249 0.485153 0
M  V30 28 C 2.830994 -3.088865 1.418950 0
M  V30 29 C 2.851882 -2.881540 -0.035432 0
M  V30 30 C 4.010824 -2.680807 -0.824449 0
M  V30 31 C 4.014700 -2.477601 -2.169290 0
M  V30 32 C 2.902532 -2.442163 -2.965632 0
M  V30 33 C 1.745724 -2.640044 -2.204949 0
M  V30 34 C 1.718394 -2.844995 -0.863454 0
M  V30 35 H 4.217869 -0.976748 1.100001 0
M  V30 36 H 3.135606 0.126580 1.852230 0
M  V30 37 H 2.549042 -2.053126 3.272196 0
M  V30 38 H 1.511861 -0.977903 0.643333 0
M  V30 39 H 0.583057 -2.065021 1.668955 0
M  V30 40 H 1.478524 -0.377526 2.846137 0
M  V30 41 H 2.469886 3.194259 2.124877 0
M  V30 42 H 3.585750 5.307834 2.194566 0
M  V30 43 H 0.504008 7.151692 -0.005459 0
M  V30 44 H -0.695272 5.075006 -0.140611 0
M  V30 45 H -1.454619 -2.002789 2.250514 0
M  V30 46 H -1.631391 -2.862385 0.614832 0
M  V30 47 H -3.470274 -2.962017 2.426439 0
M  V30 48 H -3.893417 -1.295699 1.774864 0
M  V30 49 H -4.918417 -1.330296 -0.845497 0
M  V30 50 H -3.642871 -2.279138 -1.683422 0
M  V30 51 H -4.168771 -5.685284 0.715221 0
M  V30 52 H -3.813832 -5.652073 -1.089239 0
M  V30 53 H -5.579479 -4.121480 -1.416143 0
M  V30 54 H -6.278233 -4.993472 -0.059000 0
M  V30 55 H 3.721187 -3.622593 1.788697 0
M  V30 56 H 1.935454 -3.728247 1.681242 0
M  V30 57 H 4.966177 -2.684449 -0.302332 0
M  V30 58 H 4.994157 -2.330721 -2.656465 0
M  V30 59 H 2.893400 -2.280471 -4.020068 0
M  V30 60 H 0.831094 -2.622135 -2.820655 0
M  V30 61 H 0.728088 -2.983612 -0.466515 0
M  V30 END ATOM
M  V30 BEGIN BOND
M  V30 1 1 1 2
M  V30 2 1 2 3
M  V30 3 1 3 4
M  V30 4 1 4 5
M  V30 5 2 5 6
M  V30 6 1 6 7
M  V30 7 1 7 8
M  V30 8 2 8 9
M  V30 9 1 9 10
M  V30 10 2 10 11
M  V30 11 1 11 12
M  V30 12 2 12 13
M  V30 13 2 7 14
M  V30 14 1 14 15
M  V30 15 1 15 16
M  V30 16 1 16 17
M  V30 17 2 17 18
M  V30 18 1 18 19
M  V30 19 1 18 20
M  V30 20 1 20 21
M  V30 21 1 21 22
M  V30 22 1 22 23
M  V30 23 1 22 24
M  V30 24 1 24 25
M  V30 25 1 25 26
M  V30 26 1 26 27
M  V30 27 1 2 28
M  V30 28 1 28 29
M  V30 29 2 29 30
M  V30 30 1 30 31
M  V30 31 2 31 32
M  V30 32 1 32 33
M  V30 33 2 33 34
M  V30 34 1 19 5
M  V30 35 1 27 22
M  V30 36 1 34 29
M  V30 37 1 13 8
M  V30 38 2 19 15
M  V30 39 1 23 17
M  V30 40 1 1 35
M  V30 41 1 1 36
M  V30 42 1 2 37 CFG=1
M  V30 43 1 3 38
M  V30 44 1 3 39
M  V30 45 1 4 40
M  V30 46 1 9 41
M  V30 47 1 10 42
M  V30 48 1 12 43
M  V30 49 1 13 44
M  V30 50 1 20 45
M  V30 51 1 20 46
M  V30 52 1 21 47
M  V30 53 1 21 48
M  V30 54 1 23 49
M  V30 55 1 23 50
M  V30 56 1 25 51
M  V30 57 1 25 52
M  V30 58 1 26 53
M  V30 59 1 26 54
M  V30 60 1 28 55
M  V30 61 1 28 56
M  V30 62 1 30 57
M  V30 63 1 31 58
M  V30 64 1 32 59
M  V30 65 1 33 60
M  V30 66 1 34 61
M  V30 END BOND
M  V30 END CTAB
M  END
>  <Dataset>  (604) 
ChEMBL_Kinases

>  <Ligand_Instance>  (604) 
nan

>  <PDB_ID>  (604) 
nan

>  <Standardized_SMILES>  (604) 
N[C@@H](CNc1nc(-c2ccncc2)nc2sc3c(c12)CCC1(C3)OCCO1)Cc1ccccc1

>  <Name>  (604) 
nan

>  <Pocket>  (604) 
nan

>  <ATP_Site>  (604) 
nan

>  <Peripheral>  (604) 
nan

>  <Num_H_Atoms_ProtBoundConf>  (604) 
nan

>  <Num_Resolved_Atoms>  (604) 
nan

>  <Num_Not_Resolved_Atoms>  (604) 
nan

$$$$
CHEMBL3730343
     RDKit          3D

  0  0  0  0  0  0  0  0  0  0999 V3000
M  V30 BEGIN CTAB
M  V30 COUNTS 44 46 0 0 0
M  V30 BEGIN ATOM
M  V30 1 O -2.157643 -2.885034 1.985970 0
M  V30 2 C -1.345755 -1.919113 1.778079 0
M  V30 3 C -2.027479 -0.655210 2.059528 0
M  V30 4 N -1.266071 0.531848 1.863706 0
M  V30 5 C -0.778647 0.941356 0.592933 0
M  V30 6 C -0.994913 0.252908 -0.582603 0
M  V30 7 C -0.515037 0.663470 -1.809886 0
M  V30 8 C 0.224954 1.822395 -1.897367 0
M  V30 9 C 0.484129 2.571655 -0.748195 0
M  V30 10 O 1.220624 3.752139 -0.741177 0
M  V30 11 C 1.442668 4.437562 0.450679 0
M  V30 12 C 0.702761 5.426637 1.061491 0
M  V30 13 C 1.133087 5.957465 2.255090 0
M  V30 14 C 2.301491 5.504269 2.843122 0
M  V30 15 F 2.714672 6.030519 4.012721 0
M  V30 16 C 3.066497 4.509823 2.250949 0
M  V30 17 F 4.199896 4.106460 2.871315 0
M  V30 18 C 2.619081 3.976944 1.036543 0
M  V30 19 C -0.032188 2.091771 0.441742 0
M  V30 20 N -0.031375 -2.226559 1.346066 0
M  V30 21 N 0.352537 -3.559200 1.154265 0
M  V30 22 C -0.136399 -4.331580 0.247962 0
M  V30 23 C 0.368179 -5.697840 0.174936 0
M  V30 24 C 1.331170 -6.095668 1.065916 0
M  V30 25 C 1.812413 -7.388880 1.000456 0
M  V30 26 N 1.384315 -8.296980 0.098183 0
M  V30 27 C 0.444124 -7.897773 -0.766644 0
M  V30 28 C -0.086301 -6.608111 -0.758014 0
M  V30 29 H -2.466619 -0.680718 3.074484 0
M  V30 30 H -2.885622 -0.598132 1.326648 0
M  V30 31 H -1.047921 1.138758 2.681591 0
M  V30 32 H -1.571193 -0.659497 -0.550176 0
M  V30 33 H -0.717086 0.079583 -2.704979 0
M  V30 34 H 0.628548 2.197812 -2.828495 0
M  V30 35 H -0.170110 5.683247 0.508495 0
M  V30 36 H 0.518326 6.726232 2.688512 0
M  V30 37 H 3.294328 3.206874 0.665107 0
M  V30 38 H 0.160238 2.667583 1.361143 0
M  V30 39 H 0.537555 -1.383594 1.214809 0
M  V30 40 H -0.894567 -3.941087 -0.417031 0
M  V30 41 H 1.721895 -5.420829 1.817649 0
M  V30 42 H 2.581302 -7.726357 1.702903 0
M  V30 43 H 0.123933 -8.649550 -1.475487 0
M  V30 44 H -0.845917 -6.326418 -1.475353 0
M  V30 END ATOM
M  V30 BEGIN BOND
M  V30 1 2 1 2
M  V30 2 1 2 3
M  V30 3 1 3 4
M  V30 4 1 4 5
M  V30 5 2 5 6
M  V30 6 1 6 7
M  V30 7 2 7 8
M  V30 8 1 8 9
M  V30 9 1 9 10
M  V30 10 1 10 11
M  V30 11 2 11 12
M  V30 12 1 12 13
M  V30 13 2 13 14
M  V30 14 1 14 15
M  V30 15 1 14 16
M  V30 16 1 16 17
M  V30 17 2 16 18
M  V30 18 2 9 19
M  V30 19 1 2 20
M  V30 20 1 20 21
M  V30 21 2 21 22
M  V30 22 1 22 23
M  V30 23 2 23 24
M  V30 24 1 24 25
M  V30 25 2 25 26
M  V30 26 1 26 27
M  V30 27 2 27 28
M  V30 28 1 19 5
M  V30 29 1 28 23
M  V30 30 1 18 11
M  V30 31 1 3 29
M  V30 32 1 3 30
M  V30 33 1 4 31
M  V30 34 1 6 32
M  V30 35 1 7 33
M  V30 36 1 8 34
M  V30 37 1 12 35
M  V30 38 1 13 36
M  V30 39 1 18 37
M  V30 40 1 19 38
M  V30 41 1 20 39
M  V30 42 1 22 40
M  V30 43 1 24 41
M  V30 44 1 25 42
M  V30 45 1 27 43
M  V30 46 1 28 44
M  V30 END BOND
M  V30 END CTAB
M  END
>  <Dataset>  (605) 
ChEMBL_Kinases

>  <Ligand_Instance>  (605) 
nan

>  <PDB_ID>  (605) 
nan

>  <Standardized_SMILES>  (605) 
O=C(CNc1cccc(Oc2ccc(F)c(F)c2)c1)N/N=C/c1ccncc1

>  <Name>  (605) 
nan

>  <Pocket>  (605) 
nan

>  <ATP_Site>  (605) 
nan

>  <Peripheral>  (605) 
nan

>  <Num_H_Atoms_ProtBoundConf>  (605) 
nan

>  <Num_Resolved_Atoms>  (605) 
nan

>  <Num_Not_Resolved_Atoms>  (605) 
nan

$$$$
CHEMBL3730334
     RDKit          3D

  0  0  0  0  0  0  0  0  0  0999 V3000
M  V30 BEGIN CTAB
M  V30 COUNTS 54 58 0 0 0
M  V30 BEGIN ATOM
M  V30 1 C -0.269819 -1.569372 3.175063 0
M  V30 2 C -0.203276 -3.054045 3.032916 0 CFG=2
M  V30 3 N 0.816778 -3.527098 2.100948 0
M  V30 4 C 1.044365 -3.236327 0.726880 0
M  V30 5 C 0.923394 -1.980815 0.153582 0
M  V30 6 C 1.113606 -1.803310 -1.195535 0
M  V30 7 C 0.938692 -0.434374 -1.685007 0
M  V30 8 N 0.689735 0.615325 -0.889680 0
M  V30 9 C 0.519992 1.831112 -1.419342 0
M  V30 10 N 0.282779 3.029680 -0.747249 0
M  V30 11 C 0.226603 3.246050 0.649591 0 CFG=2
M  V30 12 C 1.603500 2.998001 1.315493 0
M  V30 13 C 1.142397 3.100171 2.762645 0
M  V30 14 N -0.024509 2.221624 2.790975 0
M  V30 15 C -0.588169 2.245802 1.443385 0
M  V30 16 C 0.618958 1.906508 -2.787627 0
M  V30 17 S 0.463373 3.338711 -3.909932 0
M  V30 18 C 0.770244 2.356886 -5.510417 0
M  V30 19 C 0.950995 1.071741 -5.000300 0
M  V30 20 C 0.879065 0.836610 -3.663306 0
M  V30 21 N 1.030454 -0.327369 -3.023686 0
M  V30 22 C 1.429647 -2.875256 -1.999802 0
M  V30 23 C 1.537961 -4.098157 -1.377814 0
M  V30 24 N 1.354781 -4.285892 -0.064721 0
M  V30 25 C -1.522071 -3.677741 2.753364 0
M  V30 26 C -2.049034 -3.790268 1.491693 0
M  V30 27 C -3.258716 -4.355617 1.152110 0
M  V30 28 C -4.027953 -4.867979 2.205578 0
M  V30 29 C -3.547330 -4.785115 3.516598 0
M  V30 30 C -2.323044 -4.202962 3.778173 0
M  V30 31 H 0.729373 -1.145714 3.242675 0
M  V30 32 H -0.958249 -1.087361 2.449136 0
M  V30 33 H -0.768086 -1.367587 4.172972 0
M  V30 34 H 0.082921 -3.441289 4.049870 0
M  V30 35 H 1.541696 -4.210338 2.492378 0
M  V30 36 H 0.687668 -1.161739 0.776373 0
M  V30 37 H 0.113967 3.919516 -1.273518 0
M  V30 38 H -0.057427 4.254776 0.937315 0
M  V30 39 H 1.951351 1.974111 1.145451 0
M  V30 40 H 2.326397 3.789561 1.036396 0
M  V30 41 H 1.906417 2.874604 3.487214 0
M  V30 42 H 0.704261 4.134436 2.880407 0
M  V30 43 H 0.319040 1.284557 3.075230 0
M  V30 44 H -1.627792 2.597312 1.451750 0
M  V30 45 H -0.468195 1.218269 1.063552 0
M  V30 46 H 0.765727 2.811855 -6.396573 0
M  V30 47 H 1.143800 0.336248 -5.757641 0
M  V30 48 H 1.573796 -2.708363 -3.057454 0
M  V30 49 H 1.784987 -4.968775 -1.973416 0
M  V30 50 H -1.521871 -3.423105 0.637713 0
M  V30 51 H -3.664542 -4.440218 0.166610 0
M  V30 52 H -4.993502 -5.326188 1.975183 0
M  V30 53 H -4.215371 -5.203421 4.235295 0
M  V30 54 H -1.988805 -4.161123 4.817209 0
M  V30 END ATOM
M  V30 BEGIN BOND
M  V30 1 1 1 2
M  V30 2 1 2 3
M  V30 3 1 3 4
M  V30 4 2 4 5
M  V30 5 1 5 6
M  V30 6 1 6 7
M  V30 7 2 7 8
M  V30 8 1 8 9
M  V30 9 1 9 10
M  V30 10 1 10 11
M  V30 11 1 11 12
M  V30 12 1 12 13
M  V30 13 1 13 14
M  V30 14 1 14 15
M  V30 15 2 9 16
M  V30 16 1 16 17
M  V30 17 1 17 18
M  V30 18 2 18 19
M  V30 19 1 19 20
M  V30 20 2 20 21
M  V30 21 2 6 22
M  V30 22 1 22 23
M  V30 23 2 23 24
M  V30 24 1 2 25
M  V30 25 2 25 26
M  V30 26 1 26 27
M  V30 27 2 27 28
M  V30 28 1 28 29
M  V30 29 2 29 30
M  V30 30 1 24 4
M  V30 31 1 30 25
M  V30 32 1 21 7
M  V30 33 1 15 11
M  V30 34 1 20 16
M  V30 35 1 1 31
M  V30 36 1 1 32
M  V30 37 1 1 33
M  V30 38 1 2 34 CFG=1
M  V30 39 1 3 35
M  V30 40 1 5 36
M  V30 41 1 10 37
M  V30 42 1 11 38 CFG=3
M  V30 43 1 12 39
M  V30 44 1 12 40
M  V30 45 1 13 41
M  V30 46 1 13 42
M  V30 47 1 14 43
M  V30 48 1 15 44
M  V30 49 1 15 45
M  V30 50 1 18 46
M  V30 51 1 19 47
M  V30 52 1 22 48
M  V30 53 1 23 49
M  V30 54 1 26 50
M  V30 55 1 27 51
M  V30 56 1 28 52
M  V30 57 1 29 53
M  V30 58 1 30 54
M  V30 END BOND
M  V30 END CTAB
M  END
>  <Dataset>  (606) 
ChEMBL_Kinases

>  <Ligand_Instance>  (606) 
nan

>  <PDB_ID>  (606) 
nan

>  <Standardized_SMILES>  (606) 
C[C@H](Nc1cc(-c2nc(N[C@@H]3CCNC3)c3sccc3n2)ccn1)c1ccccc1

>  <Name>  (606) 
nan

>  <Pocket>  (606) 
nan

>  <ATP_Site>  (606) 
nan

>  <Peripheral>  (606) 
nan

>  <Num_H_Atoms_ProtBoundConf>  (606) 
nan

>  <Num_Resolved_Atoms>  (606) 
nan

>  <Num_Not_Resolved_Atoms>  (606) 
nan

$$$$
CHEMBL3730316
     RDKit          3D

  0  0  0  0  0  0  0  0  0  0999 V3000
M  V30 BEGIN CTAB
M  V30 COUNTS 51 55 0 0 0
M  V30 BEGIN ATOM
M  V30 1 C 2.609029 -3.973101 3.775279 0
M  V30 2 C 2.283470 -2.762650 3.246823 0
M  V30 3 C 2.590332 -2.423659 1.948414 0
M  V30 4 C 3.247245 -3.313986 1.128908 0
M  V30 5 C 3.706416 -3.285426 -0.282557 0
M  V30 6 N 2.805971 -3.850277 -1.230720 0
M  V30 7 C 1.513770 -3.531593 -1.696328 0
M  V30 8 C 0.815061 -2.426701 -1.280017 0
M  V30 9 C -0.443528 -2.131326 -1.736449 0
M  V30 10 C -1.148909 -0.947627 -1.266971 0
M  V30 11 N -0.522000 -0.166737 -0.374789 0
M  V30 12 C -1.208802 0.936135 0.047145 0
M  V30 13 N -0.643568 1.832337 0.975993 0
M  V30 14 C -1.016231 3.046392 1.675340 0 CFG=2
M  V30 15 C 0.079654 3.647850 2.494760 0
M  V30 16 C -0.576833 4.043425 3.785673 0
M  V30 17 N -1.591843 3.015056 3.981906 0
M  V30 18 C -2.144574 2.836693 2.630910 0
M  V30 19 C -2.440316 1.192682 -0.426452 0
M  V30 20 S -3.601277 2.493099 -0.126864 0
M  V30 21 C -4.924106 1.827646 -1.310895 0
M  V30 22 C -4.325059 0.643359 -1.830263 0
M  V30 23 C -3.082637 0.384782 -1.346117 0
M  V30 24 N -2.377129 -0.683156 -1.732740 0
M  V30 25 C -1.038810 -2.971618 -2.650215 0
M  V30 26 C -0.327429 -4.076425 -3.059980 0
M  V30 27 N 0.900220 -4.322168 -2.584423 0
M  V30 28 C 3.584699 -4.564268 1.671808 0
M  V30 29 C 3.265795 -4.894287 2.994960 0
M  V30 30 H 2.335519 -4.157385 4.788993 0
M  V30 31 H 1.765574 -1.954941 3.763280 0
M  V30 32 H 2.396484 -1.511423 1.431276 0
M  V30 33 H 4.744475 -3.619897 -0.385166 0
M  V30 34 H 3.746746 -2.171753 -0.529891 0
M  V30 35 H 3.241554 -4.718732 -1.673973 0
M  V30 36 H 1.234309 -1.749121 -0.582291 0
M  V30 37 H 0.345627 1.560657 1.265082 0
M  V30 38 H -1.328940 3.778085 0.900474 0
M  V30 39 H 0.884715 2.913978 2.724774 0
M  V30 40 H 0.526393 4.548666 2.010791 0
M  V30 41 H 0.108619 4.126314 4.643348 0
M  V30 42 H -1.153018 5.003875 3.663813 0
M  V30 43 H -1.112455 2.162849 4.330133 0
M  V30 44 H -2.920904 3.629626 2.504147 0
M  V30 45 H -2.574741 1.816628 2.603476 0
M  V30 46 H -5.863236 2.295419 -1.483458 0
M  V30 47 H -4.949754 0.127913 -2.532973 0
M  V30 48 H -2.024443 -2.762996 -3.024516 0
M  V30 49 H -0.741682 -4.781416 -3.781227 0
M  V30 50 H 4.104785 -5.409479 1.195614 0
M  V30 51 H 3.493462 -5.828025 3.470814 0
M  V30 END ATOM
M  V30 BEGIN BOND
M  V30 1 2 1 2
M  V30 2 1 2 3
M  V30 3 2 3 4
M  V30 4 1 4 5
M  V30 5 1 5 6
M  V30 6 1 6 7
M  V30 7 2 7 8
M  V30 8 1 8 9
M  V30 9 1 9 10
M  V30 10 2 10 11
M  V30 11 1 11 12
M  V30 12 1 12 13
M  V30 13 1 13 14
M  V30 14 1 14 15
M  V30 15 1 15 16
M  V30 16 1 16 17
M  V30 17 1 17 18
M  V30 18 2 12 19
M  V30 19 1 19 20
M  V30 20 1 20 21
M  V30 21 2 21 22
M  V30 22 1 22 23
M  V30 23 2 23 24
M  V30 24 2 9 25
M  V30 25 1 25 26
M  V30 26 2 26 27
M  V30 27 1 4 28
M  V30 28 2 28 29
M  V30 29 1 29 1
M  V30 30 1 27 7
M  V30 31 1 24 10
M  V30 32 1 18 14
M  V30 33 1 23 19
M  V30 34 1 1 30
M  V30 35 1 2 31
M  V30 36 1 3 32
M  V30 37 1 5 33
M  V30 38 1 5 34
M  V30 39 1 6 35
M  V30 40 1 8 36
M  V30 41 1 13 37
M  V30 42 1 14 38 CFG=3
M  V30 43 1 15 39
M  V30 44 1 15 40
M  V30 45 1 16 41
M  V30 46 1 16 42
M  V30 47 1 17 43
M  V30 48 1 18 44
M  V30 49 1 18 45
M  V30 50 1 21 46
M  V30 51 1 22 47
M  V30 52 1 25 48
M  V30 53 1 26 49
M  V30 54 1 28 50
M  V30 55 1 29 51
M  V30 END BOND
M  V30 END CTAB
M  END
>  <Dataset>  (607) 
ChEMBL_Kinases

>  <Ligand_Instance>  (607) 
nan

>  <PDB_ID>  (607) 
nan

>  <Standardized_SMILES>  (607) 
c1ccc(CNc2cc(-c3nc(N[C@@H]4CCNC4)c4sccc4n3)ccn2)cc1

>  <Name>  (607) 
nan

>  <Pocket>  (607) 
nan

>  <ATP_Site>  (607) 
nan

>  <Peripheral>  (607) 
nan

>  <Num_H_Atoms_ProtBoundConf>  (607) 
nan

>  <Num_Resolved_Atoms>  (607) 
nan

>  <Num_Not_Resolved_Atoms>  (607) 
nan

$$$$
CHEMBL3730311
     RDKit          3D

  0  0  0  0  0  0  0  0  0  0999 V3000
M  V30 BEGIN CTAB
M  V30 COUNTS 61 66 0 0 0
M  V30 BEGIN ATOM
M  V30 1 N 2.148977 -3.183444 0.163237 0
M  V30 2 C 2.565724 -2.001855 0.897790 0 CFG=2
M  V30 3 C 1.734861 -1.726689 2.095777 0
M  V30 4 N 0.343516 -1.499040 1.883959 0
M  V30 5 C -0.320340 -0.299992 1.518596 0
M  V30 6 N 0.536173 0.707627 1.354489 0
M  V30 7 C 0.236378 1.941499 0.990424 0
M  V30 8 C 1.002972 3.146980 0.783231 0
M  V30 9 C 2.357650 3.104791 1.039204 0
M  V30 10 C 3.173153 4.205708 0.879855 0
M  V30 11 N 2.633647 5.355694 0.462822 0
M  V30 12 C 1.319035 5.442969 0.201753 0
M  V30 13 C 0.482554 4.361598 0.351757 0
M  V30 14 N -1.076262 2.113981 0.784537 0
M  V30 15 C -1.969427 1.147861 0.933901 0
M  V30 16 S -3.738949 1.143692 0.703159 0
M  V30 17 C -3.976609 -0.548964 1.123869 0
M  V30 18 C -2.716386 -1.065985 1.428947 0
M  V30 19 C -1.671451 -0.186228 1.327058 0
M  V30 20 C -2.622204 -2.476001 1.882250 0
M  V30 21 C -4.004207 -2.987517 2.218250 0
M  V30 22 C -5.040617 -2.725130 1.177293 0
M  V30 23 C -5.282906 -1.213196 1.097374 0
M  V30 24 O -4.642817 -3.252535 -0.025538 0
M  V30 25 C -5.740824 -3.854102 -0.605012 0
M  V30 26 C -6.889521 -3.464569 0.302229 0
M  V30 27 O -6.233833 -3.311103 1.526091 0
M  V30 28 C 2.827892 -0.853599 -0.030916 0
M  V30 29 C 3.917390 -1.186783 -1.006567 0
M  V30 30 C 5.268377 -0.934241 -0.756110 0
M  V30 31 C 6.209293 -1.273577 -1.711257 0
M  V30 32 C 5.861051 -1.858083 -2.914578 0
M  V30 33 C 4.521329 -2.109376 -3.164847 0
M  V30 34 C 3.553873 -1.775294 -2.215262 0
M  V30 35 H 2.940648 -3.431650 -0.464208 0
M  V30 36 H 1.972882 -3.930319 0.848765 0
M  V30 37 H 3.592963 -2.287095 1.297369 0
M  V30 38 H 1.891294 -2.557696 2.810082 0
M  V30 39 H 2.219216 -0.836220 2.613202 0
M  V30 40 H -0.099040 -2.424777 2.024981 0
M  V30 41 H 2.912017 2.251310 1.381712 0
M  V30 42 H 4.234829 4.247806 1.059403 0
M  V30 43 H 0.790931 6.330679 -0.140190 0
M  V30 44 H -0.581788 4.373370 0.156776 0
M  V30 45 H -2.081716 -2.535196 2.875095 0
M  V30 46 H -2.187315 -3.170509 1.175156 0
M  V30 47 H -4.307010 -2.524215 3.203941 0
M  V30 48 H -3.972011 -4.067527 2.421086 0
M  V30 49 H -5.896641 -0.835522 1.910653 0
M  V30 50 H -5.813432 -1.039636 0.140406 0
M  V30 51 H -5.655505 -4.975383 -0.564913 0
M  V30 52 H -5.855222 -3.496234 -1.642836 0
M  V30 53 H -7.333472 -2.541669 -0.088990 0
M  V30 54 H -7.645678 -4.276865 0.363832 0
M  V30 55 H 1.894162 -0.649375 -0.597056 0
M  V30 56 H 3.105149 0.070794 0.498792 0
M  V30 57 H 5.528986 -0.476480 0.188973 0
M  V30 58 H 7.263079 -1.076551 -1.515787 0
M  V30 59 H 6.595859 -2.126922 -3.668872 0
M  V30 60 H 4.177926 -2.571987 -4.102009 0
M  V30 61 H 2.513584 -1.987842 -2.447700 0
M  V30 END ATOM
M  V30 BEGIN BOND
M  V30 1 1 1 2
M  V30 2 1 2 3
M  V30 3 1 3 4
M  V30 4 1 4 5
M  V30 5 2 5 6
M  V30 6 1 6 7
M  V30 7 1 7 8
M  V30 8 2 8 9
M  V30 9 1 9 10
M  V30 10 2 10 11
M  V30 11 1 11 12
M  V30 12 2 12 13
M  V30 13 2 7 14
M  V30 14 1 14 15
M  V30 15 1 15 16
M  V30 16 1 16 17
M  V30 17 2 17 18
M  V30 18 1 18 19
M  V30 19 1 18 20
M  V30 20 1 20 21
M  V30 21 1 21 22
M  V30 22 1 22 23
M  V30 23 1 22 24
M  V30 24 1 24 25
M  V30 25 1 25 26
M  V30 26 1 26 27
M  V30 27 1 2 28
M  V30 28 1 28 29
M  V30 29 2 29 30
M  V30 30 1 30 31
M  V30 31 2 31 32
M  V30 32 1 32 33
M  V30 33 2 33 34
M  V30 34 1 19 5
M  V30 35 1 27 22
M  V30 36 1 34 29
M  V30 37 1 13 8
M  V30 38 2 19 15
M  V30 39 1 23 17
M  V30 40 1 1 35
M  V30 41 1 1 36
M  V30 42 1 2 37 CFG=1
M  V30 43 1 3 38
M  V30 44 1 3 39
M  V30 45 1 4 40
M  V30 46 1 9 41
M  V30 47 1 10 42
M  V30 48 1 12 43
M  V30 49 1 13 44
M  V30 50 1 20 45
M  V30 51 1 20 46
M  V30 52 1 21 47
M  V30 53 1 21 48
M  V30 54 1 23 49
M  V30 55 1 23 50
M  V30 56 1 25 51
M  V30 57 1 25 52
M  V30 58 1 26 53
M  V30 59 1 26 54
M  V30 60 1 28 55
M  V30 61 1 28 56
M  V30 62 1 30 57
M  V30 63 1 31 58
M  V30 64 1 32 59
M  V30 65 1 33 60
M  V30 66 1 34 61
M  V30 END BOND
M  V30 END CTAB
M  END
>  <Dataset>  (608) 
ChEMBL_Kinases

>  <Ligand_Instance>  (608) 
nan

>  <PDB_ID>  (608) 
nan

>  <Standardized_SMILES>  (608) 
N[C@H](CNc1nc(-c2ccncc2)nc2sc3c(c12)CCC1(C3)OCCO1)Cc1ccccc1

>  <Name>  (608) 
nan

>  <Pocket>  (608) 
nan

>  <ATP_Site>  (608) 
nan

>  <Peripheral>  (608) 
nan

>  <Num_H_Atoms_ProtBoundConf>  (608) 
nan

>  <Num_Resolved_Atoms>  (608) 
nan

>  <Num_Not_Resolved_Atoms>  (608) 
nan

$$$$
CHEMBL3730303
     RDKit          3D

  0  0  0  0  0  0  0  0  0  0999 V3000
M  V30 BEGIN CTAB
M  V30 COUNTS 44 46 0 0 0
M  V30 BEGIN ATOM
M  V30 1 C 1.940352 -5.237660 0.863182 0
M  V30 2 C 0.530476 -4.748731 0.914054 0
M  V30 3 C -0.227857 -5.247735 2.116222 0
M  V30 4 C -0.184105 -5.348529 -0.300511 0
M  V30 5 C 0.476263 -3.309156 0.789377 0
M  V30 6 S 1.952193 -2.297840 0.600415 0
M  V30 7 C 1.009797 -0.687084 0.519974 0
M  V30 8 C 1.492294 0.604914 0.372545 0
M  V30 9 N 2.891422 0.785881 0.251804 0
M  V30 10 C 3.558866 2.023810 0.101449 0
M  V30 11 C 3.501051 2.967620 1.251548 0
M  V30 12 N 2.148644 3.326968 1.551883 0
M  V30 13 N 0.562344 1.571630 0.348706 0
M  V30 14 C -0.727934 1.217933 0.466634 0
M  V30 15 C -1.764920 2.262383 0.443025 0
M  V30 16 C -3.107479 1.976984 0.558303 0
M  V30 17 C -4.057659 2.997057 0.531031 0
M  V30 18 N -3.638289 4.266646 0.389869 0
M  V30 19 C -2.320889 4.518273 0.279284 0
M  V30 20 C -1.309434 3.554380 0.297452 0
M  V30 21 N -1.159480 -0.044833 0.608043 0
M  V30 22 C -0.325403 -1.097229 0.645944 0
M  V30 23 C -0.538327 -2.438871 0.779763 0
M  V30 24 Br -2.328720 -3.151804 0.963191 0
M  V30 25 H 2.510213 -4.918311 1.758384 0
M  V30 26 H 1.935321 -6.313929 0.699064 0
M  V30 27 H 2.400120 -4.764952 -0.048959 0
M  V30 28 H 0.044774 -4.641737 3.010501 0
M  V30 29 H 0.149091 -6.281553 2.371006 0
M  V30 30 H -1.301056 -5.368052 1.950350 0
M  V30 31 H -1.284516 -5.278938 -0.207621 0
M  V30 32 H 0.156256 -6.383253 -0.489357 0
M  V30 33 H 0.083614 -4.761696 -1.218697 0
M  V30 34 H 3.515107 -0.068781 0.274868 0
M  V30 35 H 3.100679 2.560166 -0.792262 0
M  V30 36 H 4.620073 1.859379 -0.256388 0
M  V30 37 H 3.971074 2.458079 2.125740 0
M  V30 38 H 4.040032 3.897782 0.983135 0
M  V30 39 H 2.073062 3.410658 2.605560 0
M  V30 40 H 1.898747 4.252284 1.111102 0
M  V30 41 H -3.424298 0.947627 0.671190 0
M  V30 42 H -5.122820 2.793056 0.620504 0
M  V30 43 H -2.048212 5.574046 0.166991 0
M  V30 44 H -0.292579 3.892300 0.199291 0
M  V30 END ATOM
M  V30 BEGIN BOND
M  V30 1 1 1 2
M  V30 2 1 2 3
M  V30 3 1 2 4
M  V30 4 1 2 5
M  V30 5 1 5 6
M  V30 6 1 6 7
M  V30 7 2 7 8
M  V30 8 1 8 9
M  V30 9 1 9 10
M  V30 10 1 10 11
M  V30 11 1 11 12
M  V30 12 1 8 13
M  V30 13 2 13 14
M  V30 14 1 14 15
M  V30 15 2 15 16
M  V30 16 1 16 17
M  V30 17 2 17 18
M  V30 18 1 18 19
M  V30 19 2 19 20
M  V30 20 1 14 21
M  V30 21 2 21 22
M  V30 22 1 22 23
M  V30 23 1 23 24
M  V30 24 2 23 5
M  V30 25 1 22 7
M  V30 26 1 20 15
M  V30 27 1 1 25
M  V30 28 1 1 26
M  V30 29 1 1 27
M  V30 30 1 3 28
M  V30 31 1 3 29
M  V30 32 1 3 30
M  V30 33 1 4 31
M  V30 34 1 4 32
M  V30 35 1 4 33
M  V30 36 1 9 34
M  V30 37 1 10 35
M  V30 38 1 10 36
M  V30 39 1 11 37
M  V30 40 1 11 38
M  V30 41 1 12 39
M  V30 42 1 12 40
M  V30 43 1 16 41
M  V30 44 1 17 42
M  V30 45 1 19 43
M  V30 46 1 20 44
M  V30 END BOND
M  V30 END CTAB
M  END
>  <Dataset>  (609) 
ChEMBL_Kinases

>  <Ligand_Instance>  (609) 
nan

>  <PDB_ID>  (609) 
nan

>  <Standardized_SMILES>  (609) 
CC(C)(C)c1sc2c(NCCN)nc(-c3ccncc3)nc2c1Br

>  <Name>  (609) 
nan

>  <Pocket>  (609) 
nan

>  <ATP_Site>  (609) 
nan

>  <Peripheral>  (609) 
nan

>  <Num_H_Atoms_ProtBoundConf>  (609) 
nan

>  <Num_Resolved_Atoms>  (609) 
nan

>  <Num_Not_Resolved_Atoms>  (609) 
nan

$$$$
CHEMBL3730299
     RDKit          3D

  0  0  0  0  0  0  0  0  0  0999 V3000
M  V30 BEGIN CTAB
M  V30 COUNTS 33 34 0 0 0
M  V30 BEGIN ATOM
M  V30 1 O -0.517880 -1.279685 -0.130337 0
M  V30 2 C -0.492985 -1.817581 1.007166 0
M  V30 3 C -0.023559 -3.033372 1.732264 0
M  V30 4 N 0.639346 -3.883095 0.762418 0
M  V30 5 C 1.791110 -3.469956 0.061083 0
M  V30 6 C 2.375844 -2.240900 0.249135 0
M  V30 7 C 3.492409 -1.840435 -0.434380 0
M  V30 8 C 4.075912 -2.686312 -1.356639 0
M  V30 9 C 3.520391 -3.924739 -1.573078 0
M  V30 10 Br 4.256878 -5.156932 -2.825300 0
M  V30 11 C 2.403650 -4.269860 -0.859838 0
M  V30 12 N -1.161552 -0.913208 1.894593 0
M  V30 13 N -1.693568 0.300165 1.454472 0
M  V30 14 C -1.639295 1.413491 2.079762 0
M  V30 15 C -2.309070 2.478402 1.308587 0
M  V30 16 C -1.472220 3.168371 0.426397 0
M  V30 17 Cl 0.226676 2.778067 0.271361 0
M  V30 18 C -1.966868 4.191760 -0.359458 0
M  V30 19 N -3.267657 4.531511 -0.278146 0
M  V30 20 C -4.081629 3.874341 0.567211 0
M  V30 21 C -3.636741 2.845815 1.372739 0
M  V30 22 Cl -4.619037 1.940173 2.495646 0
M  V30 23 H -0.865492 -3.586000 2.194084 0
M  V30 24 H 0.668740 -2.748310 2.547753 0
M  V30 25 H 0.255819 -4.841769 0.568465 0
M  V30 26 H 1.987180 -1.532119 0.944316 0
M  V30 27 H 3.975826 -0.882832 -0.310346 0
M  V30 28 H 4.957393 -2.386510 -1.904991 0
M  V30 29 H 1.971382 -5.260102 -1.042477 0
M  V30 30 H -1.352411 -0.995609 2.938168 0
M  V30 31 H -1.127699 1.385061 3.037114 0
M  V30 32 H -1.299767 4.725968 -1.048268 0
M  V30 33 H -5.130147 4.134132 0.645632 0
M  V30 END ATOM
M  V30 BEGIN BOND
M  V30 1 2 1 2
M  V30 2 1 2 3
M  V30 3 1 3 4
M  V30 4 1 4 5
M  V30 5 2 5 6
M  V30 6 1 6 7
M  V30 7 2 7 8
M  V30 8 1 8 9
M  V30 9 1 9 10
M  V30 10 2 9 11
M  V30 11 1 2 12
M  V30 12 1 12 13
M  V30 13 2 13 14
M  V30 14 1 14 15
M  V30 15 2 15 16
M  V30 16 1 16 17
M  V30 17 1 16 18
M  V30 18 2 18 19
M  V30 19 1 19 20
M  V30 20 2 20 21
M  V30 21 1 21 22
M  V30 22 1 11 5
M  V30 23 1 21 15
M  V30 24 1 3 23
M  V30 25 1 3 24
M  V30 26 1 4 25
M  V30 27 1 6 26
M  V30 28 1 7 27
M  V30 29 1 8 28
M  V30 30 1 11 29
M  V30 31 1 12 30
M  V30 32 1 14 31
M  V30 33 1 18 32
M  V30 34 1 20 33
M  V30 END BOND
M  V30 END CTAB
M  END
>  <Dataset>  (610) 
ChEMBL_Kinases

>  <Ligand_Instance>  (610) 
nan

>  <PDB_ID>  (610) 
nan

>  <Standardized_SMILES>  (610) 
O=C(CNc1cccc(Br)c1)N/N=C/c1c(Cl)cncc1Cl

>  <Name>  (610) 
nan

>  <Pocket>  (610) 
nan

>  <ATP_Site>  (610) 
nan

>  <Peripheral>  (610) 
nan

>  <Num_H_Atoms_ProtBoundConf>  (610) 
nan

>  <Num_Resolved_Atoms>  (610) 
nan

>  <Num_Not_Resolved_Atoms>  (610) 
nan

$$$$
CHEMBL3730295
     RDKit          3D

  0  0  0  0  0  0  0  0  0  0999 V3000
M  V30 BEGIN CTAB
M  V30 COUNTS 49 53 0 0 0
M  V30 BEGIN ATOM
M  V30 1 C 2.268607 -7.386464 1.370201 0
M  V30 2 C 3.222469 -6.541659 0.811088 0
M  V30 3 C 2.816504 -5.232162 0.616158 0
M  V30 4 C 1.545496 -4.822447 0.962940 0
M  V30 5 C 1.193948 -3.439288 0.729518 0
M  V30 6 C 1.868856 -2.404201 0.220430 0
M  V30 7 C 1.258589 -1.183092 0.121288 0
M  V30 8 N 1.740507 -0.019713 -0.352264 0
M  V30 9 C 1.016301 1.084742 -0.380531 0
M  V30 10 C 1.700912 2.272533 -0.932712 0
M  V30 11 C 1.016320 3.464601 -0.997927 0
M  V30 12 C 1.700503 4.540467 -1.520962 0
M  V30 13 N 2.971756 4.494584 -1.962260 0
M  V30 14 C 3.622232 3.323538 -1.890336 0
M  V30 15 C 2.998359 2.189801 -1.373787 0
M  V30 16 N -0.266457 1.205535 0.045469 0
M  V30 17 C -0.819691 0.085816 0.533125 0
M  V30 18 N -2.135819 -0.019337 1.029619 0
M  V30 19 C -2.334647 -0.423287 2.399236 0
M  V30 20 C -1.993034 0.792778 3.265647 0
M  V30 21 C -2.759533 1.944122 2.680429 0
M  V30 22 N -3.969377 1.511376 1.993350 0
M  V30 23 C -3.816672 1.610313 0.541135 0
M  V30 24 C -3.190350 0.307014 0.057757 0
M  V30 25 C -0.045017 -1.094125 0.562974 0
M  V30 26 S -0.441547 -2.745007 1.132527 0
M  V30 27 C 0.622960 -5.683423 1.515079 0
M  V30 28 C 0.989444 -6.999283 1.725735 0
M  V30 29 H 2.612176 -8.417354 1.515118 0
M  V30 30 H 4.205422 -6.868504 0.545486 0
M  V30 31 H 3.527906 -4.515211 0.176630 0
M  V30 32 H 2.887458 -2.596703 -0.092800 0
M  V30 33 H -0.010875 3.585032 -0.662975 0
M  V30 34 H 1.220768 5.518748 -1.603735 0
M  V30 35 H 4.644161 3.262133 -2.238720 0
M  V30 36 H 3.545057 1.256960 -1.326670 0
M  V30 37 H -1.696218 -1.228670 2.753894 0
M  V30 38 H -3.376555 -0.745834 2.565147 0
M  V30 39 H -0.894895 0.964111 3.123713 0
M  V30 40 H -2.196962 0.593929 4.329518 0
M  V30 41 H -2.977709 2.689480 3.477789 0
M  V30 42 H -2.116896 2.463881 1.918734 0
M  V30 43 H -4.745812 2.106148 2.356630 0
M  V30 44 H -3.130553 2.440155 0.252011 0
M  V30 45 H -4.814991 1.782099 0.067702 0
M  V30 46 H -2.812626 0.362021 -0.966495 0
M  V30 47 H -3.981859 -0.482253 0.197996 0
M  V30 48 H -0.379501 -5.380881 1.793928 0
M  V30 49 H 0.303784 -7.730469 2.159772 0
M  V30 END ATOM
M  V30 BEGIN BOND
M  V30 1 2 1 2
M  V30 2 1 2 3
M  V30 3 2 3 4
M  V30 4 1 4 5
M  V30 5 2 5 6
M  V30 6 1 6 7
M  V30 7 2 7 8
M  V30 8 1 8 9
M  V30 9 1 9 10
M  V30 10 2 10 11
M  V30 11 1 11 12
M  V30 12 2 12 13
M  V30 13 1 13 14
M  V30 14 2 14 15
M  V30 15 2 9 16
M  V30 16 1 16 17
M  V30 17 1 17 18
M  V30 18 1 18 19
M  V30 19 1 19 20
M  V30 20 1 20 21
M  V30 21 1 21 22
M  V30 22 1 22 23
M  V30 23 1 23 24
M  V30 24 2 17 25
M  V30 25 1 25 26
M  V30 26 1 4 27
M  V30 27 2 27 28
M  V30 28 1 28 1
M  V30 29 1 26 5
M  V30 30 1 25 7
M  V30 31 1 15 10
M  V30 32 1 24 18
M  V30 33 1 1 29
M  V30 34 1 2 30
M  V30 35 1 3 31
M  V30 36 1 6 32
M  V30 37 1 11 33
M  V30 38 1 12 34
M  V30 39 1 14 35
M  V30 40 1 15 36
M  V30 41 1 19 37
M  V30 42 1 19 38
M  V30 43 1 20 39
M  V30 44 1 20 40
M  V30 45 1 21 41
M  V30 46 1 21 42
M  V30 47 1 22 43
M  V30 48 1 23 44
M  V30 49 1 23 45
M  V30 50 1 24 46
M  V30 51 1 24 47
M  V30 52 1 27 48
M  V30 53 1 28 49
M  V30 END BOND
M  V30 END CTAB
M  END
>  <Dataset>  (611) 
ChEMBL_Kinases

>  <Ligand_Instance>  (611) 
nan

>  <PDB_ID>  (611) 
nan

>  <Standardized_SMILES>  (611) 
c1ccc(-c2cc3nc(-c4ccncc4)nc(N4CCCNCC4)c3s2)cc1

>  <Name>  (611) 
nan

>  <Pocket>  (611) 
nan

>  <ATP_Site>  (611) 
nan

>  <Peripheral>  (611) 
nan

>  <Num_H_Atoms_ProtBoundConf>  (611) 
nan

>  <Num_Resolved_Atoms>  (611) 
nan

>  <Num_Not_Resolved_Atoms>  (611) 
nan

$$$$
CHEMBL3730286
     RDKit          3D

  0  0  0  0  0  0  0  0  0  0999 V3000
M  V30 BEGIN CTAB
M  V30 COUNTS 36 37 0 0 0
M  V30 BEGIN ATOM
M  V30 1 C -0.577519 -5.123869 -1.302117 0
M  V30 2 C 0.592361 -4.425538 -0.671408 0
M  V30 3 C 1.532260 -5.125045 0.057306 0
M  V30 4 C 2.603082 -4.486226 0.634677 0
M  V30 5 C 2.726782 -3.123956 0.474412 0
M  V30 6 C 1.767084 -2.461138 -0.260635 0
M  V30 7 C 0.670513 -3.039227 -0.865180 0
M  V30 8 N -0.289344 -2.329994 -1.611758 0
M  V30 9 C -0.217364 -0.917411 -1.810573 0
M  V30 10 C -0.294501 -0.243875 -0.463238 0
M  V30 11 O -0.401286 -0.480565 0.775782 0
M  V30 12 N -0.225030 1.177608 -0.590512 0
M  V30 13 N -0.283734 1.955473 0.576487 0
M  V30 14 C -0.521406 3.200668 0.632950 0
M  V30 15 C -0.458320 3.467606 2.082794 0
M  V30 16 C 0.767652 3.815203 2.613113 0
M  V30 17 Cl 2.196838 3.942662 1.645058 0
M  V30 18 C 0.729615 4.047596 3.985261 0
M  V30 19 N -0.394961 3.942176 4.717532 0
M  V30 20 C -1.551600 3.599496 4.133106 0
M  V30 21 C -1.648016 3.341029 2.771606 0
M  V30 22 Cl -3.137755 2.895772 1.996550 0
M  V30 23 H -0.485644 -5.020610 -2.396202 0
M  V30 24 H -1.547440 -4.628310 -1.028228 0
M  V30 25 H -0.585915 -6.159415 -0.932520 0
M  V30 26 H 1.401407 -6.188037 0.160212 0
M  V30 27 H 3.294640 -5.088448 1.186315 0
M  V30 28 H 3.559185 -2.636491 0.924801 0
M  V30 29 H 1.923163 -1.395272 -0.350178 0
M  V30 30 H -1.074601 -2.878062 -2.026455 0
M  V30 31 H -1.029453 -0.518724 -2.448000 0
M  V30 32 H 0.753275 -0.589383 -2.253914 0
M  V30 33 H -0.131517 1.769902 -1.469492 0
M  V30 34 H -0.697683 3.723727 -0.307350 0
M  V30 35 H 1.679753 4.328436 4.461791 0
M  V30 36 H -2.430859 3.525369 4.752993 0
M  V30 END ATOM
M  V30 BEGIN BOND
M  V30 1 1 1 2
M  V30 2 2 2 3
M  V30 3 1 3 4
M  V30 4 2 4 5
M  V30 5 1 5 6
M  V30 6 2 6 7
M  V30 7 1 7 8
M  V30 8 1 8 9
M  V30 9 1 9 10
M  V30 10 2 10 11
M  V30 11 1 10 12
M  V30 12 1 12 13
M  V30 13 2 13 14
M  V30 14 1 14 15
M  V30 15 2 15 16
M  V30 16 1 16 17
M  V30 17 1 16 18
M  V30 18 2 18 19
M  V30 19 1 19 20
M  V30 20 2 20 21
M  V30 21 1 21 22
M  V30 22 1 7 2
M  V30 23 1 21 15
M  V30 24 1 1 23
M  V30 25 1 1 24
M  V30 26 1 1 25
M  V30 27 1 3 26
M  V30 28 1 4 27
M  V30 29 1 5 28
M  V30 30 1 6 29
M  V30 31 1 8 30
M  V30 32 1 9 31
M  V30 33 1 9 32
M  V30 34 1 12 33
M  V30 35 1 14 34
M  V30 36 1 18 35
M  V30 37 1 20 36
M  V30 END BOND
M  V30 END CTAB
M  END
>  <Dataset>  (612) 
ChEMBL_Kinases

>  <Ligand_Instance>  (612) 
nan

>  <PDB_ID>  (612) 
nan

>  <Standardized_SMILES>  (612) 
Cc1ccccc1NCC(=O)N/N=C/c1c(Cl)cncc1Cl

>  <Name>  (612) 
nan

>  <Pocket>  (612) 
nan

>  <ATP_Site>  (612) 
nan

>  <Peripheral>  (612) 
nan

>  <Num_H_Atoms_ProtBoundConf>  (612) 
nan

>  <Num_Resolved_Atoms>  (612) 
nan

>  <Num_Not_Resolved_Atoms>  (612) 
nan

$$$$
CHEMBL3700982
     RDKit          3D

  0  0  0  0  0  0  0  0  0  0999 V3000
M  V30 BEGIN CTAB
M  V30 COUNTS 77 82 0 0 0
M  V30 BEGIN ATOM
M  V30 1 C -1.878683 3.934594 5.791712 0
M  V30 2 O -0.679034 4.119326 5.081819 0
M  V30 3 C -0.593427 4.401197 3.742594 0
M  V30 4 C -1.768752 4.510666 3.003488 0
M  V30 5 C -1.687734 4.791865 1.656423 0
M  V30 6 C -0.423041 4.956761 1.075958 0
M  V30 7 C -0.530446 5.175101 -0.381145 0
M  V30 8 O -0.409307 6.306338 -0.948161 0
M  V30 9 N -0.794685 3.876427 -1.000979 0
M  V30 10 C -0.931108 2.554371 -0.330069 0
M  V30 11 C -2.295667 2.054109 -0.776477 0
M  V30 12 C -2.353575 2.562885 -2.215661 0
M  V30 13 C -1.035426 3.276102 -2.332469 0 CFG=2
M  V30 14 C 0.085639 2.493461 -2.822565 0
M  V30 15 C 1.300195 3.005351 -3.208102 0
M  V30 16 C 2.339886 2.233960 -3.632759 0
M  V30 17 C 2.248897 0.869076 -3.705905 0
M  V30 18 C 1.050037 0.232685 -3.333378 0
M  V30 19 C 0.710011 -1.177536 -3.305730 0
M  V30 20 O 0.876813 -1.426089 -2.062044 0
M  V30 21 N 0.301409 -2.180556 -4.186213 0
M  V30 22 C 0.152514 -3.394818 -3.364118 0
M  V30 23 N 0.888222 -4.237643 -3.090991 0
M  V30 24 C 0.640568 -5.291839 -2.331776 0
M  V30 25 C -0.686174 -5.378079 -1.800814 0
M  V30 26 S -1.441315 -3.915973 -2.461052 0
M  V30 27 C -0.873739 -6.645803 -0.919124 0
M  V30 28 C 0.140245 -6.508597 0.175669 0 CFG=1
M  V30 29 N -0.047941 -7.323832 1.317918 0
M  V30 30 C -1.275770 -7.149723 2.006032 0
M  V30 31 C -1.400261 -5.798365 2.662745 0
M  V30 32 O -0.396674 -5.698131 3.627430 0
M  V30 33 C 0.812481 -5.709197 2.948565 0
M  V30 34 C 1.023517 -7.057227 2.276159 0
M  V30 35 C 1.505384 -6.615833 -0.419198 0
M  V30 36 C 1.500175 -6.436876 -1.913194 0
M  V30 37 C 0.044799 1.103553 -2.915181 0
M  V30 38 C 0.753752 4.858094 1.773944 0
M  V30 39 C 0.627899 4.575704 3.115528 0
M  V30 40 O 1.715376 4.448677 3.919480 0
M  V30 41 C 3.067174 4.620856 3.534214 0
M  V30 42 H -2.446634 3.067941 5.364620 0
M  V30 43 H -2.555763 4.816198 5.708622 0
M  V30 44 H -1.681954 3.707497 6.845384 0
M  V30 45 H -2.711366 4.367279 3.527447 0
M  V30 46 H -2.629409 4.865796 1.137214 0
M  V30 47 H -0.098737 1.932649 -0.643298 0
M  V30 48 H -0.858326 2.687463 0.764038 0
M  V30 49 H -3.046540 2.558815 -0.139880 0
M  V30 50 H -2.315557 0.973418 -0.684040 0
M  V30 51 H -2.565838 1.810327 -2.956358 0
M  V30 52 H -3.159186 3.322117 -2.243786 0
M  V30 53 H -1.165207 4.155573 -3.000117 0
M  V30 54 H 1.445972 4.084902 -3.174834 0
M  V30 55 H 3.308292 2.640813 -3.944120 0
M  V30 56 H 2.991243 0.142000 -4.020821 0
M  V30 57 H 0.209242 -1.836886 -5.125412 0
M  V30 58 H -1.920080 -6.534142 -0.566708 0
M  V30 59 H -0.727349 -7.471226 -1.607392 0
M  V30 60 H 0.052849 -5.433032 0.511356 0
M  V30 61 H -2.177045 -7.416018 1.412135 0
M  V30 62 H -1.284683 -7.884213 2.856250 0
M  V30 63 H -2.402488 -5.690504 3.135769 0
M  V30 64 H -1.266559 -4.947014 1.965262 0
M  V30 65 H 1.629344 -5.605264 3.701229 0
M  V30 66 H 0.932084 -4.873088 2.250582 0
M  V30 67 H 1.117323 -7.842878 3.046086 0
M  V30 68 H 2.003317 -7.004080 1.765623 0
M  V30 69 H 1.882589 -7.645371 -0.204685 0
M  V30 70 H 2.250510 -5.933395 0.050920 0
M  V30 71 H 1.112889 -7.334595 -2.433176 0
M  V30 72 H 2.551755 -6.326467 -2.298896 0
M  V30 73 H -0.926948 0.676102 -2.608542 0
M  V30 74 H 1.683504 5.000494 1.256972 0
M  V30 75 H 3.179936 5.426645 2.763762 0
M  V30 76 H 3.458607 3.695021 3.049026 0
M  V30 77 H 3.709714 4.919089 4.392867 0
M  V30 END ATOM
M  V30 BEGIN BOND
M  V30 1 1 1 2
M  V30 2 1 2 3
M  V30 3 2 3 4
M  V30 4 1 4 5
M  V30 5 2 5 6
M  V30 6 1 6 7
M  V30 7 2 7 8
M  V30 8 1 7 9
M  V30 9 1 9 10
M  V30 10 1 10 11
M  V30 11 1 11 12
M  V30 12 1 12 13
M  V30 13 1 13 14
M  V30 14 2 14 15
M  V30 15 1 15 16
M  V30 16 2 16 17
M  V30 17 1 17 18
M  V30 18 1 18 19
M  V30 19 2 19 20
M  V30 20 1 19 21
M  V30 21 1 21 22
M  V30 22 2 22 23
M  V30 23 1 23 24
M  V30 24 2 24 25
M  V30 25 1 25 26
M  V30 26 1 25 27
M  V30 27 1 27 28
M  V30 28 1 28 29
M  V30 29 1 29 30
M  V30 30 1 30 31
M  V30 31 1 31 32
M  V30 32 1 32 33
M  V30 33 1 33 34
M  V30 34 1 28 35
M  V30 35 1 35 36
M  V30 36 2 18 37
M  V30 37 1 6 38
M  V30 38 2 38 39
M  V30 39 1 39 40
M  V30 40 1 40 41
M  V30 41 1 39 3
M  V30 42 1 13 9
M  V30 43 1 37 14
M  V30 44 1 26 22
M  V30 45 1 34 29
M  V30 46 1 36 24
M  V30 47 1 1 42
M  V30 48 1 1 43
M  V30 49 1 1 44
M  V30 50 1 4 45
M  V30 51 1 5 46
M  V30 52 1 10 47
M  V30 53 1 10 48
M  V30 54 1 11 49
M  V30 55 1 11 50
M  V30 56 1 12 51
M  V30 57 1 12 52
M  V30 58 1 13 53 CFG=3
M  V30 59 1 15 54
M  V30 60 1 16 55
M  V30 61 1 17 56
M  V30 62 1 21 57
M  V30 63 1 27 58
M  V30 64 1 27 59
M  V30 65 1 28 60 CFG=1
M  V30 66 1 30 61
M  V30 67 1 30 62
M  V30 68 1 31 63
M  V30 69 1 31 64
M  V30 70 1 33 65
M  V30 71 1 33 66
M  V30 72 1 34 67
M  V30 73 1 34 68
M  V30 74 1 35 69
M  V30 75 1 35 70
M  V30 76 1 36 71
M  V30 77 1 36 72
M  V30 78 1 37 73
M  V30 79 1 38 74
M  V30 80 1 41 75
M  V30 81 1 41 76
M  V30 82 1 41 77
M  V30 END BOND
M  V30 END CTAB
M  END
>  <Dataset>  (613) 
ChEMBL_Kinases

>  <Ligand_Instance>  (613) 
nan

>  <PDB_ID>  (613) 
nan

>  <Standardized_SMILES>  (613) 
COc1ccc(C(=O)N2CCC[C@@H]2c2cccc(C(=O)Nc3nc4c(s3)C[C@@H](N3CCOCC3)CC4)c2)cc1OC

>  <Name>  (613) 
nan

>  <Pocket>  (613) 
nan

>  <ATP_Site>  (613) 
nan

>  <Peripheral>  (613) 
nan

>  <Num_H_Atoms_ProtBoundConf>  (613) 
nan

>  <Num_Resolved_Atoms>  (613) 
nan

>  <Num_Not_Resolved_Atoms>  (613) 
nan

$$$$
CHEMBL523902
     RDKit          3D

  0  0  0  0  0  0  0  0  0  0999 V3000
M  V30 BEGIN CTAB
M  V30 COUNTS 35 38 0 0 0
M  V30 BEGIN ATOM
M  V30 1 N -0.831947 -5.934163 3.455286 0
M  V30 2 C -0.045535 -5.421603 2.381387 0
M  V30 3 N 0.806513 -6.111025 1.596834 0
M  V30 4 C 1.478299 -5.474037 0.618827 0
M  V30 5 C 1.271122 -4.115445 0.446991 0
M  V30 6 C 0.406052 -3.387280 1.234948 0
M  V30 7 C 0.192788 -1.956259 1.048163 0
M  V30 8 C -0.671963 -1.218551 1.832837 0
M  V30 9 C -0.629845 0.081304 1.387913 0
M  V30 10 C 0.272075 0.111756 0.325980 0
M  V30 11 N 0.766903 -1.140843 0.129824 0
M  V30 12 C 0.595340 1.350203 -0.428398 0
M  V30 13 C 0.279818 2.592998 0.373256 0
M  V30 14 C 0.245331 3.795243 -0.548419 0
M  V30 15 C -0.775419 3.774653 -1.686858 0
M  V30 16 C 0.712116 3.653546 -1.953392 0
M  V30 17 N -0.987495 2.534068 1.058494 0
M  V30 18 C -1.296933 1.336123 1.784410 0
M  V30 19 O -2.102523 1.242575 2.753120 0
M  V30 20 N -0.216603 -4.113595 2.182808 0
M  V30 21 H -0.520799 -6.074988 4.457971 0
M  V30 22 H -0.234705 -5.950911 4.326514 0
M  V30 23 H 2.152138 -6.067916 0.013181 0
M  V30 24 H 1.829840 -3.626052 -0.354110 0
M  V30 25 H -1.294414 -1.549168 2.659988 0
M  V30 26 H 1.456057 -1.454038 -0.579151 0
M  V30 27 H 1.651979 1.341238 -0.685764 0
M  V30 28 H -0.002190 1.303431 -1.360837 0
M  V30 29 H 1.113205 2.709504 1.085506 0
M  V30 30 H 0.399827 4.810149 -0.091977 0
M  V30 31 H -1.382217 2.847718 -1.787828 0
M  V30 32 H -1.278538 4.730279 -1.941558 0
M  V30 33 H 1.102937 2.702973 -2.351137 0
M  V30 34 H 1.166646 4.542853 -2.456692 0
M  V30 35 H -1.733697 3.263805 1.101172 0
M  V30 END ATOM
M  V30 BEGIN BOND
M  V30 1 1 1 2
M  V30 2 2 2 3
M  V30 3 1 3 4
M  V30 4 2 4 5
M  V30 5 1 5 6
M  V30 6 1 6 7
M  V30 7 2 7 8
M  V30 8 1 8 9
M  V30 9 2 9 10
M  V30 10 1 10 11
M  V30 11 1 10 12
M  V30 12 1 12 13
M  V30 13 1 13 14
M  V30 14 1 14 15
M  V30 15 1 15 16
M  V30 16 1 13 17
M  V30 17 1 17 18
M  V30 18 2 18 19
M  V30 19 2 6 20
M  V30 20 1 20 2
M  V30 21 1 11 7
M  V30 22 1 16 14
M  V30 23 1 18 9
M  V30 24 1 1 21
M  V30 25 1 1 22
M  V30 26 1 4 23
M  V30 27 1 5 24
M  V30 28 1 8 25
M  V30 29 1 11 26
M  V30 30 1 12 27
M  V30 31 1 12 28
M  V30 32 1 13 29
M  V30 33 1 14 30
M  V30 34 1 15 31
M  V30 35 1 15 32
M  V30 36 1 16 33
M  V30 37 1 16 34
M  V30 38 1 17 35
M  V30 END BOND
M  V30 END CTAB
M  END
>  <Dataset>  (614) 
ChEMBL_Kinases

>  <Ligand_Instance>  (614) 
nan

>  <PDB_ID>  (614) 
nan

>  <Standardized_SMILES>  (614) 
Nc1nccc(-c2cc3c([nH]2)CC(C2CC2)NC3=O)n1

>  <Name>  (614) 
nan

>  <Pocket>  (614) 
nan

>  <ATP_Site>  (614) 
nan

>  <Peripheral>  (614) 
nan

>  <Num_H_Atoms_ProtBoundConf>  (614) 
nan

>  <Num_Resolved_Atoms>  (614) 
nan

>  <Num_Not_Resolved_Atoms>  (614) 
nan

$$$$
CHEMBL3704388
     RDKit          3D

  0  0  0  0  0  0  0  0  0  0999 V3000
M  V30 BEGIN CTAB
M  V30 COUNTS 62 65 0 0 0
M  V30 BEGIN ATOM
M  V30 1 N 6.690766 0.853675 9.020303 0
M  V30 2 C 6.256853 1.196196 7.991059 0
M  V30 3 C 5.704768 1.607140 6.729396 0
M  V30 4 C 6.112266 2.808865 6.180200 0
M  V30 5 C 5.594217 3.223806 4.967507 0
M  V30 6 C 4.689288 2.415569 4.357073 0
M  V30 7 N 4.046381 2.663672 3.114333 0
M  V30 8 C 2.799755 3.355902 2.910911 0
M  V30 9 O 2.153138 3.815499 3.855277 0
M  V30 10 O 2.480475 3.410464 1.576720 0
M  V30 11 C 1.316952 4.025624 1.076158 0
M  V30 12 C 0.089441 3.403457 1.610078 0
M  V30 13 C -0.649093 3.806012 2.701218 0
M  V30 14 C -1.778956 3.131283 3.113827 0
M  V30 15 C -2.234489 2.011323 2.453837 0
M  V30 16 C -1.554363 1.553899 1.363873 0
M  V30 17 C -1.949278 0.379786 0.592458 0
M  V30 18 O -1.305509 -0.033052 -0.407154 0
M  V30 19 N -3.086534 -0.351328 0.941593 0
M  V30 20 C -3.364072 -1.547149 0.040369 0
M  V30 21 N -2.918640 -2.586386 0.289832 0
M  V30 22 C -3.044574 -3.725421 -0.360967 0
M  V30 23 C -3.834186 -3.656947 -1.521423 0
M  V30 24 S -4.321302 -1.828404 -1.514074 0
M  V30 25 C -3.989163 -4.956092 -2.289976 0
M  V30 26 C -2.606698 -5.516300 -2.579740 0 CFG=1
M  V30 27 N -1.889412 -4.707624 -3.511298 0
M  V30 28 C -2.485384 -4.541943 -4.797335 0
M  V30 29 C -1.545210 -3.648089 -5.618280 0
M  V30 30 C -2.195836 -3.477589 -6.996089 0
M  V30 31 F -3.435416 -2.886533 -6.862189 0
M  V30 32 F -1.430815 -2.685198 -7.806918 0
M  V30 33 F -2.376407 -4.700541 -7.597320 0
M  V30 34 C -1.813718 -5.662683 -1.322160 0
M  V30 35 C -2.504246 -5.098232 -0.108147 0
M  V30 36 C -0.420035 2.277358 0.994906 0
M  V30 37 C 4.278816 1.213399 4.902089 0
M  V30 38 C 4.792271 0.777320 6.128493 0
M  V30 39 H 6.835740 3.437525 6.685350 0
M  V30 40 H 5.855269 4.136181 4.475604 0
M  V30 41 H 4.656104 2.245099 2.377478 0
M  V30 42 H 1.317401 3.823608 -0.016020 0
M  V30 43 H 1.330155 5.129615 1.230497 0
M  V30 44 H -0.320294 4.685425 3.230611 0
M  V30 45 H -2.326518 3.502098 3.994051 0
M  V30 46 H -3.107670 1.508018 2.790526 0
M  V30 47 H -3.700239 -0.129135 1.727817 0
M  V30 48 H -4.537536 -5.604889 -1.611690 0
M  V30 49 H -4.494557 -4.783754 -3.239001 0
M  V30 50 H -2.782870 -6.497626 -3.040242 0
M  V30 51 H -1.452057 -3.859542 -3.117121 0
M  V30 52 H -2.576570 -5.512170 -5.288543 0
M  V30 53 H -3.452823 -3.981669 -4.797199 0
M  V30 54 H -0.543352 -4.064295 -5.710184 0
M  V30 55 H -1.477493 -2.642642 -5.156239 0
M  V30 56 H -0.823192 -5.191678 -1.456906 0
M  V30 57 H -1.604968 -6.737563 -1.135952 0
M  V30 58 H -1.745034 -5.083085 0.706470 0
M  V30 59 H -3.311758 -5.780963 0.225900 0
M  V30 60 H 0.118810 1.895745 0.112575 0
M  V30 61 H 3.553409 0.512756 4.464593 0
M  V30 62 H 4.516812 -0.150038 6.612893 0
M  V30 END ATOM
M  V30 BEGIN BOND
M  V30 1 3 1 2
M  V30 2 1 2 3
M  V30 3 2 3 4
M  V30 4 1 4 5
M  V30 5 2 5 6
M  V30 6 1 6 7
M  V30 7 1 7 8
M  V30 8 2 8 9
M  V30 9 1 8 10
M  V30 10 1 10 11
M  V30 11 1 11 12
M  V30 12 2 12 13
M  V30 13 1 13 14
M  V30 14 2 14 15
M  V30 15 1 15 16
M  V30 16 1 16 17
M  V30 17 2 17 18
M  V30 18 1 17 19
M  V30 19 1 19 20
M  V30 20 2 20 21
M  V30 21 1 21 22
M  V30 22 2 22 23
M  V30 23 1 23 24
M  V30 24 1 23 25
M  V30 25 1 25 26
M  V30 26 1 26 27
M  V30 27 1 27 28
M  V30 28 1 28 29
M  V30 29 1 29 30
M  V30 30 1 30 31
M  V30 31 1 30 32
M  V30 32 1 30 33
M  V30 33 1 26 34
M  V30 34 1 34 35
M  V30 35 2 16 36
M  V30 36 1 6 37
M  V30 37 2 37 38
M  V30 38 1 38 3
M  V30 39 1 36 12
M  V30 40 1 24 20
M  V30 41 1 35 22
M  V30 42 1 4 39
M  V30 43 1 5 40
M  V30 44 1 7 41
M  V30 45 1 11 42
M  V30 46 1 11 43
M  V30 47 1 13 44
M  V30 48 1 14 45
M  V30 49 1 15 46
M  V30 50 1 19 47
M  V30 51 1 25 48
M  V30 52 1 25 49
M  V30 53 1 26 50 CFG=3
M  V30 54 1 27 51
M  V30 55 1 28 52
M  V30 56 1 28 53
M  V30 57 1 29 54
M  V30 58 1 29 55
M  V30 59 1 34 56
M  V30 60 1 34 57
M  V30 61 1 35 58
M  V30 62 1 35 59
M  V30 63 1 36 60
M  V30 64 1 37 61
M  V30 65 1 38 62
M  V30 END BOND
M  V30 END CTAB
M  END
>  <Dataset>  (615) 
ChEMBL_Kinases

>  <Ligand_Instance>  (615) 
nan

>  <PDB_ID>  (615) 
nan

>  <Standardized_SMILES>  (615) 
N#Cc1ccc(NC(=O)OCc2cccc(C(=O)Nc3nc4c(s3)C[C@@H](NCCC(F)(F)F)CC4)c2)cc1

>  <Name>  (615) 
nan

>  <Pocket>  (615) 
nan

>  <ATP_Site>  (615) 
nan

>  <Peripheral>  (615) 
nan

>  <Num_H_Atoms_ProtBoundConf>  (615) 
nan

>  <Num_Resolved_Atoms>  (615) 
nan

>  <Num_Not_Resolved_Atoms>  (615) 
nan

$$$$
CHEMBL3730235
     RDKit          3D

  0  0  0  0  0  0  0  0  0  0999 V3000
M  V30 BEGIN CTAB
M  V30 COUNTS 59 63 0 0 0
M  V30 BEGIN ATOM
M  V30 1 N 3.390170 -0.824068 3.832198 0
M  V30 2 C 2.751625 -1.669764 2.837855 0 CFG=2
M  V30 3 C 2.213366 -2.865520 3.586400 0
M  V30 4 N 1.548403 -3.804107 2.732898 0
M  V30 5 C 0.392568 -3.429238 2.013930 0
M  V30 6 N -0.176010 -2.218701 2.059861 0
M  V30 7 C -1.287330 -2.057102 1.297117 0
M  V30 8 C -1.996931 -0.755147 1.274091 0
M  V30 9 C -1.471975 0.250680 2.054614 0
M  V30 10 C -2.084799 1.487106 2.078178 0
M  V30 11 N -3.201251 1.726058 1.340315 0
M  V30 12 C -3.730338 0.736392 0.562995 0
M  V30 13 N -4.911666 0.937769 -0.238494 0
M  V30 14 C -4.575246 1.398389 -1.528304 0
M  V30 15 O -3.382346 1.591119 -1.879439 0
M  V30 16 C -5.620436 1.671645 -2.516595 0
M  V30 17 C -6.940909 1.579155 -2.482846 0
M  V30 18 C -7.705375 1.904767 -3.574776 0
M  V30 19 C -6.968558 2.336173 -4.707092 0
M  V30 20 S -5.209757 2.245675 -4.125604 0
M  V30 21 C -3.129435 -0.507320 0.527745 0
M  V30 22 N -1.838069 -3.001914 0.522772 0
M  V30 23 C -1.315787 -4.235220 0.433645 0
M  V30 24 C -1.769729 -5.280134 -0.307693 0
M  V30 25 C -1.075120 -6.487067 -0.258780 0
M  V30 26 S 0.355541 -6.130073 0.941737 0
M  V30 27 C -0.167964 -4.359856 1.237788 0
M  V30 28 C 3.759398 -2.097234 1.789043 0
M  V30 29 C 4.327111 -0.929406 1.109766 0
M  V30 30 C 3.690176 -0.449092 -0.038965 0
M  V30 31 C 4.092463 0.633700 -0.793155 0
M  V30 32 C 5.220976 1.309090 -0.387391 0
M  V30 33 C 5.687798 2.473954 -1.165245 0
M  V30 34 F 4.703676 2.948050 -2.011173 0
M  V30 35 F 6.855143 2.188125 -1.883606 0
M  V30 36 F 6.010179 3.523797 -0.327865 0
M  V30 37 C 5.886502 0.883046 0.731918 0
M  V30 38 C 5.461067 -0.211061 1.475141 0
M  V30 39 H 2.720191 -0.625936 4.596890 0
M  V30 40 H 4.207807 -1.376225 4.213391 0
M  V30 41 H 1.920764 -1.178303 2.332454 0
M  V30 42 H 3.002601 -3.303945 4.224232 0
M  V30 43 H 1.423361 -2.448282 4.280377 0
M  V30 44 H 1.976167 -4.735939 2.696548 0
M  V30 45 H -0.567289 0.070978 2.657918 0
M  V30 46 H -1.660683 2.265659 2.695676 0
M  V30 47 H -5.922859 0.785743 0.026110 0
M  V30 48 H -7.382062 1.235973 -1.555863 0
M  V30 49 H -8.785525 1.850760 -3.610687 0
M  V30 50 H -7.474230 2.634749 -5.673590 0
M  V30 51 H -3.497457 -1.341082 -0.069215 0
M  V30 52 H -2.634773 -5.266906 -0.944956 0
M  V30 53 H -1.262550 -7.421675 -0.759546 0
M  V30 54 H 3.219196 -2.711946 1.040341 0
M  V30 55 H 4.550595 -2.725506 2.254443 0
M  V30 56 H 2.788525 -0.975282 -0.377398 0
M  V30 57 H 3.518911 0.914527 -1.665624 0
M  V30 58 H 6.775133 1.396735 1.070713 0
M  V30 59 H 5.965914 -0.571702 2.364349 0
M  V30 END ATOM
M  V30 BEGIN BOND
M  V30 1 1 1 2
M  V30 2 1 2 3
M  V30 3 1 3 4
M  V30 4 1 4 5
M  V30 5 2 5 6
M  V30 6 1 6 7
M  V30 7 1 7 8
M  V30 8 2 8 9
M  V30 9 1 9 10
M  V30 10 2 10 11
M  V30 11 1 11 12
M  V30 12 1 12 13
M  V30 13 1 13 14
M  V30 14 2 14 15
M  V30 15 1 14 16
M  V30 16 2 16 17
M  V30 17 1 17 18
M  V30 18 2 18 19
M  V30 19 1 19 20
M  V30 20 2 12 21
M  V30 21 2 7 22
M  V30 22 1 22 23
M  V30 23 1 23 24
M  V30 24 2 24 25
M  V30 25 1 25 26
M  V30 26 1 26 27
M  V30 27 1 2 28
M  V30 28 1 28 29
M  V30 29 2 29 30
M  V30 30 1 30 31
M  V30 31 2 31 32
M  V30 32 1 32 33
M  V30 33 1 33 34
M  V30 34 1 33 35
M  V30 35 1 33 36
M  V30 36 1 32 37
M  V30 37 2 37 38
M  V30 38 1 27 5
M  V30 39 1 38 29
M  V30 40 1 21 8
M  V30 41 2 27 23
M  V30 42 1 20 16
M  V30 43 1 1 39
M  V30 44 1 1 40
M  V30 45 1 2 41 CFG=3
M  V30 46 1 3 42
M  V30 47 1 3 43
M  V30 48 1 4 44
M  V30 49 1 9 45
M  V30 50 1 10 46
M  V30 51 1 13 47
M  V30 52 1 17 48
M  V30 53 1 18 49
M  V30 54 1 19 50
M  V30 55 1 21 51
M  V30 56 1 24 52
M  V30 57 1 25 53
M  V30 58 1 28 54
M  V30 59 1 28 55
M  V30 60 1 30 56
M  V30 61 1 31 57
M  V30 62 1 37 58
M  V30 63 1 38 59
M  V30 END BOND
M  V30 END CTAB
M  END
>  <Dataset>  (616) 
ChEMBL_Kinases

>  <Ligand_Instance>  (616) 
nan

>  <PDB_ID>  (616) 
nan

>  <Standardized_SMILES>  (616) 
N[C@H](CNc1nc(-c2ccnc(NC(=O)c3cccs3)c2)nc2ccsc12)Cc1ccc(C(F)(F)F)cc1

>  <Name>  (616) 
nan

>  <Pocket>  (616) 
nan

>  <ATP_Site>  (616) 
nan

>  <Peripheral>  (616) 
nan

>  <Num_H_Atoms_ProtBoundConf>  (616) 
nan

>  <Num_Resolved_Atoms>  (616) 
nan

>  <Num_Not_Resolved_Atoms>  (616) 
nan

$$$$
CHEMBL3730226
     RDKit          3D

  0  0  0  0  0  0  0  0  0  0999 V3000
M  V30 BEGIN CTAB
M  V30 COUNTS 44 48 0 0 0
M  V30 BEGIN ATOM
M  V30 1 C 2.504734 -5.363916 2.441441 0
M  V30 2 C 3.637078 -4.882526 3.062835 0
M  V30 3 N 3.700398 -3.539971 3.040864 0
M  V30 4 C 2.771845 -2.805894 2.482638 0
M  V30 5 S 2.715899 -1.060779 2.375677 0
M  V30 6 C 1.109694 -0.975736 1.461115 0
M  V30 7 C 0.383097 0.107621 1.003184 0
M  V30 8 N 0.861384 1.426566 1.215423 0
M  V30 9 C -0.079286 2.396914 0.670051 0
M  V30 10 C 0.516583 2.935187 -0.614561 0
M  V30 11 C 1.506559 4.040372 -0.233928 0
M  V30 12 N 2.643035 3.506330 0.454588 0
M  V30 13 C 2.389241 3.173838 1.821795 0
M  V30 14 C 2.101607 1.667372 1.878065 0
M  V30 15 N -0.768676 -0.157152 0.362417 0
M  V30 16 C -1.108710 -1.445628 0.225166 0
M  V30 17 C -2.363404 -1.786127 -0.470662 0
M  V30 18 C -2.801278 -3.077664 -0.663142 0
M  V30 19 C -3.992826 -3.276424 -1.329296 0
M  V30 20 N -4.751247 -2.270282 -1.801939 0
M  V30 21 C -4.293266 -1.003893 -1.596993 0
M  V30 22 C -3.100131 -0.717427 -0.933706 0
M  V30 23 N -0.400632 -2.477979 0.670383 0
M  V30 24 C 0.764202 -2.350288 1.324481 0
M  V30 25 C 1.629544 -3.240335 1.853571 0
M  V30 26 C 1.515377 -4.615018 1.848093 0
M  V30 27 H 2.384079 -6.462657 2.420386 0
M  V30 28 H 4.340234 -5.580066 3.491669 0
M  V30 29 H -0.245050 3.236161 1.360578 0
M  V30 30 H -1.085040 1.962390 0.485878 0
M  V30 31 H -0.230528 3.413638 -1.272847 0
M  V30 32 H 1.103171 2.134257 -1.097195 0
M  V30 33 H 1.804762 4.564166 -1.153396 0
M  V30 34 H 0.928553 4.722798 0.419894 0
M  V30 35 H 3.054595 2.705825 -0.069835 0
M  V30 36 H 3.236051 3.422220 2.498612 0
M  V30 37 H 1.519384 3.726304 2.227307 0
M  V30 38 H 2.144050 1.331401 2.914354 0
M  V30 39 H 2.897031 1.178805 1.250821 0
M  V30 40 H -2.196549 -3.892375 -0.285747 0
M  V30 41 H -4.301866 -4.311062 -1.459857 0
M  V30 42 H -4.902000 -0.190605 -1.976605 0
M  V30 43 H -2.814722 0.309820 -0.816206 0
M  V30 44 H 0.670910 -5.148998 1.392218 0
M  V30 END ATOM
M  V30 BEGIN BOND
M  V30 1 2 1 2
M  V30 2 1 2 3
M  V30 3 2 3 4
M  V30 4 1 4 5
M  V30 5 1 5 6
M  V30 6 2 6 7
M  V30 7 1 7 8
M  V30 8 1 8 9
M  V30 9 1 9 10
M  V30 10 1 10 11
M  V30 11 1 11 12
M  V30 12 1 12 13
M  V30 13 1 13 14
M  V30 14 1 7 15
M  V30 15 2 15 16
M  V30 16 1 16 17
M  V30 17 2 17 18
M  V30 18 1 18 19
M  V30 19 2 19 20
M  V30 20 1 20 21
M  V30 21 2 21 22
M  V30 22 1 16 23
M  V30 23 2 23 24
M  V30 24 1 24 25
M  V30 25 2 25 26
M  V30 26 1 26 1
M  V30 27 1 25 4
M  V30 28 1 24 6
M  V30 29 1 14 8
M  V30 30 1 22 17
M  V30 31 1 1 27
M  V30 32 1 2 28
M  V30 33 1 9 29
M  V30 34 1 9 30
M  V30 35 1 10 31
M  V30 36 1 10 32
M  V30 37 1 11 33
M  V30 38 1 11 34
M  V30 39 1 12 35
M  V30 40 1 13 36
M  V30 41 1 13 37
M  V30 42 1 14 38
M  V30 43 1 14 39
M  V30 44 1 18 40
M  V30 45 1 19 41
M  V30 46 1 21 42
M  V30 47 1 22 43
M  V30 48 1 26 44
M  V30 END BOND
M  V30 END CTAB
M  END
>  <Dataset>  (617) 
ChEMBL_Kinases

>  <Ligand_Instance>  (617) 
nan

>  <PDB_ID>  (617) 
nan

>  <Standardized_SMILES>  (617) 
c1cnc2sc3c(N4CCCNCC4)nc(-c4ccncc4)nc3c2c1

>  <Name>  (617) 
nan

>  <Pocket>  (617) 
nan

>  <ATP_Site>  (617) 
nan

>  <Peripheral>  (617) 
nan

>  <Num_H_Atoms_ProtBoundConf>  (617) 
nan

>  <Num_Resolved_Atoms>  (617) 
nan

>  <Num_Not_Resolved_Atoms>  (617) 
nan

$$$$
CHEMBL3730216
     RDKit          3D

  0  0  0  0  0  0  0  0  0  0999 V3000
M  V30 BEGIN CTAB
M  V30 COUNTS 49 53 0 0 0
M  V30 BEGIN ATOM
M  V30 1 C 1.764643 -2.869436 -1.359873 0
M  V30 2 C 1.263044 -1.647260 -0.669746 0
M  V30 3 C 1.933707 -0.466967 -0.749159 0
M  V30 4 C 3.139579 0.070480 -1.352743 0
M  V30 5 C 3.328028 1.439428 -1.591342 0
M  V30 6 C 4.569393 1.700300 -2.127349 0
M  V30 7 N 5.145423 0.504171 -2.218783 0
M  V30 8 N 4.315644 -0.408369 -1.771614 0
M  V30 9 C 4.752180 -1.781877 -1.719180 0
M  V30 10 S 0.934510 0.741541 0.146629 0
M  V30 11 C -0.391063 -0.517737 0.590291 0
M  V30 12 C -1.541505 -0.275161 1.317962 0
M  V30 13 N -1.853371 0.977738 1.848085 0
M  V30 14 C -1.211171 2.245349 1.885337 0 CFG=2
M  V30 15 C 0.043765 2.302089 2.725541 0
M  V30 16 C -0.379104 3.041177 3.985340 0
M  V30 17 N -1.797848 3.212746 3.884102 0
M  V30 18 C -2.041839 3.362993 2.472205 0
M  V30 19 N -2.334452 -1.340250 1.493185 0
M  V30 20 C -1.911890 -2.487563 0.946365 0
M  V30 21 C -2.727692 -3.720002 1.091263 0
M  V30 22 C -3.897527 -3.644233 1.786301 0
M  V30 23 C -4.716747 -4.735525 1.970610 0
M  V30 24 N -4.343373 -5.917122 1.442880 0
M  V30 25 C -3.196652 -6.025091 0.752675 0
M  V30 26 C -2.372986 -4.943063 0.563371 0
M  V30 27 N -0.796345 -2.628431 0.266098 0
M  V30 28 C 0.087478 -1.649923 0.014960 0
M  V30 29 H 2.128948 -2.653656 -2.371064 0
M  V30 30 H 0.932865 -3.638408 -1.417411 0
M  V30 31 H 2.529642 -3.362494 -0.751273 0
M  V30 32 H 2.706251 2.340879 -1.448016 0
M  V30 33 H 5.049573 2.613178 -2.432120 0
M  V30 34 H 5.896151 -1.830580 -1.720377 0
M  V30 35 H 4.515509 -2.262292 -0.747953 0
M  V30 36 H 4.390388 -2.330373 -2.598241 0
M  V30 37 H -2.773839 1.018773 2.340079 0
M  V30 38 H -0.900972 2.504393 0.833622 0
M  V30 39 H 0.829150 2.884917 2.204432 0
M  V30 40 H 0.458483 1.335191 3.008256 0
M  V30 41 H -0.113331 2.445949 4.873965 0
M  V30 42 H 0.179423 3.999017 4.081396 0
M  V30 43 H -2.102852 4.056297 4.429564 0
M  V30 44 H -1.638905 4.297423 2.052928 0
M  V30 45 H -3.104061 3.191163 2.205042 0
M  V30 46 H -4.214806 -2.687915 2.222091 0
M  V30 47 H -5.637017 -4.643090 2.526065 0
M  V30 48 H -2.878477 -6.962014 0.321456 0
M  V30 49 H -1.423048 -4.963809 0.009747 0
M  V30 END ATOM
M  V30 BEGIN BOND
M  V30 1 1 1 2
M  V30 2 2 2 3
M  V30 3 1 3 4
M  V30 4 2 4 5
M  V30 5 1 5 6
M  V30 6 2 6 7
M  V30 7 1 7 8
M  V30 8 1 8 9
M  V30 9 1 3 10
M  V30 10 1 10 11
M  V30 11 2 11 12
M  V30 12 1 12 13
M  V30 13 1 13 14
M  V30 14 1 14 15
M  V30 15 1 15 16
M  V30 16 1 16 17
M  V30 17 1 17 18
M  V30 18 1 12 19
M  V30 19 2 19 20
M  V30 20 1 20 21
M  V30 21 2 21 22
M  V30 22 1 22 23
M  V30 23 2 23 24
M  V30 24 1 24 25
M  V30 25 2 25 26
M  V30 26 1 20 27
M  V30 27 2 27 28
M  V30 28 1 28 2
M  V30 29 1 8 4
M  V30 30 1 28 11
M  V30 31 1 18 14
M  V30 32 1 26 21
M  V30 33 1 1 29
M  V30 34 1 1 30
M  V30 35 1 1 31
M  V30 36 1 5 32
M  V30 37 1 6 33
M  V30 38 1 9 34
M  V30 39 1 9 35
M  V30 40 1 9 36
M  V30 41 1 13 37
M  V30 42 1 14 38 CFG=3
M  V30 43 1 15 39
M  V30 44 1 15 40
M  V30 45 1 16 41
M  V30 46 1 16 42
M  V30 47 1 17 43
M  V30 48 1 18 44
M  V30 49 1 18 45
M  V30 50 1 22 46
M  V30 51 1 23 47
M  V30 52 1 25 48
M  V30 53 1 26 49
M  V30 END BOND
M  V30 END CTAB
M  END
>  <Dataset>  (618) 
ChEMBL_Kinases

>  <Ligand_Instance>  (618) 
nan

>  <PDB_ID>  (618) 
nan

>  <Standardized_SMILES>  (618) 
Cc1c(-c2ccnn2C)sc2c(N[C@@H]3CCNC3)nc(-c3ccncc3)nc12

>  <Name>  (618) 
nan

>  <Pocket>  (618) 
nan

>  <ATP_Site>  (618) 
nan

>  <Peripheral>  (618) 
nan

>  <Num_H_Atoms_ProtBoundConf>  (618) 
nan

>  <Num_Resolved_Atoms>  (618) 
nan

>  <Num_Not_Resolved_Atoms>  (618) 
nan

$$$$
CHEMBL3730206
     RDKit          3D

  0  0  0  0  0  0  0  0  0  0999 V3000
M  V30 BEGIN CTAB
M  V30 COUNTS 61 65 0 0 0
M  V30 BEGIN ATOM
M  V30 1 C 3.953664 1.048659 5.198648 0
M  V30 2 O 3.295178 1.166207 3.942760 0
M  V30 3 C 4.077671 1.084108 2.793536 0
M  V30 4 C 5.463059 0.894312 2.802606 0
M  V30 5 N 6.166267 0.822934 1.659507 0
M  V30 6 C 5.482402 0.941564 0.508028 0
M  V30 7 C 4.110344 1.131831 0.393421 0
M  V30 8 C 3.414714 1.201302 1.576850 0
M  V30 9 C 1.965202 1.402467 1.453433 0
M  V30 10 C 1.505564 2.672282 1.425637 0
M  V30 11 C 2.179392 3.966208 1.496075 0
M  V30 12 S -0.308661 2.516898 1.267480 0
M  V30 13 C -0.274345 0.693964 1.253344 0
M  V30 14 C -1.323336 -0.206853 1.154462 0
M  V30 15 N -2.611516 0.331800 1.051165 0
M  V30 16 C -3.753077 -0.545108 0.942632 0
M  V30 17 C -3.703862 -1.398980 -0.285125 0 CFG=1
M  V30 18 N -4.899191 -2.225114 -0.273212 0
M  V30 19 C -3.733730 -0.548129 -1.526848 0
M  V30 20 C -3.685604 -1.374826 -2.763793 0
M  V30 21 C -2.443313 -1.688906 -3.309352 0
M  V30 22 C -2.397297 -2.458439 -4.460621 0
M  V30 23 C -3.552552 -2.918803 -5.076215 0
M  V30 24 C -4.804450 -2.611308 -4.539879 0
M  V30 25 C -4.813413 -1.847061 -3.398793 0
M  V30 26 N -1.033571 -1.518024 1.167418 0
M  V30 27 C 0.282865 -1.847423 1.278035 0
M  V30 28 C 0.642090 -3.266657 1.296390 0
M  V30 29 C 1.949039 -3.689624 1.404991 0
M  V30 30 C 2.169721 -5.057910 1.412037 0
M  V30 31 N 1.161358 -5.951822 1.317616 0
M  V30 32 C -0.117741 -5.534912 1.211335 0
M  V30 33 C -0.393470 -4.170867 1.199522 0
M  V30 34 N 1.258350 -0.962941 1.370397 0
M  V30 35 C 1.074532 0.369381 1.366804 0
M  V30 36 H 4.656254 1.879655 5.370789 0
M  V30 37 H 3.217913 1.038606 6.014779 0
M  V30 38 H 4.470698 0.062387 5.177009 0
M  V30 39 H 5.926755 0.809818 3.773468 0
M  V30 40 H 6.054593 0.883067 -0.401588 0
M  V30 41 H 3.683000 1.212007 -0.602935 0
M  V30 42 H 1.506516 4.733056 1.052033 0
M  V30 43 H 2.353088 4.319958 2.541906 0
M  V30 44 H 3.093944 4.026475 0.862033 0
M  V30 45 H -2.810718 1.334404 1.046683 0
M  V30 46 H -4.719816 -0.001950 0.958075 0
M  V30 47 H -3.740219 -1.159584 1.883320 0
M  V30 48 H -2.788938 -2.021300 -0.329308 0
M  V30 49 H -5.652889 -1.676739 0.153495 0
M  V30 50 H -4.744275 -3.176567 0.104169 0
M  V30 51 H -4.607806 0.131025 -1.520361 0
M  V30 52 H -2.839817 0.119033 -1.541415 0
M  V30 53 H -1.525484 -1.347739 -2.857107 0
M  V30 54 H -1.413970 -2.685513 -4.860285 0
M  V30 55 H -3.507211 -3.511993 -5.964168 0
M  V30 56 H -5.729323 -2.953976 -4.994022 0
M  V30 57 H -5.774134 -1.596152 -2.964985 0
M  V30 58 H 2.736732 -2.956598 1.479019 0
M  V30 59 H 3.203906 -5.420584 1.497785 0
M  V30 60 H -0.935085 -6.237731 1.134984 0
M  V30 61 H -1.443811 -3.883892 1.111766 0
M  V30 END ATOM
M  V30 BEGIN BOND
M  V30 1 1 1 2
M  V30 2 1 2 3
M  V30 3 2 3 4
M  V30 4 1 4 5
M  V30 5 2 5 6
M  V30 6 1 6 7
M  V30 7 2 7 8
M  V30 8 1 8 9
M  V30 9 2 9 10
M  V30 10 1 10 11
M  V30 11 1 10 12
M  V30 12 1 12 13
M  V30 13 2 13 14
M  V30 14 1 14 15
M  V30 15 1 15 16
M  V30 16 1 16 17
M  V30 17 1 17 18
M  V30 18 1 17 19
M  V30 19 1 19 20
M  V30 20 2 20 21
M  V30 21 1 21 22
M  V30 22 2 22 23
M  V30 23 1 23 24
M  V30 24 2 24 25
M  V30 25 1 14 26
M  V30 26 2 26 27
M  V30 27 1 27 28
M  V30 28 2 28 29
M  V30 29 1 29 30
M  V30 30 2 30 31
M  V30 31 1 31 32
M  V30 32 2 32 33
M  V30 33 1 27 34
M  V30 34 2 34 35
M  V30 35 1 8 3
M  V30 36 1 35 9
M  V30 37 1 35 13
M  V30 38 1 25 20
M  V30 39 1 33 28
M  V30 40 1 1 36
M  V30 41 1 1 37
M  V30 42 1 1 38
M  V30 43 1 4 39
M  V30 44 1 6 40
M  V30 45 1 7 41
M  V30 46 1 11 42
M  V30 47 1 11 43
M  V30 48 1 11 44
M  V30 49 1 15 45
M  V30 50 1 16 46
M  V30 51 1 16 47
M  V30 52 1 17 48 CFG=1
M  V30 53 1 18 49
M  V30 54 1 18 50
M  V30 55 1 19 51
M  V30 56 1 19 52
M  V30 57 1 21 53
M  V30 58 1 22 54
M  V30 59 1 23 55
M  V30 60 1 24 56
M  V30 61 1 25 57
M  V30 62 1 29 58
M  V30 63 1 30 59
M  V30 64 1 32 60
M  V30 65 1 33 61
M  V30 END BOND
M  V30 END CTAB
M  END
>  <Dataset>  (619) 
ChEMBL_Kinases

>  <Ligand_Instance>  (619) 
nan

>  <PDB_ID>  (619) 
nan

>  <Standardized_SMILES>  (619) 
COc1cnccc1-c1c(C)sc2c(NC[C@@H](N)Cc3ccccc3)nc(-c3ccncc3)nc12

>  <Name>  (619) 
nan

>  <Pocket>  (619) 
nan

>  <ATP_Site>  (619) 
nan

>  <Peripheral>  (619) 
nan

>  <Num_H_Atoms_ProtBoundConf>  (619) 
nan

>  <Num_Resolved_Atoms>  (619) 
nan

>  <Num_Not_Resolved_Atoms>  (619) 
nan

$$$$
CHEMBL3730201
     RDKit          3D

  0  0  0  0  0  0  0  0  0  0999 V3000
M  V30 BEGIN CTAB
M  V30 COUNTS 66 70 0 0 0
M  V30 BEGIN ATOM
M  V30 1 C 2.986072 -2.720076 4.712152 0
M  V30 2 O 2.221204 -1.816239 5.470982 0
M  V30 3 C 1.176520 -1.083889 4.944238 0
M  V30 4 C 0.736509 -0.327039 6.021148 0
M  V30 5 C -0.351644 0.565216 5.859101 0
M  V30 6 C -0.980187 0.689597 4.622496 0
M  V30 7 O -2.037014 1.461357 4.218771 0
M  V30 8 C -2.755417 2.332272 5.009378 0
M  V30 9 C -0.486812 -0.092447 3.588641 0
M  V30 10 C -0.968097 -0.023298 2.213333 0
M  V30 11 C -2.073941 -0.680238 1.843692 0
M  V30 12 C -3.014023 -1.468688 2.665821 0
M  V30 13 S -2.046668 -0.287650 0.017203 0
M  V30 14 C -0.476598 0.746983 0.034453 0
M  V30 15 C -0.676492 0.884286 -1.290330 0
M  V30 16 N -0.869982 1.026776 -2.605870 0
M  V30 17 C -1.722901 -0.075322 -2.951032 0
M  V30 18 C -0.979755 -1.365316 -3.252624 0 CFG=1
M  V30 19 N -0.125043 -1.820834 -2.170301 0
M  V30 20 C -2.102561 -2.429478 -3.355659 0
M  V30 21 C -1.628833 -3.760068 -3.643738 0
M  V30 22 C -1.338034 -4.571548 -2.498468 0
M  V30 23 C -0.882210 -5.881856 -2.517031 0
M  V30 24 C -0.672908 -6.499818 -3.765010 0
M  V30 25 C -0.924173 -5.801185 -4.991113 0
M  V30 26 C -1.340553 -4.602883 -4.635400 0
M  V30 27 N 0.519160 1.703415 -1.249400 0
M  V30 28 C 1.195494 1.922711 -0.076027 0
M  V30 29 C 2.446356 2.799970 -0.121866 0
M  V30 30 C 3.147390 2.992358 1.025845 0
M  V30 31 C 4.289050 3.799584 0.882776 0
M  V30 32 N 4.602195 4.307273 -0.312629 0
M  V30 33 C 3.861984 4.072612 -1.389650 0
M  V30 34 C 2.694670 3.283747 -1.396927 0
M  V30 35 N 0.829113 1.413536 1.148889 0
M  V30 36 C -0.291090 0.613549 1.292830 0
M  V30 37 C 0.557752 -0.964261 3.721126 0
M  V30 38 H 2.415545 -3.602281 4.384812 0
M  V30 39 H 3.427955 -2.235170 3.820673 0
M  V30 40 H 3.858649 -3.082599 5.335005 0
M  V30 41 H 1.047367 -0.240005 7.065076 0
M  V30 42 H -0.786997 1.219636 6.618964 0
M  V30 43 H -3.830118 1.985430 5.149312 0
M  V30 44 H -2.887039 3.310510 4.466354 0
M  V30 45 H -2.357962 2.497076 6.010873 0
M  V30 46 H -2.513177 -2.285446 3.209087 0
M  V30 47 H -3.488701 -0.797616 3.407296 0
M  V30 48 H -3.820554 -1.828642 2.014350 0
M  V30 49 H -0.569785 1.736517 -3.328307 0
M  V30 50 H -2.146926 0.198307 -3.985678 0
M  V30 51 H -2.637522 -0.205089 -2.375499 0
M  V30 52 H -0.390235 -1.322244 -4.168163 0
M  V30 53 H 0.313038 -2.743821 -2.422402 0
M  V30 54 H 0.582761 -1.122943 -1.890082 0
M  V30 55 H -2.610261 -2.451475 -2.324553 0
M  V30 56 H -2.871394 -1.993427 -3.998662 0
M  V30 57 H -1.449952 -4.227080 -1.445709 0
M  V30 58 H -0.672617 -6.469389 -1.610943 0
M  V30 59 H -0.318225 -7.530658 -3.708793 0
M  V30 60 H -0.761100 -6.258868 -5.928781 0
M  V30 61 H -1.551861 -4.012079 -5.584131 0
M  V30 62 H 2.885693 2.577969 1.963889 0
M  V30 63 H 4.872464 3.972904 1.798313 0
M  V30 64 H 4.126447 4.499144 -2.367969 0
M  V30 65 H 2.132062 3.128571 -2.284502 0
M  V30 66 H 1.040691 -1.634641 3.027606 0
M  V30 END ATOM
M  V30 BEGIN BOND
M  V30 1 1 1 2
M  V30 2 1 2 3
M  V30 3 2 3 4
M  V30 4 1 4 5
M  V30 5 2 5 6
M  V30 6 1 6 7
M  V30 7 1 7 8
M  V30 8 1 6 9
M  V30 9 1 9 10
M  V30 10 2 10 11
M  V30 11 1 11 12
M  V30 12 1 11 13
M  V30 13 1 13 14
M  V30 14 2 14 15
M  V30 15 1 15 16
M  V30 16 1 16 17
M  V30 17 1 17 18
M  V30 18 1 18 19
M  V30 19 1 18 20
M  V30 20 1 20 21
M  V30 21 2 21 22
M  V30 22 1 22 23
M  V30 23 2 23 24
M  V30 24 1 24 25
M  V30 25 2 25 26
M  V30 26 1 15 27
M  V30 27 2 27 28
M  V30 28 1 28 29
M  V30 29 2 29 30
M  V30 30 1 30 31
M  V30 31 2 31 32
M  V30 32 1 32 33
M  V30 33 2 33 34
M  V30 34 1 28 35
M  V30 35 2 35 36
M  V30 36 2 9 37
M  V30 37 1 37 3
M  V30 38 1 36 10
M  V30 39 1 36 14
M  V30 40 1 26 21
M  V30 41 1 34 29
M  V30 42 1 1 38
M  V30 43 1 1 39
M  V30 44 1 1 40
M  V30 45 1 4 41
M  V30 46 1 5 42
M  V30 47 1 8 43
M  V30 48 1 8 44
M  V30 49 1 8 45
M  V30 50 1 12 46
M  V30 51 1 12 47
M  V30 52 1 12 48
M  V30 53 1 16 49
M  V30 54 1 17 50
M  V30 55 1 17 51
M  V30 56 1 18 52 CFG=3
M  V30 57 1 19 53
M  V30 58 1 19 54
M  V30 59 1 20 55
M  V30 60 1 20 56
M  V30 61 1 22 57
M  V30 62 1 23 58
M  V30 63 1 24 59
M  V30 64 1 25 60
M  V30 65 1 26 61
M  V30 66 1 30 62
M  V30 67 1 31 63
M  V30 68 1 33 64
M  V30 69 1 34 65
M  V30 70 1 37 66
M  V30 END BOND
M  V30 END CTAB
M  END
>  <Dataset>  (620) 
ChEMBL_Kinases

>  <Ligand_Instance>  (620) 
nan

>  <PDB_ID>  (620) 
nan

>  <Standardized_SMILES>  (620) 
COc1ccc(OC)c(-c2c(C)sc3c(NC[C@@H](N)Cc4ccccc4)nc(-c4ccncc4)nc23)c1

>  <Name>  (620) 
nan

>  <Pocket>  (620) 
nan

>  <ATP_Site>  (620) 
nan

>  <Peripheral>  (620) 
nan

>  <Num_H_Atoms_ProtBoundConf>  (620) 
nan

>  <Num_Resolved_Atoms>  (620) 
nan

>  <Num_Not_Resolved_Atoms>  (620) 
nan

$$$$
CHEMBL3730187
     RDKit          3D

  0  0  0  0  0  0  0  0  0  0999 V3000
M  V30 BEGIN CTAB
M  V30 COUNTS 61 66 0 0 0
M  V30 BEGIN ATOM
M  V30 1 N 2.043238 -1.385015 1.030432 0
M  V30 2 C 1.501439 -2.447760 1.817192 0 CFG=1
M  V30 3 C 0.681157 -1.743728 2.924757 0
M  V30 4 N -0.392116 -0.957477 2.405708 0
M  V30 5 C -0.673561 0.157620 1.600095 0
M  V30 6 N 0.437622 0.750962 1.153806 0
M  V30 7 C 0.537046 1.821057 0.397862 0
M  V30 8 C 1.697815 2.514485 -0.117957 0
M  V30 9 C 2.992376 2.114486 0.137278 0
M  V30 10 C 4.107248 2.745818 -0.333539 0
M  V30 11 N 3.947681 3.836024 -1.101402 0
M  V30 12 C 2.721031 4.290401 -1.396558 0
M  V30 13 C 1.621220 3.646390 -0.917203 0
M  V30 14 N -0.638738 2.358020 0.049422 0
M  V30 15 C -1.775665 1.779967 0.484955 0
M  V30 16 S -3.447534 2.274728 0.171570 0
M  V30 17 C -4.213399 0.981466 1.097782 0
M  V30 18 C -3.101868 0.186140 1.634976 0
M  V30 19 C -1.896612 0.675823 1.265561 0
M  V30 20 C -3.831788 -0.840346 2.367686 0
M  V30 21 C -4.685157 -0.140951 3.438477 0
M  V30 22 C -5.924023 0.454929 2.798694 0
M  V30 23 C -5.660971 0.714508 1.311111 0
M  V30 24 C 0.570462 -3.393182 1.079765 0
M  V30 25 C 1.265950 -4.005680 -0.034535 0
M  V30 26 C 1.899278 -5.213280 0.189800 0
M  V30 27 C 2.623262 -5.770737 -0.859935 0
M  V30 28 C 2.740007 -5.177855 -2.113761 0
M  V30 29 C 2.096230 -3.957185 -2.335580 0
M  V30 30 C 2.191181 -3.378828 -3.575667 0
M  V30 31 C 1.543934 -2.187362 -3.819998 0
M  V30 32 C 0.804090 -1.602554 -2.784796 0
M  V30 33 C 0.753180 -2.234973 -1.572824 0
M  V30 34 C 1.390221 -3.435519 -1.278297 0
M  V30 35 H 2.637816 -0.821678 1.728036 0
M  V30 36 H 2.794671 -1.719023 0.358215 0
M  V30 37 H 2.330419 -3.010030 2.272215 0
M  V30 38 H 0.463712 -2.487061 3.671891 0
M  V30 39 H 1.423923 -1.002518 3.350464 0
M  V30 40 H -1.197457 -1.433675 2.803140 0
M  V30 41 H 3.192673 1.254150 0.742163 0
M  V30 42 H 5.113079 2.425373 -0.129140 0
M  V30 43 H 2.586257 5.167131 -2.014183 0
M  V30 44 H 0.630610 4.033552 -1.169793 0
M  V30 45 H -3.233233 -1.569277 2.878446 0
M  V30 46 H -4.594472 -1.370246 1.711873 0
M  V30 47 H -4.952983 -0.853849 4.218833 0
M  V30 48 H -4.065927 0.678237 3.849645 0
M  V30 49 H -6.767321 -0.240264 2.871335 0
M  V30 50 H -6.214909 1.410829 3.268091 0
M  V30 51 H -5.927396 -0.185365 0.759294 0
M  V30 52 H -6.208596 1.611015 1.035277 0
M  V30 53 H -0.331447 -2.805159 0.829722 0
M  V30 54 H 0.256156 -4.169574 1.818512 0
M  V30 55 H 1.898243 -5.794520 1.113372 0
M  V30 56 H 3.152839 -6.714071 -0.778278 0
M  V30 57 H 3.299119 -5.614345 -2.913902 0
M  V30 58 H 2.757699 -3.818810 -4.384092 0
M  V30 59 H 1.568027 -1.666594 -4.763891 0
M  V30 60 H 0.290232 -0.660551 -2.973963 0
M  V30 61 H 0.146214 -1.734686 -0.832723 0
M  V30 END ATOM
M  V30 BEGIN BOND
M  V30 1 1 1 2
M  V30 2 1 2 3
M  V30 3 1 3 4
M  V30 4 1 4 5
M  V30 5 2 5 6
M  V30 6 1 6 7
M  V30 7 1 7 8
M  V30 8 2 8 9
M  V30 9 1 9 10
M  V30 10 2 10 11
M  V30 11 1 11 12
M  V30 12 2 12 13
M  V30 13 2 7 14
M  V30 14 1 14 15
M  V30 15 1 15 16
M  V30 16 1 16 17
M  V30 17 2 17 18
M  V30 18 1 18 19
M  V30 19 1 18 20
M  V30 20 1 20 21
M  V30 21 1 21 22
M  V30 22 1 22 23
M  V30 23 1 2 24
M  V30 24 1 24 25
M  V30 25 2 25 26
M  V30 26 1 26 27
M  V30 27 2 27 28
M  V30 28 1 28 29
M  V30 29 2 29 30
M  V30 30 1 30 31
M  V30 31 2 31 32
M  V30 32 1 32 33
M  V30 33 2 33 34
M  V30 34 1 19 5
M  V30 35 1 34 25
M  V30 36 1 13 8
M  V30 37 2 19 15
M  V30 38 1 34 29
M  V30 39 1 23 17
M  V30 40 1 1 35
M  V30 41 1 1 36
M  V30 42 1 2 37 CFG=1
M  V30 43 1 3 38
M  V30 44 1 3 39
M  V30 45 1 4 40
M  V30 46 1 9 41
M  V30 47 1 10 42
M  V30 48 1 12 43
M  V30 49 1 13 44
M  V30 50 1 20 45
M  V30 51 1 20 46
M  V30 52 1 21 47
M  V30 53 1 21 48
M  V30 54 1 22 49
M  V30 55 1 22 50
M  V30 56 1 23 51
M  V30 57 1 23 52
M  V30 58 1 24 53
M  V30 59 1 24 54
M  V30 60 1 26 55
M  V30 61 1 27 56
M  V30 62 1 28 57
M  V30 63 1 30 58
M  V30 64 1 31 59
M  V30 65 1 32 60
M  V30 66 1 33 61
M  V30 END BOND
M  V30 END CTAB
M  END
>  <Dataset>  (621) 
ChEMBL_Kinases

>  <Ligand_Instance>  (621) 
nan

>  <PDB_ID>  (621) 
nan

>  <Standardized_SMILES>  (621) 
N[C@@H](CNc1nc(-c2ccncc2)nc2sc3c(c12)CCCC3)Cc1cccc2ccccc12

>  <Name>  (621) 
nan

>  <Pocket>  (621) 
nan

>  <ATP_Site>  (621) 
nan

>  <Peripheral>  (621) 
nan

>  <Num_H_Atoms_ProtBoundConf>  (621) 
nan

>  <Num_Resolved_Atoms>  (621) 
nan

>  <Num_Not_Resolved_Atoms>  (621) 
nan

$$$$
CHEMBL3730182
     RDKit          3D

  0  0  0  0  0  0  0  0  0  0999 V3000
M  V30 BEGIN CTAB
M  V30 COUNTS 48 52 0 0 0
M  V30 BEGIN ATOM
M  V30 1 O -0.512438 -5.261808 -0.047922 0
M  V30 2 C -1.413055 -5.285724 0.802220 0
M  V30 3 N -1.515944 -4.279864 1.789708 0
M  V30 4 C -0.612175 -3.184073 1.882807 0
M  V30 5 C -0.908084 -2.029260 1.189114 0
M  V30 6 C -0.067376 -0.959105 1.253750 0
M  V30 7 C -0.308358 0.316367 0.542255 0
M  V30 8 N 0.574194 1.316633 0.665234 0
M  V30 9 C 0.347761 2.459932 0.020577 0
M  V30 10 N 1.107053 3.631418 -0.010292 0
M  V30 11 C 2.330945 3.734164 0.713013 0 CFG=1
M  V30 12 C 2.204940 3.496340 2.201790 0
M  V30 13 N 3.560684 3.153179 2.587099 0
M  V30 14 C 4.110151 2.373837 1.519509 0
M  V30 15 C 3.288514 2.654600 0.283947 0 CFG=2
M  V30 16 O 4.104540 3.180943 -0.747671 0
M  V30 17 C -0.801441 2.490596 -0.723433 0
M  V30 18 S -1.535058 3.868347 -1.793425 0
M  V30 19 C -3.057841 2.863480 -2.321473 0
M  V30 20 C -2.870514 1.633944 -1.663754 0
M  V30 21 C -1.785660 1.444028 -0.890773 0
M  V30 22 N -1.429421 0.359384 -0.189268 0
M  V30 23 C 1.082837 -1.004327 2.003432 0
M  V30 24 C 1.351885 -2.183645 2.690818 0
M  V30 25 N 0.505480 -3.252010 2.621773 0
M  V30 26 C -2.437085 -6.291732 0.904810 0
M  V30 27 C -2.523926 -7.430760 -0.016563 0
M  V30 28 C -3.556325 -8.299469 0.215385 0
M  V30 29 C -4.455066 -8.083985 1.274998 0
M  V30 30 S -3.779356 -6.487522 2.030455 0
M  V30 31 H -2.224172 -4.185564 2.558122 0
M  V30 32 H -1.777394 -1.896201 0.579223 0
M  V30 33 H 0.839473 4.483427 -0.546587 0
M  V30 34 H 2.863742 4.706442 0.522853 0
M  V30 35 H 1.477843 2.687118 2.362116 0
M  V30 36 H 1.898034 4.424283 2.739512 0
M  V30 37 H 4.100876 3.996481 2.810931 0
M  V30 38 H 4.134411 1.286708 1.748465 0
M  V30 39 H 5.156649 2.665527 1.300201 0
M  V30 40 H 2.749482 1.759156 -0.075640 0
M  V30 41 H 4.823489 3.664297 -0.241793 0
M  V30 42 H -3.922337 3.129411 -2.987684 0
M  V30 43 H -3.629322 0.890963 -1.820774 0
M  V30 44 H 1.787875 -0.179292 2.089373 0
M  V30 45 H 2.260939 -2.213732 3.280835 0
M  V30 46 H -1.810301 -7.552789 -0.814593 0
M  V30 47 H -3.726794 -9.174002 -0.391629 0
M  V30 48 H -5.258327 -8.603354 1.593676 0
M  V30 END ATOM
M  V30 BEGIN BOND
M  V30 1 2 1 2
M  V30 2 1 2 3
M  V30 3 1 3 4
M  V30 4 2 4 5
M  V30 5 1 5 6
M  V30 6 1 6 7
M  V30 7 2 7 8
M  V30 8 1 8 9
M  V30 9 1 9 10
M  V30 10 1 10 11
M  V30 11 1 11 12
M  V30 12 1 12 13
M  V30 13 1 13 14
M  V30 14 1 14 15
M  V30 15 1 15 16
M  V30 16 2 9 17
M  V30 17 1 17 18
M  V30 18 1 18 19
M  V30 19 2 19 20
M  V30 20 1 20 21
M  V30 21 2 21 22
M  V30 22 2 6 23
M  V30 23 1 23 24
M  V30 24 2 24 25
M  V30 25 1 2 26
M  V30 26 2 26 27
M  V30 27 1 27 28
M  V30 28 2 28 29
M  V30 29 1 29 30
M  V30 30 1 25 4
M  V30 31 1 30 26
M  V30 32 1 22 7
M  V30 33 1 15 11
M  V30 34 1 21 17
M  V30 35 1 3 31
M  V30 36 1 5 32
M  V30 37 1 10 33
M  V30 38 1 11 34 CFG=1
M  V30 39 1 12 35
M  V30 40 1 12 36
M  V30 41 1 13 37
M  V30 42 1 14 38
M  V30 43 1 14 39
M  V30 44 1 15 40 CFG=3
M  V30 45 1 16 41
M  V30 46 1 19 42
M  V30 47 1 20 43
M  V30 48 1 23 44
M  V30 49 1 24 45
M  V30 50 1 27 46
M  V30 51 1 28 47
M  V30 52 1 29 48
M  V30 END BOND
M  V30 END CTAB
M  END
>  <Dataset>  (622) 
ChEMBL_Kinases

>  <Ligand_Instance>  (622) 
nan

>  <PDB_ID>  (622) 
nan

>  <Standardized_SMILES>  (622) 
O=C(Nc1cc(-c2nc(N[C@H]3CNC[C@@H]3O)c3sccc3n2)ccn1)c1cccs1

>  <Name>  (622) 
nan

>  <Pocket>  (622) 
nan

>  <ATP_Site>  (622) 
nan

>  <Peripheral>  (622) 
nan

>  <Num_H_Atoms_ProtBoundConf>  (622) 
nan

>  <Num_Resolved_Atoms>  (622) 
nan

>  <Num_Not_Resolved_Atoms>  (622) 
nan

$$$$
CHEMBL3730161
     RDKit          3D

  0  0  0  0  0  0  0  0  0  0999 V3000
M  V30 BEGIN CTAB
M  V30 COUNTS 55 59 0 0 0
M  V30 BEGIN ATOM
M  V30 1 O 1.100855 -5.878536 -1.943307 0
M  V30 2 C 0.092514 -5.578179 -1.021207 0 CFG=1
M  V30 3 C 0.661725 -5.595294 0.356933 0
M  V30 4 N 1.733472 -4.674459 0.595352 0
M  V30 5 C 1.855677 -3.281177 0.796561 0
M  V30 6 C 0.821976 -2.396180 0.907606 0
M  V30 7 C 0.919142 -1.039803 1.099590 0
M  V30 8 C -0.205444 -0.116722 1.207971 0
M  V30 9 N 0.104757 1.185477 1.381023 0
M  V30 10 C -0.925329 2.034134 1.477908 0
M  V30 11 N -0.845942 3.433075 1.655404 0
M  V30 12 C 0.407161 4.102712 1.750676 0 CFG=2
M  V30 13 C 1.307834 3.925894 0.537109 0
M  V30 14 C 2.631343 4.415240 1.090774 0
M  V30 15 N 2.528384 4.342424 2.548107 0
M  V30 16 C 1.324363 3.540424 2.824681 0
M  V30 17 C -2.205434 1.541895 1.397888 0
M  V30 18 S -3.785277 2.397240 1.488125 0
M  V30 19 C -4.799476 0.822781 1.270344 0
M  V30 20 C -3.800457 -0.248328 1.144559 0
M  V30 21 C -2.531484 0.210687 1.220995 0
M  V30 22 N -1.449776 -0.583588 1.131484 0
M  V30 23 C 2.194780 -0.538715 1.187194 0
M  V30 24 C 3.247342 -1.419762 1.077003 0
M  V30 25 N 3.057035 -2.730622 0.889765 0
M  V30 26 C -0.754286 -4.459528 -1.399341 0
M  V30 27 C -2.119906 -4.516146 -1.112047 0
M  V30 28 C -3.086350 -3.578378 -1.402555 0
M  V30 29 C -2.623114 -2.437193 -2.066298 0
M  V30 30 C -1.286441 -2.298582 -2.389806 0
M  V30 31 C -0.400867 -3.298120 -2.053116 0
M  V30 32 H 1.732964 -6.539718 -1.606325 0
M  V30 33 H -0.585036 -6.513145 -1.106504 0
M  V30 34 H 0.947638 -6.629740 0.673338 0
M  V30 35 H -0.180884 -5.250210 1.050858 0
M  V30 36 H 2.642303 -5.208085 0.613932 0
M  V30 37 H -0.204845 -2.769382 0.846988 0
M  V30 38 H -1.647852 4.064189 1.728370 0
M  V30 39 H 0.315262 5.196641 1.966683 0
M  V30 40 H 1.407159 2.847419 0.337948 0
M  V30 41 H 0.945953 4.478198 -0.327011 0
M  V30 42 H 2.781773 5.485730 0.769406 0
M  V30 43 H 3.480756 3.818676 0.716102 0
M  V30 44 H 2.278163 5.306740 2.869683 0
M  V30 45 H 0.976524 3.728099 3.842881 0
M  V30 46 H 1.595743 2.495053 2.622492 0
M  V30 47 H -5.976026 0.479582 1.209678 0
M  V30 48 H -4.159017 -1.249086 1.009392 0
M  V30 49 H 2.402577 0.510976 1.338085 0
M  V30 50 H 4.267219 -1.050348 1.142330 0
M  V30 51 H -2.488482 -5.399295 -0.595941 0
M  V30 52 H -4.110273 -3.717772 -1.137233 0
M  V30 53 H -3.348638 -1.677745 -2.311634 0
M  V30 54 H -0.966627 -1.418135 -2.895184 0
M  V30 55 H 0.669947 -3.212244 -2.300461 0
M  V30 END ATOM
M  V30 BEGIN BOND
M  V30 1 1 1 2
M  V30 2 1 2 3
M  V30 3 1 3 4
M  V30 4 1 4 5
M  V30 5 2 5 6
M  V30 6 1 6 7
M  V30 7 1 7 8
M  V30 8 2 8 9
M  V30 9 1 9 10
M  V30 10 1 10 11
M  V30 11 1 11 12
M  V30 12 1 12 13
M  V30 13 1 13 14
M  V30 14 1 14 15
M  V30 15 1 15 16
M  V30 16 2 10 17
M  V30 17 1 17 18
M  V30 18 1 18 19
M  V30 19 2 19 20
M  V30 20 1 20 21
M  V30 21 2 21 22
M  V30 22 2 7 23
M  V30 23 1 23 24
M  V30 24 2 24 25
M  V30 25 1 2 26
M  V30 26 2 26 27
M  V30 27 1 27 28
M  V30 28 2 28 29
M  V30 29 1 29 30
M  V30 30 2 30 31
M  V30 31 1 25 5
M  V30 32 1 31 26
M  V30 33 1 22 8
M  V30 34 1 16 12
M  V30 35 1 21 17
M  V30 36 1 1 32
M  V30 37 1 2 33 CFG=1
M  V30 38 1 3 34
M  V30 39 1 3 35
M  V30 40 1 4 36
M  V30 41 1 6 37
M  V30 42 1 11 38
M  V30 43 1 12 39 CFG=1
M  V30 44 1 13 40
M  V30 45 1 13 41
M  V30 46 1 14 42
M  V30 47 1 14 43
M  V30 48 1 15 44
M  V30 49 1 16 45
M  V30 50 1 16 46
M  V30 51 1 19 47
M  V30 52 1 20 48
M  V30 53 1 23 49
M  V30 54 1 24 50
M  V30 55 1 27 51
M  V30 56 1 28 52
M  V30 57 1 29 53
M  V30 58 1 30 54
M  V30 59 1 31 55
M  V30 END BOND
M  V30 END CTAB
M  END
>  <Dataset>  (623) 
ChEMBL_Kinases

>  <Ligand_Instance>  (623) 
nan

>  <PDB_ID>  (623) 
nan

>  <Standardized_SMILES>  (623) 
O[C@@H](CNc1cc(-c2nc(N[C@@H]3CCNC3)c3sccc3n2)ccn1)c1ccccc1

>  <Name>  (623) 
nan

>  <Pocket>  (623) 
nan

>  <ATP_Site>  (623) 
nan

>  <Peripheral>  (623) 
nan

>  <Num_H_Atoms_ProtBoundConf>  (623) 
nan

>  <Num_Resolved_Atoms>  (623) 
nan

>  <Num_Not_Resolved_Atoms>  (623) 
nan

$$$$
CHEMBL3730158
     RDKit          3D

  0  0  0  0  0  0  0  0  0  0999 V3000
M  V30 BEGIN CTAB
M  V30 COUNTS 58 61 0 0 0
M  V30 BEGIN ATOM
M  V30 1 C 2.591296 -1.663305 5.979110 0
M  V30 2 C 3.290804 -2.702003 5.122340 0
M  V30 3 C 4.247730 -2.029467 4.157901 0
M  V30 4 N 3.460579 -1.131108 3.328582 0
M  V30 5 C 4.209969 -0.400978 2.331152 0
M  V30 6 O 5.451091 -0.511184 2.169794 0
M  V30 7 C 3.323479 0.479591 1.539544 0
M  V30 8 C 3.428203 1.854980 1.823431 0
M  V30 9 S 2.156111 2.615089 0.645568 0
M  V30 10 C 1.693986 1.098838 -0.015895 0
M  V30 11 C 0.750215 0.774721 -1.006027 0
M  V30 12 N 0.041860 1.858550 -1.560706 0
M  V30 13 C -0.977264 1.950488 -2.564395 0
M  V30 14 C -2.254767 1.205572 -2.234083 0 CFG=1
M  V30 15 N -2.042254 -0.218277 -2.075760 0
M  V30 16 C -2.933671 1.813214 -1.018478 0
M  V30 17 C -4.168654 1.047575 -0.740832 0
M  V30 18 C -4.072965 -0.025001 0.144158 0
M  V30 19 C -5.175560 -0.811688 0.475644 0
M  V30 20 C -6.379501 -0.478409 -0.117281 0
M  V30 21 C -6.488558 0.588969 -1.001579 0
M  V30 22 C -5.368856 1.358267 -1.314372 0
M  V30 23 N 0.551919 -0.499847 -1.373881 0
M  V30 24 C 1.299856 -1.430560 -0.745461 0
M  V30 25 C 1.156816 -2.869188 -1.081675 0
M  V30 26 C 0.249485 -3.202797 -2.037316 0
M  V30 27 C 0.044361 -4.508579 -2.419287 0
M  V30 28 N 0.776030 -5.487578 -1.816830 0
M  V30 29 C 1.677225 -5.176144 -0.869769 0
M  V30 30 C 1.893137 -3.861780 -0.475496 0
M  V30 31 N 2.196270 -1.126117 0.195674 0
M  V30 32 C 2.426034 0.140196 0.593827 0
M  V30 33 H 3.266685 -0.874570 6.355092 0
M  V30 34 H 2.117773 -2.148668 6.878718 0
M  V30 35 H 1.758482 -1.172827 5.438478 0
M  V30 36 H 2.497666 -3.202712 4.491509 0
M  V30 37 H 3.756284 -3.491686 5.723013 0
M  V30 38 H 4.997795 -1.496425 4.759706 0
M  V30 39 H 4.760804 -2.803033 3.571359 0
M  V30 40 H 2.429450 -1.038370 3.461592 0
M  V30 41 H 4.116628 2.366538 2.582749 0
M  V30 42 H 0.222727 2.833258 -1.240305 0
M  V30 43 H -0.542685 1.406129 -3.465945 0
M  V30 44 H -1.205530 2.947888 -2.939675 0
M  V30 45 H -2.941195 1.345655 -3.090497 0
M  V30 46 H -2.981327 -0.684123 -1.922781 0
M  V30 47 H -1.661371 -0.536414 -3.027778 0
M  V30 48 H -2.261353 1.851129 -0.135331 0
M  V30 49 H -3.202455 2.842970 -1.267546 0
M  V30 50 H -3.115911 -0.268062 0.597417 0
M  V30 51 H -5.035303 -1.640462 1.175947 0
M  V30 52 H -7.193954 -1.122797 0.178669 0
M  V30 53 H -7.470930 0.796461 -1.433922 0
M  V30 54 H -5.466843 2.199010 -2.012789 0
M  V30 55 H -0.360161 -2.477870 -2.551339 0
M  V30 56 H -0.677143 -4.769645 -3.179449 0
M  V30 57 H 2.266630 -5.959438 -0.384776 0
M  V30 58 H 2.615435 -3.591826 0.287548 0
M  V30 END ATOM
M  V30 BEGIN BOND
M  V30 1 1 1 2
M  V30 2 1 2 3
M  V30 3 1 3 4
M  V30 4 1 4 5
M  V30 5 2 5 6
M  V30 6 1 5 7
M  V30 7 2 7 8
M  V30 8 1 8 9
M  V30 9 1 9 10
M  V30 10 2 10 11
M  V30 11 1 11 12
M  V30 12 1 12 13
M  V30 13 1 13 14
M  V30 14 1 14 15
M  V30 15 1 14 16
M  V30 16 1 16 17
M  V30 17 2 17 18
M  V30 18 1 18 19
M  V30 19 2 19 20
M  V30 20 1 20 21
M  V30 21 2 21 22
M  V30 22 1 11 23
M  V30 23 2 23 24
M  V30 24 1 24 25
M  V30 25 2 25 26
M  V30 26 1 26 27
M  V30 27 2 27 28
M  V30 28 1 28 29
M  V30 29 2 29 30
M  V30 30 1 24 31
M  V30 31 2 31 32
M  V30 32 1 32 7
M  V30 33 1 32 10
M  V30 34 1 22 17
M  V30 35 1 30 25
M  V30 36 1 1 33
M  V30 37 1 1 34
M  V30 38 1 1 35
M  V30 39 1 2 36
M  V30 40 1 2 37
M  V30 41 1 3 38
M  V30 42 1 3 39
M  V30 43 1 4 40
M  V30 44 1 8 41
M  V30 45 1 12 42
M  V30 46 1 13 43
M  V30 47 1 13 44
M  V30 48 1 14 45 CFG=3
M  V30 49 1 15 46
M  V30 50 1 15 47
M  V30 51 1 16 48
M  V30 52 1 16 49
M  V30 53 1 18 50
M  V30 54 1 19 51
M  V30 55 1 20 52
M  V30 56 1 21 53
M  V30 57 1 22 54
M  V30 58 1 26 55
M  V30 59 1 27 56
M  V30 60 1 29 57
M  V30 61 1 30 58
M  V30 END BOND
M  V30 END CTAB
M  END
>  <Dataset>  (624) 
ChEMBL_Kinases

>  <Ligand_Instance>  (624) 
nan

>  <PDB_ID>  (624) 
nan

>  <Standardized_SMILES>  (624) 
CCCNC(=O)c1csc2c(NC[C@@H](N)Cc3ccccc3)nc(-c3ccncc3)nc12

>  <Name>  (624) 
nan

>  <Pocket>  (624) 
nan

>  <ATP_Site>  (624) 
nan

>  <Peripheral>  (624) 
nan

>  <Num_H_Atoms_ProtBoundConf>  (624) 
nan

>  <Num_Resolved_Atoms>  (624) 
nan

>  <Num_Not_Resolved_Atoms>  (624) 
nan

$$$$
CHEMBL3730262
     RDKit          3D

  0  0  0  0  0  0  0  0  0  0999 V3000
M  V30 BEGIN CTAB
M  V30 COUNTS 56 60 0 0 0
M  V30 BEGIN ATOM
M  V30 1 N 4.012701 -3.869367 1.175527 0
M  V30 2 C 3.522261 -3.566577 -0.178771 0 CFG=2
M  V30 3 C 3.030908 -2.118162 0.018291 0
M  V30 4 N 2.400740 -1.512188 -1.117366 0
M  V30 5 C 1.439220 -0.496434 -0.608661 0
M  V30 6 N 1.311083 -0.290199 0.663201 0
M  V30 7 C 0.385968 0.600309 1.053721 0
M  V30 8 C 0.376151 0.759117 2.471026 0
M  V30 9 C -0.598272 1.675757 2.847373 0
M  V30 10 C -0.672411 1.907063 4.253910 0
M  V30 11 N 0.147644 1.268265 5.060249 0
M  V30 12 C 1.060582 0.406222 4.684334 0
M  V30 13 C 1.207301 0.120629 3.372466 0
M  V30 14 N -0.220233 1.093112 -0.004953 0
M  V30 15 C 0.019736 0.780935 -1.319050 0
M  V30 16 C -0.883786 1.576691 -2.038088 0
M  V30 17 C -1.959718 2.578230 -1.839134 0
M  V30 18 O -1.814448 3.686521 -2.419924 0
M  V30 19 N -3.001473 2.130284 -1.007152 0
M  V30 20 C -4.161264 2.950044 -0.658373 0
M  V30 21 C -4.421340 2.859625 0.873850 0
M  V30 22 C -5.376026 2.320643 -0.139036 0
M  V30 23 C -0.723216 1.344650 -3.385243 0
M  V30 24 S 0.609440 0.099363 -3.470240 0
M  V30 25 C 1.004459 -0.172398 -1.892849 0
M  V30 26 C 2.395263 -4.438922 -0.583387 0
M  V30 27 C 1.133333 -4.317974 0.130604 0
M  V30 28 C 0.599261 -4.716783 1.317616 0
M  V30 29 C -0.712536 -4.511223 1.796824 0
M  V30 30 C -1.433463 -3.822012 0.859125 0
M  V30 31 C -1.103731 -3.333936 -0.381301 0
M  V30 32 C 0.232676 -3.617824 -0.704836 0
M  V30 33 H 4.953249 -3.348818 1.170238 0
M  V30 34 H 4.219786 -4.904926 1.257631 0
M  V30 35 H 4.341519 -3.528791 -0.883200 0
M  V30 36 H 4.022351 -1.559318 0.120736 0
M  V30 37 H 2.546919 -1.990327 0.983851 0
M  V30 38 H 2.883216 -2.017414 -1.882511 0
M  V30 39 H -1.293582 2.227109 2.230752 0
M  V30 40 H -1.435686 2.634635 4.575781 0
M  V30 41 H 1.743335 -0.129016 5.390510 0
M  V30 42 H 1.926021 -0.569666 2.938640 0
M  V30 43 H -3.009986 1.185130 -0.582955 0
M  V30 44 H -4.161713 3.941727 -1.105279 0
M  V30 45 H -4.619516 3.784648 1.411265 0
M  V30 46 H -3.846735 2.089263 1.445870 0
M  V30 47 H -6.347380 2.880696 -0.190947 0
M  V30 48 H -5.510477 1.235954 -0.245714 0
M  V30 49 H -1.106182 1.648540 -4.370323 0
M  V30 50 H 2.762109 -5.510701 -0.376481 0
M  V30 51 H 2.299396 -4.471828 -1.713419 0
M  V30 52 H 1.351029 -5.252382 1.899748 0
M  V30 53 H -1.009000 -4.878682 2.752454 0
M  V30 54 H -2.482569 -3.619656 1.164246 0
M  V30 55 H -1.822383 -2.811503 -0.977990 0
M  V30 56 H 0.412977 -3.214001 -1.719810 0
M  V30 END ATOM
M  V30 BEGIN BOND
M  V30 1 1 1 2
M  V30 2 1 2 3
M  V30 3 1 3 4
M  V30 4 1 4 5
M  V30 5 2 5 6
M  V30 6 1 6 7
M  V30 7 1 7 8
M  V30 8 2 8 9
M  V30 9 1 9 10
M  V30 10 2 10 11
M  V30 11 1 11 12
M  V30 12 2 12 13
M  V30 13 2 7 14
M  V30 14 1 14 15
M  V30 15 1 15 16
M  V30 16 1 16 17
M  V30 17 2 17 18
M  V30 18 1 17 19
M  V30 19 1 19 20
M  V30 20 1 20 21
M  V30 21 1 21 22
M  V30 22 2 16 23
M  V30 23 1 23 24
M  V30 24 1 24 25
M  V30 25 1 2 26
M  V30 26 1 26 27
M  V30 27 2 27 28
M  V30 28 1 28 29
M  V30 29 2 29 30
M  V30 30 1 30 31
M  V30 31 2 31 32
M  V30 32 1 25 5
M  V30 33 1 32 27
M  V30 34 1 13 8
M  V30 35 2 25 15
M  V30 36 1 22 20
M  V30 37 1 1 33
M  V30 38 1 1 34
M  V30 39 1 2 35 CFG=3
M  V30 40 1 3 36
M  V30 41 1 3 37
M  V30 42 1 4 38
M  V30 43 1 9 39
M  V30 44 1 10 40
M  V30 45 1 12 41
M  V30 46 1 13 42
M  V30 47 1 19 43
M  V30 48 1 20 44
M  V30 49 1 21 45
M  V30 50 1 21 46
M  V30 51 1 22 47
M  V30 52 1 22 48
M  V30 53 1 23 49
M  V30 54 1 26 50
M  V30 55 1 26 51
M  V30 56 1 28 52
M  V30 57 1 29 53
M  V30 58 1 30 54
M  V30 59 1 31 55
M  V30 60 1 32 56
M  V30 END BOND
M  V30 END CTAB
M  END
>  <Dataset>  (625) 
ChEMBL_Kinases

>  <Ligand_Instance>  (625) 
nan

>  <PDB_ID>  (625) 
nan

>  <Standardized_SMILES>  (625) 
N[C@H](CNc1nc(-c2ccncc2)nc2c(C(=O)NC3CC3)csc12)Cc1ccccc1

>  <Name>  (625) 
nan

>  <Pocket>  (625) 
nan

>  <ATP_Site>  (625) 
nan

>  <Peripheral>  (625) 
nan

>  <Num_H_Atoms_ProtBoundConf>  (625) 
nan

>  <Num_Resolved_Atoms>  (625) 
nan

>  <Num_Not_Resolved_Atoms>  (625) 
nan

$$$$
CHEMBL3730471
     RDKit          3D

  0  0  0  0  0  0  0  0  0  0999 V3000
M  V30 BEGIN CTAB
M  V30 COUNTS 57 61 0 0 0
M  V30 BEGIN ATOM
M  V30 1 N -1.134251 1.514256 3.759094 0
M  V30 2 C -0.074490 1.985509 2.866235 0 CFG=2
M  V30 3 C 1.248877 1.392936 3.222041 0
M  V30 4 N 1.320288 -0.037728 3.165252 0
M  V30 5 C 1.095120 -0.721062 1.943739 0
M  V30 6 N 0.812310 -0.036130 0.806749 0
M  V30 7 C 0.623637 -0.832311 -0.287444 0
M  V30 8 C 0.311495 -0.162097 -1.564942 0
M  V30 9 C 0.103574 -0.844971 -2.719249 0
M  V30 10 C -0.186519 -0.164400 -3.891054 0
M  V30 11 N -0.261447 1.179179 -3.880056 0
M  V30 12 C -0.053959 1.872905 -2.724843 0
M  V30 13 C 0.236102 1.213623 -1.547475 0
M  V30 14 N 0.696552 -2.170038 -0.305343 0
M  V30 15 C 0.975918 -2.861892 0.813726 0
M  V30 16 C 1.077096 -4.219428 0.922430 0
M  V30 17 C 0.903165 -5.187114 -0.149376 0
M  V30 18 C 0.752998 -5.990072 -1.070534 0
M  V30 19 C 0.602336 -6.931823 -2.145398 0
M  V30 20 C -0.557452 -6.941957 -2.925168 0
M  V30 21 C -0.759431 -7.828121 -3.976539 0
M  V30 22 C 0.261203 -8.742213 -4.245872 0
M  V30 23 C 1.437465 -8.767206 -3.491538 0
M  V30 24 C 1.575188 -7.859176 -2.460153 0
M  V30 25 F 2.697001 -7.848919 -1.705444 0
M  V30 26 C 1.372747 -4.740562 2.163220 0
M  V30 27 S 1.514064 -3.184171 3.240006 0
M  V30 28 C 1.170138 -2.109182 1.922189 0
M  V30 29 C 0.021797 3.475245 3.114331 0
M  V30 30 C -1.223415 4.194344 2.828962 0
M  V30 31 C -2.215262 4.412423 3.763235 0
M  V30 32 C -3.372384 5.110057 3.401859 0
M  V30 33 C -3.500166 5.570373 2.106886 0
M  V30 34 C -2.533489 5.370435 1.155031 0
M  V30 35 C -1.405672 4.678891 1.545177 0
M  V30 36 H -1.036831 1.879717 4.718840 0
M  V30 37 H -1.240828 0.479764 3.708280 0
M  V30 38 H -0.358408 1.734530 1.848438 0
M  V30 39 H 1.997536 1.776440 2.472493 0
M  V30 40 H 1.616872 1.786309 4.196808 0
M  V30 41 H 1.540970 -0.551086 4.043562 0
M  V30 42 H 0.172656 -1.928309 -2.687645 0
M  V30 43 H -0.341609 -0.767043 -4.777109 0
M  V30 44 H -0.120996 2.951531 -2.748137 0
M  V30 45 H 0.385468 1.834736 -0.683186 0
M  V30 46 H -1.312194 -6.200176 -2.657851 0
M  V30 47 H -1.671143 -7.806296 -4.558689 0
M  V30 48 H 0.051521 -9.417206 -5.083741 0
M  V30 49 H 2.184198 -9.490000 -3.744504 0
M  V30 50 H 1.509141 -5.746147 2.530672 0
M  V30 51 H 0.828641 3.864186 2.476206 0
M  V30 52 H 0.252014 3.644827 4.186079 0
M  V30 53 H -2.089299 4.040863 4.770640 0
M  V30 54 H -4.124573 5.254163 4.180076 0
M  V30 55 H -4.413722 6.093710 1.911456 0
M  V30 56 H -2.656349 5.741942 0.142694 0
M  V30 57 H -0.642186 4.520192 0.795974 0
M  V30 END ATOM
M  V30 BEGIN BOND
M  V30 1 1 1 2
M  V30 2 1 2 3
M  V30 3 1 3 4
M  V30 4 1 4 5
M  V30 5 2 5 6
M  V30 6 1 6 7
M  V30 7 1 7 8
M  V30 8 2 8 9
M  V30 9 1 9 10
M  V30 10 2 10 11
M  V30 11 1 11 12
M  V30 12 2 12 13
M  V30 13 2 7 14
M  V30 14 1 14 15
M  V30 15 1 15 16
M  V30 16 1 16 17
M  V30 17 3 17 18
M  V30 18 1 18 19
M  V30 19 2 19 20
M  V30 20 1 20 21
M  V30 21 2 21 22
M  V30 22 1 22 23
M  V30 23 2 23 24
M  V30 24 1 24 25
M  V30 25 2 16 26
M  V30 26 1 26 27
M  V30 27 1 27 28
M  V30 28 1 2 29
M  V30 29 1 29 30
M  V30 30 2 30 31
M  V30 31 1 31 32
M  V30 32 2 32 33
M  V30 33 1 33 34
M  V30 34 2 34 35
M  V30 35 1 28 5
M  V30 36 1 35 30
M  V30 37 1 13 8
M  V30 38 2 28 15
M  V30 39 1 24 19
M  V30 40 1 1 36
M  V30 41 1 1 37
M  V30 42 1 2 38 CFG=3
M  V30 43 1 3 39
M  V30 44 1 3 40
M  V30 45 1 4 41
M  V30 46 1 9 42
M  V30 47 1 10 43
M  V30 48 1 12 44
M  V30 49 1 13 45
M  V30 50 1 20 46
M  V30 51 1 21 47
M  V30 52 1 22 48
M  V30 53 1 23 49
M  V30 54 1 26 50
M  V30 55 1 29 51
M  V30 56 1 29 52
M  V30 57 1 31 53
M  V30 58 1 32 54
M  V30 59 1 33 55
M  V30 60 1 34 56
M  V30 61 1 35 57
M  V30 END BOND
M  V30 END CTAB
M  END
>  <Dataset>  (626) 
ChEMBL_Kinases

>  <Ligand_Instance>  (626) 
nan

>  <PDB_ID>  (626) 
nan

>  <Standardized_SMILES>  (626) 
N[C@H](CNc1nc(-c2ccncc2)nc2c(C#Cc3ccccc3F)csc12)Cc1ccccc1

>  <Name>  (626) 
nan

>  <Pocket>  (626) 
nan

>  <ATP_Site>  (626) 
nan

>  <Peripheral>  (626) 
nan

>  <Num_H_Atoms_ProtBoundConf>  (626) 
nan

>  <Num_Resolved_Atoms>  (626) 
nan

>  <Num_Not_Resolved_Atoms>  (626) 
nan

$$$$
CHEMBL373046
     RDKit          3D

  0  0  0  0  0  0  0  0  0  0999 V3000
M  V30 BEGIN CTAB
M  V30 COUNTS 56 59 0 0 0
M  V30 BEGIN ATOM
M  V30 1 C -0.410766 -1.811925 3.600636 0
M  V30 2 C 0.992783 -1.352668 3.579340 0
M  V30 3 O 1.774656 -2.339190 3.757028 0
M  V30 4 O 1.378599 -0.016141 3.387022 0
M  V30 5 C 2.773404 0.317213 3.379172 0
M  V30 6 C 3.498872 -0.385804 2.275858 0
M  V30 7 N 3.025397 -0.069196 0.946099 0
M  V30 8 C 3.321058 1.237830 0.517513 0
M  V30 9 C 2.566512 1.671563 -0.703234 0
M  V30 10 C 2.102940 0.502157 -1.530889 0
M  V30 11 C 0.725998 0.052301 -1.197277 0
M  V30 12 C -0.153402 0.537287 -0.238436 0
M  V30 13 C -1.329943 -0.220542 -0.310001 0
M  V30 14 C -2.462779 0.062361 0.583157 0
M  V30 15 C -2.983013 1.341675 0.333932 0
M  V30 16 C -4.053085 1.813049 1.058794 0
M  V30 17 N -4.612786 1.068605 2.006247 0
M  V30 18 C -4.123474 -0.171120 2.261832 0
M  V30 19 C -3.057309 -0.689030 1.566626 0
M  V30 20 C -1.094836 -1.133480 -1.317455 0
M  V30 21 C -2.228637 -2.051501 -1.556998 0
M  V30 22 C -3.499112 -1.791068 -2.005474 0
M  V30 23 C -4.372843 -2.849383 -2.129374 0
M  V30 24 C -4.024251 -4.136234 -1.825030 0
M  V30 25 F -4.906556 -5.150947 -1.957706 0
M  V30 26 C -2.750519 -4.392074 -1.375859 0
M  V30 27 C -1.852071 -3.360797 -1.240208 0
M  V30 28 N 0.127847 -0.965051 -1.840480 0
M  V30 29 C 3.138094 -0.595333 -1.404495 0
M  V30 30 C 3.217461 -1.092496 0.001696 0
M  V30 31 H -1.134177 -0.976973 3.705725 0
M  V30 32 H -0.569470 -2.434488 2.692000 0
M  V30 33 H -0.560976 -2.466131 4.476065 0
M  V30 34 H 3.205633 -0.095911 4.339118 0
M  V30 35 H 2.926889 1.393834 3.440803 0
M  V30 36 H 4.600683 -0.137909 2.365323 0
M  V30 37 H 3.433703 -1.476051 2.442153 0
M  V30 38 H 3.175474 2.018060 1.316923 0
M  V30 39 H 4.401153 1.277421 0.244780 0
M  V30 40 H 1.671269 2.233512 -0.374448 0
M  V30 41 H 3.132960 2.380302 -1.341344 0
M  V30 42 H 2.162277 0.783974 -2.625706 0
M  V30 43 H 0.042648 1.360036 0.441929 0
M  V30 44 H -2.615641 2.043651 -0.408549 0
M  V30 45 H -4.484485 2.796024 0.891778 0
M  V30 46 H -4.544802 -0.812216 3.019454 0
M  V30 47 H -2.581106 -1.643591 1.669538 0
M  V30 48 H -3.649299 -0.747113 -2.209402 0
M  V30 49 H -5.355499 -2.582759 -2.487310 0
M  V30 50 H -2.504932 -5.440324 -1.140733 0
M  V30 51 H -0.868912 -3.691033 -0.873885 0
M  V30 52 H 0.406733 -1.605613 -2.612038 0
M  V30 53 H 2.915172 -1.409518 -2.135838 0
M  V30 54 H 4.110875 -0.097227 -1.681021 0
M  V30 55 H 2.386347 -1.854034 0.167162 0
M  V30 56 H 4.192748 -1.651851 0.178332 0
M  V30 END ATOM
M  V30 BEGIN BOND
M  V30 1 1 1 2
M  V30 2 2 2 3
M  V30 3 1 2 4
M  V30 4 1 4 5
M  V30 5 1 5 6
M  V30 6 1 6 7
M  V30 7 1 7 8
M  V30 8 1 8 9
M  V30 9 1 9 10
M  V30 10 1 10 11
M  V30 11 2 11 12
M  V30 12 1 12 13
M  V30 13 1 13 14
M  V30 14 2 14 15
M  V30 15 1 15 16
M  V30 16 2 16 17
M  V30 17 1 17 18
M  V30 18 2 18 19
M  V30 19 2 13 20
M  V30 20 1 20 21
M  V30 21 2 21 22
M  V30 22 1 22 23
M  V30 23 2 23 24
M  V30 24 1 24 25
M  V30 25 1 24 26
M  V30 26 2 26 27
M  V30 27 1 20 28
M  V30 28 1 10 29
M  V30 29 1 29 30
M  V30 30 1 30 7
M  V30 31 1 28 11
M  V30 32 1 19 14
M  V30 33 1 27 21
M  V30 34 1 1 31
M  V30 35 1 1 32
M  V30 36 1 1 33
M  V30 37 1 5 34
M  V30 38 1 5 35
M  V30 39 1 6 36
M  V30 40 1 6 37
M  V30 41 1 8 38
M  V30 42 1 8 39
M  V30 43 1 9 40
M  V30 44 1 9 41
M  V30 45 1 10 42
M  V30 46 1 12 43
M  V30 47 1 15 44
M  V30 48 1 16 45
M  V30 49 1 18 46
M  V30 50 1 19 47
M  V30 51 1 22 48
M  V30 52 1 23 49
M  V30 53 1 26 50
M  V30 54 1 27 51
M  V30 55 1 28 52
M  V30 56 1 29 53
M  V30 57 1 29 54
M  V30 58 1 30 55
M  V30 59 1 30 56
M  V30 END BOND
M  V30 END CTAB
M  END
>  <Dataset>  (627) 
ChEMBL_Kinases

>  <Ligand_Instance>  (627) 
nan

>  <PDB_ID>  (627) 
nan

>  <Standardized_SMILES>  (627) 
CC(=O)OCCN1CCC(c2cc(-c3ccncc3)c(-c3ccc(F)cc3)[nH]2)CC1

>  <Name>  (627) 
nan

>  <Pocket>  (627) 
nan

>  <ATP_Site>  (627) 
nan

>  <Peripheral>  (627) 
nan

>  <Num_H_Atoms_ProtBoundConf>  (627) 
nan

>  <Num_Resolved_Atoms>  (627) 
nan

>  <Num_Not_Resolved_Atoms>  (627) 
nan

$$$$
CHEMBL3704382
     RDKit          3D

  0  0  0  0  0  0  0  0  0  0999 V3000
M  V30 BEGIN CTAB
M  V30 COUNTS 75 81 0 0 0
M  V30 BEGIN ATOM
M  V30 1 O -2.015724 -0.550933 4.526395 0
M  V30 2 C -1.654607 -1.430892 3.706085 0
M  V30 3 N -1.811518 -1.315591 2.303849 0
M  V30 4 C -2.396681 -0.205965 1.539561 0
M  V30 5 N -1.764458 0.704432 1.146140 0
M  V30 6 C -2.198355 1.740975 0.454052 0
M  V30 7 C -3.601435 1.750056 0.152283 0
M  V30 8 S -4.150600 0.206716 0.930229 0
M  V30 9 C -4.049844 2.945453 -0.635782 0
M  V30 10 C -3.208837 2.976430 -1.896336 0 CFG=1
M  V30 11 N -3.499040 4.055541 -2.774912 0
M  V30 12 C -3.333995 5.353924 -2.262294 0
M  V30 13 C -2.367258 6.234535 -2.990337 0
M  V30 14 O -2.311502 6.006329 -4.348134 0
M  V30 15 C -1.965582 4.706093 -4.605309 0
M  V30 16 C -3.051091 3.811535 -4.098659 0
M  V30 17 C -1.734094 2.924993 -1.591837 0
M  V30 18 C -1.472500 2.946464 -0.090577 0
M  V30 19 C -1.035614 -2.646243 4.218619 0
M  V30 20 C -0.887815 -2.718766 5.598954 0
M  V30 21 C -0.302648 -3.841656 6.197303 0
M  V30 22 C 0.147005 -4.914220 5.433646 0
M  V30 23 C -0.006909 -4.827273 4.064745 0
M  V30 24 C 0.422621 -5.879197 3.076148 0 CFG=1
M  V30 25 C -0.738805 -6.606150 2.465404 0
M  V30 26 C -0.404177 -6.722436 0.995025 0
M  V30 27 C 0.714864 -5.769539 0.700841 0
M  V30 28 N 1.066780 -5.162939 1.967105 0
M  V30 29 C 1.899552 -4.035000 2.192889 0
M  V30 30 O 2.163632 -3.564836 3.345534 0
M  V30 31 C 2.546098 -3.287626 1.123846 0
M  V30 32 C 3.850888 -2.995560 0.809584 0
M  V30 33 C 3.793521 -2.237863 -0.338323 0
M  V30 34 C 4.960577 -1.704206 -1.025438 0
M  V30 35 C 4.706952 -0.953730 -2.175503 0
M  V30 36 C 5.763712 -0.406887 -2.894252 0
M  V30 37 N 6.988676 -0.632828 -2.436984 0
M  V30 38 C 7.229029 -1.359169 -1.323717 0
M  V30 39 C 6.235931 -1.925990 -0.569934 0
M  V30 40 N 2.514407 -2.069330 -0.716387 0
M  V30 41 N 1.780548 -2.709862 0.178239 0
M  V30 42 C -0.586945 -3.710037 3.499117 0
M  V30 43 H -1.546182 -1.984727 1.581041 0
M  V30 44 H -5.086711 2.728211 -0.942333 0
M  V30 45 H -3.938096 3.815478 0.008359 0
M  V30 46 H -3.470705 2.024092 -2.444214 0
M  V30 47 H -3.048600 5.361412 -1.189215 0
M  V30 48 H -4.326590 5.869447 -2.308008 0
M  V30 49 H -2.680533 7.309665 -2.877642 0
M  V30 50 H -1.328500 6.195877 -2.604080 0
M  V30 51 H -1.972400 4.595471 -5.727835 0
M  V30 52 H -0.940319 4.413183 -4.304240 0
M  V30 53 H -2.649648 2.757664 -4.146137 0
M  V30 54 H -3.903167 3.806545 -4.804023 0
M  V30 55 H -1.176780 3.796997 -2.001099 0
M  V30 56 H -1.253097 2.024494 -2.041701 0
M  V30 57 H -0.396384 2.863801 0.061684 0
M  V30 58 H -1.915878 3.874924 0.309160 0
M  V30 59 H -1.191132 -1.963256 6.299797 0
M  V30 60 H -0.180102 -3.912801 7.270373 0
M  V30 61 H 0.602762 -5.803952 5.814066 0
M  V30 62 H 1.173864 -6.535268 3.540990 0
M  V30 63 H -1.714559 -6.134741 2.645998 0
M  V30 64 H -0.803792 -7.632637 2.880613 0
M  V30 65 H -0.033925 -7.755245 0.747063 0
M  V30 66 H -1.311206 -6.580924 0.391322 0
M  V30 67 H 1.607999 -6.267883 0.268192 0
M  V30 68 H 0.403815 -4.996789 -0.056185 0
M  V30 69 H 4.671068 -3.346920 1.416963 0
M  V30 70 H 3.704906 -0.774736 -2.540338 0
M  V30 71 H 5.542759 0.168397 -3.780586 0
M  V30 72 H 8.269676 -1.480463 -1.040597 0
M  V30 73 H 6.419711 -2.513428 0.327772 0
M  V30 74 H 2.109265 -1.557125 -1.529027 0
M  V30 75 H -0.716165 -3.624631 2.423840 0
M  V30 END ATOM
M  V30 BEGIN BOND
M  V30 1 2 1 2
M  V30 2 1 2 3
M  V30 3 1 3 4
M  V30 4 2 4 5
M  V30 5 1 5 6
M  V30 6 2 6 7
M  V30 7 1 7 8
M  V30 8 1 7 9
M  V30 9 1 9 10
M  V30 10 1 10 11
M  V30 11 1 11 12
M  V30 12 1 12 13
M  V30 13 1 13 14
M  V30 14 1 14 15
M  V30 15 1 15 16
M  V30 16 1 10 17
M  V30 17 1 17 18
M  V30 18 1 2 19
M  V30 19 2 19 20
M  V30 20 1 20 21
M  V30 21 2 21 22
M  V30 22 1 22 23
M  V30 23 1 23 24
M  V30 24 1 24 25
M  V30 25 1 25 26
M  V30 26 1 26 27
M  V30 27 1 27 28
M  V30 28 1 28 29
M  V30 29 2 29 30
M  V30 30 1 29 31
M  V30 31 1 31 32
M  V30 32 2 32 33
M  V30 33 1 33 34
M  V30 34 2 34 35
M  V30 35 1 35 36
M  V30 36 2 36 37
M  V30 37 1 37 38
M  V30 38 2 38 39
M  V30 39 1 33 40
M  V30 40 1 40 41
M  V30 41 2 23 42
M  V30 42 1 8 4
M  V30 43 1 16 11
M  V30 44 1 42 19
M  V30 45 1 18 6
M  V30 46 1 28 24
M  V30 47 2 41 31
M  V30 48 1 39 34
M  V30 49 1 3 43
M  V30 50 1 9 44
M  V30 51 1 9 45
M  V30 52 1 10 46 CFG=3
M  V30 53 1 12 47
M  V30 54 1 12 48
M  V30 55 1 13 49
M  V30 56 1 13 50
M  V30 57 1 15 51
M  V30 58 1 15 52
M  V30 59 1 16 53
M  V30 60 1 16 54
M  V30 61 1 17 55
M  V30 62 1 17 56
M  V30 63 1 18 57
M  V30 64 1 18 58
M  V30 65 1 20 59
M  V30 66 1 21 60
M  V30 67 1 22 61
M  V30 68 1 24 62 CFG=1
M  V30 69 1 25 63
M  V30 70 1 25 64
M  V30 71 1 26 65
M  V30 72 1 26 66
M  V30 73 1 27 67
M  V30 74 1 27 68
M  V30 75 1 32 69
M  V30 76 1 35 70
M  V30 77 1 36 71
M  V30 78 1 38 72
M  V30 79 1 39 73
M  V30 80 1 40 74
M  V30 81 1 42 75
M  V30 END BOND
M  V30 END CTAB
M  END
>  <Dataset>  (628) 
ChEMBL_Kinases

>  <Ligand_Instance>  (628) 
nan

>  <PDB_ID>  (628) 
nan

>  <Standardized_SMILES>  (628) 
O=C(Nc1nc2c(s1)C[C@@H](N1CCOCC1)CC2)c1cccc([C@H]2CCCN2C(=O)c2cc(-c3ccncc3)[nH]n2)c1

>  <Name>  (628) 
nan

>  <Pocket>  (628) 
nan

>  <ATP_Site>  (628) 
nan

>  <Peripheral>  (628) 
nan

>  <Num_H_Atoms_ProtBoundConf>  (628) 
nan

>  <Num_Resolved_Atoms>  (628) 
nan

>  <Num_Not_Resolved_Atoms>  (628) 
nan

$$$$
CHEMBL3704383
     RDKit          3D

  0  0  0  0  0  0  0  0  0  0999 V3000
M  V30 BEGIN CTAB
M  V30 COUNTS 76 82 0 0 0
M  V30 BEGIN ATOM
M  V30 1 O -1.723725 -1.268089 2.000572 0
M  V30 2 C -2.046779 -1.726860 3.148289 0
M  V30 3 N -2.697805 -0.718326 3.919486 0
M  V30 4 C -2.699752 0.434059 2.971060 0
M  V30 5 N -1.963968 1.246513 2.629166 0
M  V30 6 C -2.162225 2.202197 1.753603 0
M  V30 7 C -3.450928 2.233467 1.156648 0
M  V30 8 S -4.241465 0.867389 1.931507 0
M  V30 9 C -3.655738 3.353061 0.128317 0
M  V30 10 C -2.584387 3.070202 -0.924765 0 CFG=1
M  V30 11 N -2.699132 3.814959 -2.104741 0
M  V30 12 C -2.592682 5.208706 -2.058538 0
M  V30 13 C -2.124940 5.849014 -3.345959 0
M  V30 14 O -2.757398 5.134238 -4.383580 0
M  V30 15 C -2.084520 3.927880 -4.480115 0
M  V30 16 C -2.265481 3.099287 -3.235824 0
M  V30 17 C -1.203746 3.053048 -0.285620 0
M  V30 18 C -1.284343 3.287984 1.232132 0
M  V30 19 C -1.777896 -3.108415 3.612668 0
M  V30 20 C -2.346743 -3.761046 4.660326 0
M  V30 21 C -1.908390 -5.059000 4.923579 0
M  V30 22 C -0.936347 -5.640064 4.143241 0
M  V30 23 C -0.343097 -4.998991 3.075644 0
M  V30 24 C 0.717392 -5.586360 2.198020 0 CFG=1
M  V30 25 C 0.250238 -6.908897 1.617300 0
M  V30 26 C -0.141461 -6.636617 0.183861 0
M  V30 27 C 0.064647 -5.173969 -0.028108 0
M  V30 28 N 0.943060 -4.725602 1.035844 0
M  V30 29 C 1.930325 -3.679521 1.202168 0
M  V30 30 O 2.621072 -3.436088 2.240840 0
M  V30 31 C 2.352616 -2.675950 0.226901 0
M  V30 32 C 1.375626 -1.943108 -0.461601 0
M  V30 33 C 1.791028 -0.983303 -1.374859 0
M  V30 34 C 3.116069 -0.716892 -1.635046 0
M  V30 35 C 4.075954 -1.420922 -0.972819 0
M  V30 36 C 5.519444 -1.289986 -1.084137 0
M  V30 37 C 6.522381 -2.247328 -0.942616 0
M  V30 38 N 7.728973 -1.693553 -1.117645 0
M  V30 39 N 7.568186 -0.405035 -1.369537 0
M  V30 40 C 6.270791 -0.140729 -1.355944 0
M  V30 41 C 3.655388 -2.363249 -0.076638 0
M  V30 42 C -0.786737 -3.716712 2.825709 0
M  V30 43 H -3.013950 -0.910560 4.867486 0
M  V30 44 H -3.528391 4.292358 0.653232 0
M  V30 45 H -4.623767 3.165431 -0.345002 0
M  V30 46 H -2.791132 1.989560 -1.203528 0
M  V30 47 H -1.869251 5.528437 -1.284459 0
M  V30 48 H -3.570575 5.705850 -1.782327 0
M  V30 49 H -2.496119 6.894968 -3.364495 0
M  V30 50 H -1.035569 5.773720 -3.462643 0
M  V30 51 H -1.002124 4.104464 -4.646215 0
M  V30 52 H -2.468995 3.385394 -5.371534 0
M  V30 53 H -3.060117 2.330037 -3.476884 0
M  V30 54 H -1.331974 2.520560 -3.082363 0
M  V30 55 H -0.707660 2.055658 -0.364578 0
M  V30 56 H -0.492480 3.756033 -0.765373 0
M  V30 57 H -1.692452 4.262785 1.494080 0
M  V30 58 H -0.243418 3.187602 1.597857 0
M  V30 59 H -3.099497 -3.212435 5.207136 0
M  V30 60 H -2.372680 -5.569509 5.762643 0
M  V30 61 H -0.593127 -6.666362 4.353825 0
M  V30 62 H 1.667997 -5.767129 2.730908 0
M  V30 63 H 1.055207 -7.656663 1.627562 0
M  V30 64 H -0.604033 -7.296021 2.215285 0
M  V30 65 H 0.451659 -7.238612 -0.548672 0
M  V30 66 H -1.209434 -6.888922 0.032229 0
M  V30 67 H 0.444953 -4.903766 -1.029699 0
M  V30 68 H -0.913973 -4.659896 0.160712 0
M  V30 69 H 0.316844 -2.091746 -0.310566 0
M  V30 70 H 1.035892 -0.400197 -1.924508 0
M  V30 71 H 3.475465 0.029420 -2.344021 0
M  V30 72 H 6.266884 -3.288763 -0.718067 0
M  V30 73 H 8.397694 0.209744 -1.535986 0
M  V30 74 H 5.798293 0.816088 -1.523168 0
M  V30 75 H 4.344036 -2.986901 0.510249 0
M  V30 76 H -0.325111 -3.207847 1.979545 0
M  V30 END ATOM
M  V30 BEGIN BOND
M  V30 1 2 1 2
M  V30 2 1 2 3
M  V30 3 1 3 4
M  V30 4 2 4 5
M  V30 5 1 5 6
M  V30 6 2 6 7
M  V30 7 1 7 8
M  V30 8 1 7 9
M  V30 9 1 9 10
M  V30 10 1 10 11
M  V30 11 1 11 12
M  V30 12 1 12 13
M  V30 13 1 13 14
M  V30 14 1 14 15
M  V30 15 1 15 16
M  V30 16 1 10 17
M  V30 17 1 17 18
M  V30 18 1 2 19
M  V30 19 2 19 20
M  V30 20 1 20 21
M  V30 21 2 21 22
M  V30 22 1 22 23
M  V30 23 1 23 24
M  V30 24 1 24 25
M  V30 25 1 25 26
M  V30 26 1 26 27
M  V30 27 1 27 28
M  V30 28 1 28 29
M  V30 29 2 29 30
M  V30 30 1 29 31
M  V30 31 2 31 32
M  V30 32 1 32 33
M  V30 33 2 33 34
M  V30 34 1 34 35
M  V30 35 1 35 36
M  V30 36 1 36 37
M  V30 37 2 37 38
M  V30 38 1 38 39
M  V30 39 1 39 40
M  V30 40 2 35 41
M  V30 41 2 23 42
M  V30 42 1 8 4
M  V30 43 1 16 11
M  V30 44 1 42 19
M  V30 45 1 18 6
M  V30 46 1 28 24
M  V30 47 1 41 31
M  V30 48 2 40 36
M  V30 49 1 3 43
M  V30 50 1 9 44
M  V30 51 1 9 45
M  V30 52 1 10 46 CFG=3
M  V30 53 1 12 47
M  V30 54 1 12 48
M  V30 55 1 13 49
M  V30 56 1 13 50
M  V30 57 1 15 51
M  V30 58 1 15 52
M  V30 59 1 16 53
M  V30 60 1 16 54
M  V30 61 1 17 55
M  V30 62 1 17 56
M  V30 63 1 18 57
M  V30 64 1 18 58
M  V30 65 1 20 59
M  V30 66 1 21 60
M  V30 67 1 22 61
M  V30 68 1 24 62 CFG=1
M  V30 69 1 25 63
M  V30 70 1 25 64
M  V30 71 1 26 65
M  V30 72 1 26 66
M  V30 73 1 27 67
M  V30 74 1 27 68
M  V30 75 1 32 69
M  V30 76 1 33 70
M  V30 77 1 34 71
M  V30 78 1 37 72
M  V30 79 1 39 73
M  V30 80 1 40 74
M  V30 81 1 41 75
M  V30 82 1 42 76
M  V30 END BOND
M  V30 END CTAB
M  END
>  <Dataset>  (629) 
ChEMBL_Kinases

>  <Ligand_Instance>  (629) 
nan

>  <PDB_ID>  (629) 
nan

>  <Standardized_SMILES>  (629) 
O=C(Nc1nc2c(s1)C[C@@H](N1CCOCC1)CC2)c1cccc([C@H]2CCCN2C(=O)c2cccc(-c3cn[nH]c3)c2)c1

>  <Name>  (629) 
nan

>  <Pocket>  (629) 
nan

>  <ATP_Site>  (629) 
nan

>  <Peripheral>  (629) 
nan

>  <Num_H_Atoms_ProtBoundConf>  (629) 
nan

>  <Num_Resolved_Atoms>  (629) 
nan

>  <Num_Not_Resolved_Atoms>  (629) 
nan

$$$$
CHEMBL3730458
     RDKit          3D

  0  0  0  0  0  0  0  0  0  0999 V3000
M  V30 BEGIN CTAB
M  V30 COUNTS 34 35 0 0 0
M  V30 BEGIN ATOM
M  V30 1 N 5.399810 -3.191607 5.710679 0
M  V30 2 C 5.115408 -2.746266 4.695156 0
M  V30 3 C 4.739489 -2.166280 3.420930 0
M  V30 4 C 5.748002 -1.879646 2.538385 0
M  V30 5 C 5.378124 -1.329520 1.332644 0
M  V30 6 C 4.062963 -1.044320 0.944954 0
M  V30 7 C 3.065122 -1.352619 1.875420 0
M  V30 8 N 1.694095 -1.088667 1.549134 0
M  V30 9 C 1.479574 -0.504342 0.238323 0
M  V30 10 C 0.039974 -0.227377 -0.024056 0
M  V30 11 O -0.071241 0.278133 -1.190759 0
M  V30 12 N -1.169236 -0.412390 0.746098 0
M  V30 13 N -2.179984 0.071815 -0.122625 0
M  V30 14 C -3.429356 -0.095723 0.078879 0
M  V30 15 C -4.420954 0.425994 -0.850505 0
M  V30 16 C -5.786794 0.288165 -0.706314 0
M  V30 17 C -6.625746 0.833795 -1.663447 0
M  V30 18 N -6.197059 1.502312 -2.745154 0
M  V30 19 C -4.844892 1.651389 -2.908770 0
M  V30 20 C -3.993666 1.114025 -1.965055 0
M  V30 21 C 3.440590 -1.906925 3.089961 0
M  V30 22 H 6.779534 -2.069874 2.764103 0
M  V30 23 H 6.123838 -1.077109 0.585039 0
M  V30 24 H 3.859111 -0.613649 -0.018283 0
M  V30 25 H 0.986680 -1.338295 2.276554 0
M  V30 26 H 1.783531 -1.302790 -0.493403 0
M  V30 27 H 2.092522 0.397075 0.038663 0
M  V30 28 H -0.888462 -0.830123 1.670120 0
M  V30 29 H -3.633145 -0.645360 0.980843 0
M  V30 30 H -6.151845 -0.250417 0.162356 0
M  V30 31 H -7.700729 0.685202 -1.483622 0
M  V30 32 H -4.470003 2.193453 -3.783605 0
M  V30 33 H -2.920863 1.243220 -2.111722 0
M  V30 34 H 2.694001 -2.154765 3.827320 0
M  V30 END ATOM
M  V30 BEGIN BOND
M  V30 1 3 1 2
M  V30 2 1 2 3
M  V30 3 2 3 4
M  V30 4 1 4 5
M  V30 5 2 5 6
M  V30 6 1 6 7
M  V30 7 1 7 8
M  V30 8 1 8 9
M  V30 9 1 9 10
M  V30 10 2 10 11
M  V30 11 1 10 12
M  V30 12 1 12 13
M  V30 13 2 13 14
M  V30 14 1 14 15
M  V30 15 2 15 16
M  V30 16 1 16 17
M  V30 17 2 17 18
M  V30 18 1 18 19
M  V30 19 2 19 20
M  V30 20 2 7 21
M  V30 21 1 21 3
M  V30 22 1 20 15
M  V30 23 1 4 22
M  V30 24 1 5 23
M  V30 25 1 6 24
M  V30 26 1 8 25
M  V30 27 1 9 26
M  V30 28 1 9 27
M  V30 29 1 12 28
M  V30 30 1 14 29
M  V30 31 1 16 30
M  V30 32 1 17 31
M  V30 33 1 19 32
M  V30 34 1 20 33
M  V30 35 1 21 34
M  V30 END BOND
M  V30 END CTAB
M  END
>  <Dataset>  (630) 
ChEMBL_Kinases

>  <Ligand_Instance>  (630) 
nan

>  <PDB_ID>  (630) 
nan

>  <Standardized_SMILES>  (630) 
N#Cc1cccc(NCC(=O)N/N=C/c2ccncc2)c1

>  <Name>  (630) 
nan

>  <Pocket>  (630) 
nan

>  <ATP_Site>  (630) 
nan

>  <Peripheral>  (630) 
nan

>  <Num_H_Atoms_ProtBoundConf>  (630) 
nan

>  <Num_Resolved_Atoms>  (630) 
nan

>  <Num_Not_Resolved_Atoms>  (630) 
nan

$$$$
CHEMBL3704384
     RDKit          3D

  0  0  0  0  0  0  0  0  0  0999 V3000
M  V30 BEGIN CTAB
M  V30 COUNTS 66 69 0 0 0
M  V30 BEGIN ATOM
M  V30 1 C 6.075376 -0.369279 4.449740 0
M  V30 2 O 4.835909 0.280864 4.337732 0
M  V30 3 C 4.322669 0.748622 3.154205 0
M  V30 4 C 4.860942 0.684941 1.880421 0
M  V30 5 C 4.227469 1.203167 0.771439 0
M  V30 6 C 3.003144 1.823050 0.875615 0
M  V30 7 C 2.355390 2.346714 -0.304781 0
M  V30 8 O 2.784371 2.195951 -1.451965 0
M  V30 9 N 1.160271 3.085177 -0.237597 0
M  V30 10 C 0.334723 3.696953 -1.256798 0 CFG=2
M  V30 11 C 0.164081 5.179891 -1.052488 0
M  V30 12 C -1.010512 3.074968 -1.113053 0
M  V30 13 C -2.163354 3.829668 -1.117440 0
M  V30 14 C -3.386337 3.228259 -0.972083 0
M  V30 15 C -3.555958 1.888656 -0.817712 0
M  V30 16 C -2.401665 1.095962 -0.809628 0
M  V30 17 C -2.371542 -0.375682 -0.645789 0
M  V30 18 O -1.338784 -1.089830 -0.728373 0
M  V30 19 N -3.545475 -1.128614 -0.369403 0
M  V30 20 C -3.236354 -2.509276 -0.251670 0
M  V30 21 C -2.924768 -2.829444 1.044345 0
M  V30 22 C -2.583030 -4.129707 1.427339 0
M  V30 23 C -2.561060 -5.123993 0.454505 0
M  V30 24 C -2.883201 -4.740826 -0.829611 0
M  V30 25 C -3.221652 -3.469721 -1.227301 0
M  V30 26 C -2.849142 -5.822338 -1.840362 0
M  V30 27 N -1.685398 -6.666062 -1.689338 0
M  V30 28 C -0.486220 -6.097847 -2.266907 0
M  V30 29 C -1.490112 -7.205496 -0.386285 0
M  V30 30 C -2.215374 -6.541633 0.729010 0
M  V30 31 C -1.175661 1.704775 -0.955909 0
M  V30 32 C 2.444381 1.900639 2.133383 0
M  V30 33 C 3.079949 1.380692 3.245083 0
M  V30 34 O 2.445388 1.498045 4.497675 0
M  V30 35 C 1.185781 2.135812 4.594942 0
M  V30 36 H 6.021409 -1.168452 5.232546 0
M  V30 37 H 6.422499 -0.861657 3.524294 0
M  V30 38 H 6.863286 0.323409 4.812371 0
M  V30 39 H 5.820747 0.192282 1.832075 0
M  V30 40 H 4.701618 1.119085 -0.192626 0
M  V30 41 H 0.685267 3.296986 0.691440 0
M  V30 42 H 0.676198 3.510119 -2.290728 0
M  V30 43 H 1.111393 5.739656 -0.961127 0
M  V30 44 H -0.327146 5.577598 -1.964398 0
M  V30 45 H -0.442164 5.397771 -0.168473 0
M  V30 46 H -2.105906 4.899237 -1.235873 0
M  V30 47 H -4.305578 3.820799 -0.974553 0
M  V30 48 H -4.491470 1.361248 -0.699611 0
M  V30 49 H -4.472954 -0.634428 -0.285289 0
M  V30 50 H -2.898579 -2.162434 1.911064 0
M  V30 51 H -2.327955 -4.432313 2.447762 0
M  V30 52 H -3.472178 -3.148710 -2.207315 0
M  V30 53 H -2.824649 -5.393111 -2.843615 0
M  V30 54 H -3.748317 -6.485557 -1.765918 0
M  V30 55 H -0.818205 -5.382664 -3.072699 0
M  V30 56 H 0.051174 -6.944571 -2.744874 0
M  V30 57 H 0.191368 -5.625749 -1.547493 0
M  V30 58 H -0.389160 -7.133206 -0.167986 0
M  V30 59 H -1.716600 -8.306509 -0.358503 0
M  V30 60 H -1.614099 -6.513335 1.682444 0
M  V30 61 H -3.143139 -7.121178 0.948548 0
M  V30 62 H -0.247011 1.141887 -0.956888 0
M  V30 63 H 1.493427 2.369165 2.289282 0
M  V30 64 H 1.341561 3.163299 4.158722 0
M  V30 65 H 0.459232 1.641315 3.930975 0
M  V30 66 H 0.868468 2.302658 5.622742 0
M  V30 END ATOM
M  V30 BEGIN BOND
M  V30 1 1 1 2
M  V30 2 1 2 3
M  V30 3 2 3 4
M  V30 4 1 4 5
M  V30 5 2 5 6
M  V30 6 1 6 7
M  V30 7 2 7 8
M  V30 8 1 7 9
M  V30 9 1 9 10
M  V30 10 1 10 11
M  V30 11 1 10 12
M  V30 12 2 12 13
M  V30 13 1 13 14
M  V30 14 2 14 15
M  V30 15 1 15 16
M  V30 16 1 16 17
M  V30 17 2 17 18
M  V30 18 1 17 19
M  V30 19 1 19 20
M  V30 20 2 20 21
M  V30 21 1 21 22
M  V30 22 2 22 23
M  V30 23 1 23 24
M  V30 24 2 24 25
M  V30 25 1 24 26
M  V30 26 1 26 27
M  V30 27 1 27 28
M  V30 28 1 27 29
M  V30 29 1 29 30
M  V30 30 2 16 31
M  V30 31 1 6 32
M  V30 32 2 32 33
M  V30 33 1 33 34
M  V30 34 1 34 35
M  V30 35 1 33 3
M  V30 36 1 31 12
M  V30 37 1 25 20
M  V30 38 1 30 23
M  V30 39 1 1 36
M  V30 40 1 1 37
M  V30 41 1 1 38
M  V30 42 1 4 39
M  V30 43 1 5 40
M  V30 44 1 9 41
M  V30 45 1 10 42 CFG=3
M  V30 46 1 11 43
M  V30 47 1 11 44
M  V30 48 1 11 45
M  V30 49 1 13 46
M  V30 50 1 14 47
M  V30 51 1 15 48
M  V30 52 1 19 49
M  V30 53 1 21 50
M  V30 54 1 22 51
M  V30 55 1 25 52
M  V30 56 1 26 53
M  V30 57 1 26 54
M  V30 58 1 28 55
M  V30 59 1 28 56
M  V30 60 1 28 57
M  V30 61 1 29 58
M  V30 62 1 29 59
M  V30 63 1 30 60
M  V30 64 1 30 61
M  V30 65 1 31 62
M  V30 66 1 32 63
M  V30 67 1 35 64
M  V30 68 1 35 65
M  V30 69 1 35 66
M  V30 END BOND
M  V30 END CTAB
M  END
>  <Dataset>  (631) 
ChEMBL_Kinases

>  <Ligand_Instance>  (631) 
nan

>  <PDB_ID>  (631) 
nan

>  <Standardized_SMILES>  (631) 
COc1ccc(C(=O)N[C@H](C)c2cccc(C(=O)Nc3ccc4c(c3)CN(C)CC4)c2)cc1OC

>  <Name>  (631) 
nan

>  <Pocket>  (631) 
nan

>  <ATP_Site>  (631) 
nan

>  <Peripheral>  (631) 
nan

>  <Num_H_Atoms_ProtBoundConf>  (631) 
nan

>  <Num_Resolved_Atoms>  (631) 
nan

>  <Num_Not_Resolved_Atoms>  (631) 
nan

$$$$
CHEMBL3730446
     RDKit          3D

  0  0  0  0  0  0  0  0  0  0999 V3000
M  V30 BEGIN CTAB
M  V30 COUNTS 47 51 0 0 0
M  V30 BEGIN ATOM
M  V30 1 C -1.703208 -2.954646 5.416944 0
M  V30 2 C -0.662163 -3.609526 4.565795 0
M  V30 3 C 0.054684 -2.963058 3.560450 0
M  V30 4 C 0.924765 -3.866987 2.985318 0
M  V30 5 N 1.849722 -3.652829 1.924956 0
M  V30 6 C 1.935705 -2.361822 1.340441 0
M  V30 7 C 3.210015 -1.798107 1.458753 0
M  V30 8 S 3.034276 -0.113050 0.608208 0
M  V30 9 C 1.378571 -0.342813 0.216923 0
M  V30 10 C 0.426165 0.411121 -0.440414 0
M  V30 11 N 0.756288 1.694849 -0.920795 0
M  V30 12 C 1.863324 2.579139 -0.892784 0 CFG=2
M  V30 13 C 2.115257 3.269092 0.426421 0
M  V30 14 C 3.251517 4.203159 -0.021412 0
M  V30 15 N 2.850789 4.639370 -1.347313 0
M  V30 16 C 1.837690 3.736328 -1.827982 0
M  V30 17 N -0.854520 -0.031961 -0.631678 0
M  V30 18 C -1.134402 -1.250516 -0.139269 0
M  V30 19 C -2.516383 -1.745171 -0.337637 0
M  V30 20 C -3.391290 -0.916314 -1.007090 0
M  V30 21 C -4.695568 -1.381895 -1.194915 0
M  V30 22 N -5.067101 -2.603868 -0.729633 0
M  V30 23 C -4.189361 -3.386430 -0.081337 0
M  V30 24 C -2.894401 -2.985787 0.134486 0
M  V30 25 F -1.989043 -3.753774 0.784515 0
M  V30 26 N -0.247142 -2.016767 0.504161 0
M  V30 27 C 1.030972 -1.573386 0.693841 0
M  V30 28 N 0.693733 -5.005457 3.664678 0
M  V30 29 O -0.212060 -4.852578 4.564526 0
M  V30 30 H -1.249758 -2.316766 6.200970 0
M  V30 31 H -2.357754 -2.315829 4.788134 0
M  V30 32 H -2.357046 -3.760262 5.824691 0
M  V30 33 H -0.070737 -1.926181 3.297015 0
M  V30 34 H 2.435060 -4.440169 1.605938 0
M  V30 35 H 4.178963 -2.144093 1.915240 0
M  V30 36 H -0.007264 2.194006 -1.469399 0
M  V30 37 H 2.816023 2.008748 -1.098604 0
M  V30 38 H 2.369536 2.640127 1.262008 0
M  V30 39 H 1.256969 3.964840 0.676386 0
M  V30 40 H 4.151465 3.550643 -0.111251 0
M  V30 41 H 3.429067 5.022748 0.676516 0
M  V30 42 H 2.483288 5.616327 -1.239047 0
M  V30 43 H 0.856501 4.271144 -1.793907 0
M  V30 44 H 2.041049 3.388324 -2.871937 0
M  V30 45 H -3.126758 0.054252 -1.386238 0
M  V30 46 H -5.415102 -0.744921 -1.724199 0
M  V30 47 H -4.500245 -4.373523 0.291123 0
M  V30 END ATOM
M  V30 BEGIN BOND
M  V30 1 1 1 2
M  V30 2 2 2 3
M  V30 3 1 3 4
M  V30 4 1 4 5
M  V30 5 1 5 6
M  V30 6 2 6 7
M  V30 7 1 7 8
M  V30 8 1 8 9
M  V30 9 2 9 10
M  V30 10 1 10 11
M  V30 11 1 11 12
M  V30 12 1 12 13
M  V30 13 1 13 14
M  V30 14 1 14 15
M  V30 15 1 15 16
M  V30 16 1 10 17
M  V30 17 2 17 18
M  V30 18 1 18 19
M  V30 19 2 19 20
M  V30 20 1 20 21
M  V30 21 2 21 22
M  V30 22 1 22 23
M  V30 23 2 23 24
M  V30 24 1 24 25
M  V30 25 1 18 26
M  V30 26 2 26 27
M  V30 27 2 4 28
M  V30 28 1 28 29
M  V30 29 1 29 2
M  V30 30 1 27 6
M  V30 31 1 27 9
M  V30 32 1 16 12
M  V30 33 1 24 19
M  V30 34 1 1 30
M  V30 35 1 1 31
M  V30 36 1 1 32
M  V30 37 1 3 33
M  V30 38 1 5 34
M  V30 39 1 7 35
M  V30 40 1 11 36
M  V30 41 1 12 37 CFG=3
M  V30 42 1 13 38
M  V30 43 1 13 39
M  V30 44 1 14 40
M  V30 45 1 14 41
M  V30 46 1 15 42
M  V30 47 1 16 43
M  V30 48 1 16 44
M  V30 49 1 20 45
M  V30 50 1 21 46
M  V30 51 1 23 47
M  V30 END BOND
M  V30 END CTAB
M  END
>  <Dataset>  (632) 
ChEMBL_Kinases

>  <Ligand_Instance>  (632) 
nan

>  <PDB_ID>  (632) 
nan

>  <Standardized_SMILES>  (632) 
Cc1cc(Nc2csc3c(N[C@@H]4CCNC4)nc(-c4ccncc4F)nc23)no1

>  <Name>  (632) 
nan

>  <Pocket>  (632) 
nan

>  <ATP_Site>  (632) 
nan

>  <Peripheral>  (632) 
nan

>  <Num_H_Atoms_ProtBoundConf>  (632) 
nan

>  <Num_Resolved_Atoms>  (632) 
nan

>  <Num_Not_Resolved_Atoms>  (632) 
nan

$$$$
CHEMBL3730443
     RDKit          3D

  0  0  0  0  0  0  0  0  0  0999 V3000
M  V30 BEGIN CTAB
M  V30 COUNTS 48 51 0 0 0
M  V30 BEGIN ATOM
M  V30 1 C 3.495355 -4.363570 1.839516 0
M  V30 2 N 2.573037 -3.222475 1.922200 0
M  V30 3 C 1.266292 -3.736456 2.034205 0
M  V30 4 C 2.919118 -2.334561 0.891385 0
M  V30 5 C 2.191844 -1.070479 0.715257 0
M  V30 6 N 0.796915 -1.136761 0.416021 0
M  V30 7 C 0.013336 0.068297 0.356006 0
M  V30 8 N 0.693703 1.194123 0.591744 0
M  V30 9 C 0.234320 2.440822 0.599738 0
M  V30 10 C 1.100497 3.570823 0.874635 0
M  V30 11 C 0.551853 4.840401 0.865523 0
M  V30 12 C 1.408341 5.883295 1.130961 0
M  V30 13 N 2.711814 5.699965 1.387917 0
M  V30 14 C 3.197386 4.444527 1.385070 0
M  V30 15 C 2.425751 3.322108 1.130745 0
M  V30 16 N -1.077950 2.526430 0.333030 0
M  V30 17 C -1.793361 1.376371 0.088050 0
M  V30 18 S -3.513483 1.331720 -0.273120 0
M  V30 19 C -3.511502 -0.530107 -0.427154 0
M  V30 20 C -2.208528 -0.876166 -0.184891 0
M  V30 21 C -1.335357 0.118944 0.078923 0
M  V30 22 C -2.230197 -2.349761 -0.304507 0
M  V30 23 C -3.261102 -2.804256 0.754932 0
M  V30 24 C -4.607331 -2.698134 0.050632 0
M  V30 25 C -4.677450 -1.412767 -0.742867 0
M  V30 26 H 3.315641 -4.891224 0.888852 0
M  V30 27 H 4.547471 -4.008563 1.886936 0
M  V30 28 H 3.352565 -5.068760 2.664766 0
M  V30 29 H 1.320932 -4.548980 2.834610 0
M  V30 30 H 0.879929 -4.308938 1.154035 0
M  V30 31 H 0.493200 -3.054112 2.446872 0
M  V30 32 H 4.007905 -2.054953 1.065362 0
M  V30 33 H 2.945913 -2.856465 -0.102337 0
M  V30 34 H 2.381011 -0.318361 1.525518 0
M  V30 35 H 2.659466 -0.561823 -0.188669 0
M  V30 36 H 0.666160 -2.129455 0.288255 0
M  V30 37 H -0.519701 4.952623 0.651132 0
M  V30 38 H 0.948858 6.867677 1.116732 0
M  V30 39 H 4.265674 4.406336 1.605025 0
M  V30 40 H 2.892396 2.350308 1.147515 0
M  V30 41 H -2.641812 -2.577633 -1.345039 0
M  V30 42 H -1.290157 -2.860856 -0.156489 0
M  V30 43 H -3.103752 -3.834412 1.066105 0
M  V30 44 H -3.280100 -2.070860 1.584011 0
M  V30 45 H -5.440711 -2.803077 0.775048 0
M  V30 46 H -4.679942 -3.556023 -0.649012 0
M  V30 47 H -5.625473 -0.918869 -0.454158 0
M  V30 48 H -4.714753 -1.603123 -1.824296 0
M  V30 END ATOM
M  V30 BEGIN BOND
M  V30 1 1 1 2
M  V30 2 1 2 3
M  V30 3 1 2 4
M  V30 4 1 4 5
M  V30 5 1 5 6
M  V30 6 1 6 7
M  V30 7 2 7 8
M  V30 8 1 8 9
M  V30 9 1 9 10
M  V30 10 2 10 11
M  V30 11 1 11 12
M  V30 12 2 12 13
M  V30 13 1 13 14
M  V30 14 2 14 15
M  V30 15 2 9 16
M  V30 16 1 16 17
M  V30 17 1 17 18
M  V30 18 1 18 19
M  V30 19 2 19 20
M  V30 20 1 20 21
M  V30 21 1 20 22
M  V30 22 1 22 23
M  V30 23 1 23 24
M  V30 24 1 24 25
M  V30 25 1 21 7
M  V30 26 1 15 10
M  V30 27 2 21 17
M  V30 28 1 25 19
M  V30 29 1 1 26
M  V30 30 1 1 27
M  V30 31 1 1 28
M  V30 32 1 3 29
M  V30 33 1 3 30
M  V30 34 1 3 31
M  V30 35 1 4 32
M  V30 36 1 4 33
M  V30 37 1 5 34
M  V30 38 1 5 35
M  V30 39 1 6 36
M  V30 40 1 11 37
M  V30 41 1 12 38
M  V30 42 1 14 39
M  V30 43 1 15 40
M  V30 44 1 22 41
M  V30 45 1 22 42
M  V30 46 1 23 43
M  V30 47 1 23 44
M  V30 48 1 24 45
M  V30 49 1 24 46
M  V30 50 1 25 47
M  V30 51 1 25 48
M  V30 END BOND
M  V30 END CTAB
M  END
>  <Dataset>  (633) 
ChEMBL_Kinases

>  <Ligand_Instance>  (633) 
nan

>  <PDB_ID>  (633) 
nan

>  <Standardized_SMILES>  (633) 
CN(C)CCNc1nc(-c2ccncc2)nc2sc3c(c12)CCCC3

>  <Name>  (633) 
nan

>  <Pocket>  (633) 
nan

>  <ATP_Site>  (633) 
nan

>  <Peripheral>  (633) 
nan

>  <Num_H_Atoms_ProtBoundConf>  (633) 
nan

>  <Num_Resolved_Atoms>  (633) 
nan

>  <Num_Not_Resolved_Atoms>  (633) 
nan

$$$$
CHEMBL3704385
     RDKit          3D

  0  0  0  0  0  0  0  0  0  0999 V3000
M  V30 BEGIN CTAB
M  V30 COUNTS 60 63 0 0 0
M  V30 BEGIN ATOM
M  V30 1 N 4.133939 -1.286582 9.091687 0
M  V30 2 C 4.444645 -1.446354 7.983367 0
M  V30 3 C 4.836529 -1.631221 6.560281 0
M  V30 4 C 5.620206 -0.459676 6.070113 0
M  V30 5 N 6.034337 -0.579649 4.743760 0
M  V30 6 C 5.175289 -0.530663 3.651856 0 CFG=1
M  V30 7 C 4.114305 -1.558234 3.484525 0
M  V30 8 C 3.839889 -1.688055 1.988730 0
M  V30 9 C 3.333833 -0.333568 1.562905 0
M  V30 10 N 2.554622 -0.113504 0.505262 0
M  V30 11 C 2.138494 0.900720 0.128750 0
M  V30 12 N 1.283969 1.209952 -1.018901 0
M  V30 13 C -0.114021 1.229365 -0.953847 0
M  V30 14 O -0.583074 0.950176 0.202789 0
M  V30 15 C -0.938611 1.543911 -2.119557 0
M  V30 16 C -0.445261 1.845537 -3.384878 0
M  V30 17 C -1.346232 2.126703 -4.398867 0
M  V30 18 C -2.730747 2.115356 -4.186540 0
M  V30 19 C -3.199581 1.808011 -2.902658 0
M  V30 20 C -4.681222 1.851875 -2.852912 0
M  V30 21 O -5.322754 0.676720 -3.225422 0
M  V30 22 C -5.148922 -0.525974 -2.577152 0
M  V30 23 O -4.407221 -0.716798 -1.587797 0
M  V30 24 N -5.901893 -1.616192 -3.120477 0
M  V30 25 C -5.733618 -2.883888 -2.455982 0
M  V30 26 C -4.686021 -3.589098 -3.034801 0
M  V30 27 C -4.325892 -4.850451 -2.563886 0
M  V30 28 C -5.046096 -5.369662 -1.506158 0
M  V30 29 C -4.712327 -6.662967 -0.987233 0
M  V30 30 N -4.441090 -7.705991 -0.555812 0
M  V30 31 C -6.084928 -4.662525 -0.937629 0
M  V30 32 C -6.444652 -3.413056 -1.400760 0
M  V30 33 C -2.299139 1.529648 -1.897537 0
M  V30 34 S 2.794794 2.139686 1.318679 0
M  V30 35 C 3.682634 0.793923 2.294011 0
M  V30 36 C 4.537720 0.848197 3.510688 0
M  V30 37 H 5.412589 -2.570735 6.493129 0
M  V30 38 H 3.913710 -1.783292 6.012870 0
M  V30 39 H 6.555201 -0.435578 6.719254 0
M  V30 40 H 5.124230 0.510390 6.326778 0
M  V30 41 H 7.016073 -0.761421 4.526477 0
M  V30 42 H 5.826413 -0.601738 2.719595 0
M  V30 43 H 4.460733 -2.547566 3.826976 0
M  V30 44 H 3.122890 -1.270201 3.911842 0
M  V30 45 H 4.732090 -1.987208 1.442061 0
M  V30 46 H 3.082604 -2.481465 1.895959 0
M  V30 47 H 1.807075 1.420482 -1.912312 0
M  V30 48 H 0.610769 1.843883 -3.507709 0
M  V30 49 H -0.894940 2.352271 -5.356071 0
M  V30 50 H -3.335520 2.351295 -5.055244 0
M  V30 51 H -4.939401 2.047189 -1.765511 0
M  V30 52 H -5.070332 2.718839 -3.408699 0
M  V30 53 H -6.537244 -1.511404 -3.946998 0
M  V30 54 H -4.060973 -3.271814 -3.865770 0
M  V30 55 H -3.522186 -5.452763 -2.967264 0
M  V30 56 H -6.675021 -5.028756 -0.109905 0
M  V30 57 H -7.223535 -2.760501 -1.054461 0
M  V30 58 H -2.738553 1.313936 -0.951658 0
M  V30 59 H 3.983274 1.046174 4.429520 0
M  V30 60 H 5.374824 1.569349 3.433409 0
M  V30 END ATOM
M  V30 BEGIN BOND
M  V30 1 3 1 2
M  V30 2 1 2 3
M  V30 3 1 3 4
M  V30 4 1 4 5
M  V30 5 1 5 6
M  V30 6 1 6 7
M  V30 7 1 7 8
M  V30 8 1 8 9
M  V30 9 1 9 10
M  V30 10 2 10 11
M  V30 11 1 11 12
M  V30 12 1 12 13
M  V30 13 2 13 14
M  V30 14 1 13 15
M  V30 15 2 15 16
M  V30 16 1 16 17
M  V30 17 2 17 18
M  V30 18 1 18 19
M  V30 19 1 19 20
M  V30 20 1 20 21
M  V30 21 1 21 22
M  V30 22 2 22 23
M  V30 23 1 22 24
M  V30 24 1 24 25
M  V30 25 2 25 26
M  V30 26 1 26 27
M  V30 27 2 27 28
M  V30 28 1 28 29
M  V30 29 3 29 30
M  V30 30 1 28 31
M  V30 31 2 31 32
M  V30 32 2 19 33
M  V30 33 1 11 34
M  V30 34 1 34 35
M  V30 35 1 35 36
M  V30 36 1 36 6
M  V30 37 2 35 9
M  V30 38 1 33 15
M  V30 39 1 32 25
M  V30 40 1 3 37
M  V30 41 1 3 38
M  V30 42 1 4 39
M  V30 43 1 4 40
M  V30 44 1 5 41
M  V30 45 1 6 42 CFG=3
M  V30 46 1 7 43
M  V30 47 1 7 44
M  V30 48 1 8 45
M  V30 49 1 8 46
M  V30 50 1 12 47
M  V30 51 1 16 48
M  V30 52 1 17 49
M  V30 53 1 18 50
M  V30 54 1 20 51
M  V30 55 1 20 52
M  V30 56 1 24 53
M  V30 57 1 26 54
M  V30 58 1 27 55
M  V30 59 1 31 56
M  V30 60 1 32 57
M  V30 61 1 33 58
M  V30 62 1 36 59
M  V30 63 1 36 60
M  V30 END BOND
M  V30 END CTAB
M  END
>  <Dataset>  (634) 
ChEMBL_Kinases

>  <Ligand_Instance>  (634) 
nan

>  <PDB_ID>  (634) 
nan

>  <Standardized_SMILES>  (634) 
N#CCCN[C@H]1CCc2nc(NC(=O)c3cccc(COC(=O)Nc4ccc(C#N)cc4)c3)sc2C1

>  <Name>  (634) 
nan

>  <Pocket>  (634) 
nan

>  <ATP_Site>  (634) 
nan

>  <Peripheral>  (634) 
nan

>  <Num_H_Atoms_ProtBoundConf>  (634) 
nan

>  <Num_Resolved_Atoms>  (634) 
nan

>  <Num_Not_Resolved_Atoms>  (634) 
nan

$$$$
CHEMBL3730433
     RDKit          3D

  0  0  0  0  0  0  0  0  0  0999 V3000
M  V30 BEGIN CTAB
M  V30 COUNTS 57 60 0 0 0
M  V30 BEGIN ATOM
M  V30 1 C 2.220430 0.322593 7.324030 0
M  V30 2 C 1.387901 -0.304460 6.205577 0 CFG=2
M  V30 3 N 1.713946 -1.714001 6.186669 0
M  V30 4 C 1.815302 0.385116 4.927547 0
M  V30 5 N 1.116844 -0.096891 3.767421 0
M  V30 6 C 1.435512 0.477824 2.509647 0
M  V30 7 N 2.359275 1.445474 2.382155 0
M  V30 8 C 2.531465 1.876515 1.096328 0
M  V30 9 C 3.521490 2.940829 0.821600 0
M  V30 10 C 4.236763 3.459543 1.879548 0
M  V30 11 C 5.181471 4.452836 1.727819 0
M  V30 12 N 5.433104 4.951832 0.509197 0
M  V30 13 C 4.751371 4.466187 -0.542973 0
M  V30 14 C 3.791345 3.464374 -0.426899 0
M  V30 15 N 1.887139 1.436293 0.003490 0
M  V30 16 C 0.959857 0.467890 0.116680 0
M  V30 17 C 0.209741 -0.099440 -0.879089 0
M  V30 18 C -0.681170 -1.074409 -0.545359 0
M  V30 19 C -1.596110 -1.842630 -1.374039 0
M  V30 20 C -1.636935 -1.614982 -2.737144 0
M  V30 21 C -2.511593 -2.351534 -3.516421 0
M  V30 22 C -3.336230 -3.309262 -2.918096 0
M  V30 23 C -4.241333 -4.051271 -3.826449 0
M  V30 24 C -3.580202 -5.316977 -4.362932 0
M  V30 25 C -4.648669 -3.224998 -5.023382 0
M  V30 26 C -5.508596 -4.471292 -3.107659 0
M  V30 27 C -3.273004 -3.515283 -1.549017 0
M  V30 28 C -2.396093 -2.779886 -0.752192 0
M  V30 29 S -0.495748 -1.238468 1.232883 0
M  V30 30 C 0.750136 0.001487 1.387815 0
M  V30 31 H 2.229083 1.421800 7.230847 0
M  V30 32 H 1.873299 -0.044085 8.296300 0
M  V30 33 H 3.260666 -0.061703 7.192621 0
M  V30 34 H 0.332209 -0.088743 6.431635 0
M  V30 35 H 0.873224 -2.217844 5.803735 0
M  V30 36 H 2.552961 -1.823906 5.571730 0
M  V30 37 H 1.567704 1.474092 5.084204 0
M  V30 38 H 2.910706 0.298909 4.846063 0
M  V30 39 H 0.400340 -0.846634 3.863224 0
M  V30 40 H 4.076689 3.096126 2.886148 0
M  V30 41 H 5.720696 4.832208 2.583635 0
M  V30 42 H 4.951564 4.866336 -1.528226 0
M  V30 43 H 3.232735 3.060822 -1.260567 0
M  V30 44 H 0.270345 0.172632 -1.938222 0
M  V30 45 H -0.983170 -0.863998 -3.169682 0
M  V30 46 H -2.480558 -2.111602 -4.570955 0
M  V30 47 H -2.474599 -5.148195 -4.322682 0
M  V30 48 H -3.857044 -5.479800 -5.408069 0
M  V30 49 H -3.788467 -6.191864 -3.713024 0
M  V30 50 H -5.040623 -2.230485 -4.736857 0
M  V30 51 H -3.834495 -3.089211 -5.747261 0
M  V30 52 H -5.454174 -3.771640 -5.554839 0
M  V30 53 H -5.948640 -3.569281 -2.655849 0
M  V30 54 H -5.230810 -5.228653 -2.351806 0
M  V30 55 H -6.205607 -4.887619 -3.863746 0
M  V30 56 H -3.923275 -4.264343 -1.108625 0
M  V30 57 H -2.366156 -2.960080 0.314603 0
M  V30 END ATOM
M  V30 BEGIN BOND
M  V30 1 1 1 2
M  V30 2 1 2 3
M  V30 3 1 2 4
M  V30 4 1 4 5
M  V30 5 1 5 6
M  V30 6 2 6 7
M  V30 7 1 7 8
M  V30 8 1 8 9
M  V30 9 2 9 10
M  V30 10 1 10 11
M  V30 11 2 11 12
M  V30 12 1 12 13
M  V30 13 2 13 14
M  V30 14 2 8 15
M  V30 15 1 15 16
M  V30 16 1 16 17
M  V30 17 2 17 18
M  V30 18 1 18 19
M  V30 19 2 19 20
M  V30 20 1 20 21
M  V30 21 2 21 22
M  V30 22 1 22 23
M  V30 23 1 23 24
M  V30 24 1 23 25
M  V30 25 1 23 26
M  V30 26 1 22 27
M  V30 27 2 27 28
M  V30 28 1 18 29
M  V30 29 1 29 30
M  V30 30 1 30 6
M  V30 31 1 14 9
M  V30 32 2 30 16
M  V30 33 1 28 19
M  V30 34 1 1 31
M  V30 35 1 1 32
M  V30 36 1 1 33
M  V30 37 1 2 34 CFG=1
M  V30 38 1 3 35
M  V30 39 1 3 36
M  V30 40 1 4 37
M  V30 41 1 4 38
M  V30 42 1 5 39
M  V30 43 1 10 40
M  V30 44 1 11 41
M  V30 45 1 13 42
M  V30 46 1 14 43
M  V30 47 1 17 44
M  V30 48 1 20 45
M  V30 49 1 21 46
M  V30 50 1 24 47
M  V30 51 1 24 48
M  V30 52 1 24 49
M  V30 53 1 25 50
M  V30 54 1 25 51
M  V30 55 1 25 52
M  V30 56 1 26 53
M  V30 57 1 26 54
M  V30 58 1 26 55
M  V30 59 1 27 56
M  V30 60 1 28 57
M  V30 END BOND
M  V30 END CTAB
M  END
>  <Dataset>  (635) 
ChEMBL_Kinases

>  <Ligand_Instance>  (635) 
nan

>  <PDB_ID>  (635) 
nan

>  <Standardized_SMILES>  (635) 
C[C@H](N)CNc1nc(-c2ccncc2)nc2cc(-c3ccc(C(C)(C)C)cc3)sc12

>  <Name>  (635) 
nan

>  <Pocket>  (635) 
nan

>  <ATP_Site>  (635) 
nan

>  <Peripheral>  (635) 
nan

>  <Num_H_Atoms_ProtBoundConf>  (635) 
nan

>  <Num_Resolved_Atoms>  (635) 
nan

>  <Num_Not_Resolved_Atoms>  (635) 
nan

$$$$
CHEMBL3730369
     RDKit          3D

  0  0  0  0  0  0  0  0  0  0999 V3000
M  V30 BEGIN CTAB
M  V30 COUNTS 36 39 0 0 0
M  V30 BEGIN ATOM
M  V30 1 F 3.082497 -3.043941 1.600328 0
M  V30 2 C 2.219940 -3.373512 0.567295 0 CFG=1
M  V30 3 N 2.214787 -4.844744 0.506472 0
M  V30 4 C 1.477660 -5.268802 1.679634 0
M  V30 5 C 0.736690 -4.045034 2.211241 0
M  V30 6 C 0.790137 -3.147162 1.008665 0 CFG=1
M  V30 7 N 0.422450 -1.797225 1.217732 0
M  V30 8 C 0.122109 -0.623719 0.529357 0
M  V30 9 N -0.132477 0.562177 1.103078 0
M  V30 10 C -0.435741 1.615968 0.338618 0
M  V30 11 C -0.704763 2.884025 1.001864 0
M  V30 12 C -1.023069 4.010066 0.275476 0
M  V30 13 C -1.276916 5.214057 0.931223 0
M  V30 14 N -1.207459 5.261294 2.272135 0
M  V30 15 C -0.891391 4.140893 2.984250 0
M  V30 16 C -0.627868 2.908941 2.375883 0
M  V30 17 N -0.504347 1.564425 -0.999627 0
M  V30 18 C -0.271076 0.435719 -1.683229 0
M  V30 19 C -0.327266 0.280754 -3.021282 0
M  V30 20 C -0.069502 -0.975864 -3.587877 0
M  V30 21 S 0.292458 -2.062155 -2.074631 0
M  V30 22 C 0.045926 -0.657131 -0.851176 0
M  V30 23 H 2.485094 -2.933990 -0.377030 0
M  V30 24 H 1.650502 -5.047912 -0.371173 0
M  V30 25 H 0.774008 -6.062664 1.354055 0
M  V30 26 H 2.186412 -5.677456 2.436122 0
M  V30 27 H -0.278745 -4.329535 2.525692 0
M  V30 28 H 1.355765 -3.656651 3.057874 0
M  V30 29 H 0.138522 -3.639875 0.234769 0
M  V30 30 H 0.357977 -1.638711 2.267946 0
M  V30 31 H -1.063405 3.907807 -0.805379 0
M  V30 32 H -1.519328 6.046410 0.276400 0
M  V30 33 H -0.834571 4.175380 4.064443 0
M  V30 34 H -0.382427 2.056823 3.001179 0
M  V30 35 H -0.554702 1.026116 -3.760247 0
M  V30 36 H -0.034213 -1.391645 -4.495097 0
M  V30 END ATOM
M  V30 BEGIN BOND
M  V30 1 1 1 2
M  V30 2 1 2 3
M  V30 3 1 3 4
M  V30 4 1 4 5
M  V30 5 1 5 6
M  V30 6 1 6 7
M  V30 7 1 7 8
M  V30 8 2 8 9
M  V30 9 1 9 10
M  V30 10 1 10 11
M  V30 11 2 11 12
M  V30 12 1 12 13
M  V30 13 2 13 14
M  V30 14 1 14 15
M  V30 15 2 15 16
M  V30 16 2 10 17
M  V30 17 1 17 18
M  V30 18 1 18 19
M  V30 19 2 19 20
M  V30 20 1 20 21
M  V30 21 1 21 22
M  V30 22 1 6 2
M  V30 23 1 22 8
M  V30 24 1 16 11
M  V30 25 2 22 18
M  V30 26 1 2 23 CFG=3
M  V30 27 1 3 24
M  V30 28 1 4 25
M  V30 29 1 4 26
M  V30 30 1 5 27
M  V30 31 1 5 28
M  V30 32 1 6 29 CFG=3
M  V30 33 1 7 30
M  V30 34 1 12 31
M  V30 35 1 13 32
M  V30 36 1 15 33
M  V30 37 1 16 34
M  V30 38 1 19 35
M  V30 39 1 20 36
M  V30 END BOND
M  V30 END CTAB
M  END
>  <Dataset>  (636) 
ChEMBL_Kinases

>  <Ligand_Instance>  (636) 
nan

>  <PDB_ID>  (636) 
nan

>  <Standardized_SMILES>  (636) 
F[C@H]1NCC[C@H]1Nc1nc(-c2ccncc2)nc2ccsc12

>  <Name>  (636) 
nan

>  <Pocket>  (636) 
nan

>  <ATP_Site>  (636) 
nan

>  <Peripheral>  (636) 
nan

>  <Num_H_Atoms_ProtBoundConf>  (636) 
nan

>  <Num_Resolved_Atoms>  (636) 
nan

>  <Num_Not_Resolved_Atoms>  (636) 
nan

$$$$
CHEMBL3730428
     RDKit          3D

  0  0  0  0  0  0  0  0  0  0999 V3000
M  V30 BEGIN CTAB
M  V30 COUNTS 67 71 0 0 0
M  V30 BEGIN ATOM
M  V30 1 C 3.449090 -0.682916 3.522001 0
M  V30 2 C 2.892564 -1.940319 2.921959 0
M  V30 3 C 4.015387 -2.636181 2.161932 0
M  V30 4 C 2.530628 -2.879495 4.051130 0
M  V30 5 C 1.737839 -1.769447 2.066076 0
M  V30 6 S 1.721307 -2.251339 0.364299 0
M  V30 7 C -0.063011 -1.689950 0.084344 0
M  V30 8 C -0.841415 -1.740538 -1.068743 0
M  V30 9 N -0.250327 -2.292771 -2.204378 0
M  V30 10 C -0.840808 -2.445578 -3.500121 0
M  V30 11 C -1.216500 -1.196007 -4.217089 0 CFG=1
M  V30 12 N -2.176562 -0.426266 -3.477707 0
M  V30 13 C -0.087990 -0.361764 -4.721110 0
M  V30 14 C 0.851866 0.148338 -3.731648 0
M  V30 15 C 0.520842 1.379824 -3.150966 0
M  V30 16 C 1.311474 2.001485 -2.207506 0
M  V30 17 C 2.482760 1.419756 -1.792656 0
M  V30 18 C 2.842992 0.211528 -2.338307 0
M  V30 19 C 2.038144 -0.386569 -3.275997 0
M  V30 20 N -2.085266 -1.258695 -0.948429 0
M  V30 21 C -2.472723 -0.777843 0.243234 0
M  V30 22 C -3.821205 -0.242781 0.436815 0
M  V30 23 C -4.288139 0.276124 1.622235 0
M  V30 24 C -5.569670 0.769278 1.749934 0
M  V30 25 N -6.394512 0.745436 0.686337 0
M  V30 26 C -5.937851 0.231817 -0.493532 0
M  V30 27 C -4.662741 -0.267870 -0.650673 0
M  V30 28 N -1.696734 -0.743317 1.336996 0
M  V30 29 C -0.433475 -1.194413 1.347969 0
M  V30 30 C 0.512635 -1.253836 2.327499 0
M  V30 31 C 0.211111 -0.753525 3.689880 0
M  V30 32 C -0.329952 -1.416745 4.773122 0
M  V30 33 C -0.513411 -0.719073 5.945868 0
M  V30 34 C -0.182931 0.609588 6.090697 0
M  V30 35 C 0.358163 1.281131 5.014498 0
M  V30 36 F 0.677813 2.588706 5.174383 0
M  V30 37 C 0.541410 0.597867 3.854953 0
M  V30 38 H 3.132130 -0.490530 4.565421 0
M  V30 39 H 4.569986 -0.765781 3.588356 0
M  V30 40 H 3.257107 0.158050 2.824354 0
M  V30 41 H 4.640378 -1.917579 1.602798 0
M  V30 42 H 3.560760 -3.325350 1.417533 0
M  V30 43 H 4.628143 -3.288109 2.842060 0
M  V30 44 H 1.567239 -3.384396 3.833621 0
M  V30 45 H 3.329390 -3.656988 4.230099 0
M  V30 46 H 2.396162 -2.334383 5.013597 0
M  V30 47 H 0.745401 -2.664541 -2.151237 0
M  V30 48 H -1.716282 -3.156260 -3.419705 0
M  V30 49 H -0.142770 -2.997475 -4.203554 0
M  V30 50 H -1.777787 -1.513979 -5.160232 0
M  V30 51 H -3.114250 -0.907735 -3.587005 0
M  V30 52 H -2.253666 0.551540 -3.869150 0
M  V30 53 H -0.562457 0.501083 -5.271613 0
M  V30 54 H 0.448741 -0.916443 -5.524040 0
M  V30 55 H -0.381446 1.966114 -3.380842 0
M  V30 56 H 1.076380 2.946828 -1.748948 0
M  V30 57 H 3.138209 1.864249 -1.056689 0
M  V30 58 H 3.769175 -0.309367 -2.050102 0
M  V30 59 H 2.285901 -1.341380 -3.732330 0
M  V30 60 H -3.574631 0.264735 2.434678 0
M  V30 61 H -5.846694 1.161351 2.735958 0
M  V30 62 H -6.654307 0.245718 -1.301634 0
M  V30 63 H -4.451115 -0.637660 -1.635800 0
M  V30 64 H -0.549103 -2.447375 4.546426 0
M  V30 65 H -0.941349 -1.302773 6.750988 0
M  V30 66 H -0.374794 1.057111 7.071122 0
M  V30 67 H 0.975512 1.207473 3.053350 0
M  V30 END ATOM
M  V30 BEGIN BOND
M  V30 1 1 1 2
M  V30 2 1 2 3
M  V30 3 1 2 4
M  V30 4 1 2 5
M  V30 5 1 5 6
M  V30 6 1 6 7
M  V30 7 2 7 8
M  V30 8 1 8 9
M  V30 9 1 9 10
M  V30 10 1 10 11
M  V30 11 1 11 12
M  V30 12 1 11 13
M  V30 13 1 13 14
M  V30 14 2 14 15
M  V30 15 1 15 16
M  V30 16 2 16 17
M  V30 17 1 17 18
M  V30 18 2 18 19
M  V30 19 1 8 20
M  V30 20 2 20 21
M  V30 21 1 21 22
M  V30 22 2 22 23
M  V30 23 1 23 24
M  V30 24 2 24 25
M  V30 25 1 25 26
M  V30 26 2 26 27
M  V30 27 1 21 28
M  V30 28 2 28 29
M  V30 29 1 29 30
M  V30 30 1 30 31
M  V30 31 2 31 32
M  V30 32 1 32 33
M  V30 33 2 33 34
M  V30 34 1 34 35
M  V30 35 1 35 36
M  V30 36 2 35 37
M  V30 37 2 30 5
M  V30 38 1 37 31
M  V30 39 1 29 7
M  V30 40 1 19 14
M  V30 41 1 27 22
M  V30 42 1 1 38
M  V30 43 1 1 39
M  V30 44 1 1 40
M  V30 45 1 3 41
M  V30 46 1 3 42
M  V30 47 1 3 43
M  V30 48 1 4 44
M  V30 49 1 4 45
M  V30 50 1 4 46
M  V30 51 1 9 47
M  V30 52 1 10 48
M  V30 53 1 10 49
M  V30 54 1 11 50 CFG=3
M  V30 55 1 12 51
M  V30 56 1 12 52
M  V30 57 1 13 53
M  V30 58 1 13 54
M  V30 59 1 15 55
M  V30 60 1 16 56
M  V30 61 1 17 57
M  V30 62 1 18 58
M  V30 63 1 19 59
M  V30 64 1 23 60
M  V30 65 1 24 61
M  V30 66 1 26 62
M  V30 67 1 27 63
M  V30 68 1 32 64
M  V30 69 1 33 65
M  V30 70 1 34 66
M  V30 71 1 37 67
M  V30 END BOND
M  V30 END CTAB
M  END
>  <Dataset>  (637) 
ChEMBL_Kinases

>  <Ligand_Instance>  (637) 
nan

>  <PDB_ID>  (637) 
nan

>  <Standardized_SMILES>  (637) 
CC(C)(C)c1sc2c(NC[C@@H](N)Cc3ccccc3)nc(-c3ccncc3)nc2c1-c1cccc(F)c1

>  <Name>  (637) 
nan

>  <Pocket>  (637) 
nan

>  <ATP_Site>  (637) 
nan

>  <Peripheral>  (637) 
nan

>  <Num_H_Atoms_ProtBoundConf>  (637) 
nan

>  <Num_Resolved_Atoms>  (637) 
nan

>  <Num_Not_Resolved_Atoms>  (637) 
nan

$$$$
CHEMBL3730425
     RDKit          3D

  0  0  0  0  0  0  0  0  0  0999 V3000
M  V30 BEGIN CTAB
M  V30 COUNTS 56 58 0 0 0
M  V30 BEGIN ATOM
M  V30 1 O 2.837487 -2.666143 -0.386257 0
M  V30 2 C 2.824651 -3.051994 0.835168 0
M  V30 3 C 3.562439 -2.598862 2.042005 0
M  V30 4 N 4.427058 -1.507971 1.635216 0
M  V30 5 C 3.956330 -0.265403 1.136434 0
M  V30 6 C 4.841598 0.712173 0.748576 0
M  V30 7 C 4.432750 1.938058 0.259220 0
M  V30 8 C 3.060417 2.098116 0.192442 0
M  V30 9 C 2.119880 1.163962 0.563395 0
M  V30 10 C 0.680790 1.334940 0.486696 0
M  V30 11 O -0.086427 0.414671 0.925354 0
M  V30 12 N -0.015165 2.434055 -0.032764 0
M  V30 13 C -1.371495 2.858478 -0.228209 0
M  V30 14 C -2.163625 2.983081 1.047199 0
M  V30 15 N -2.316460 1.745060 1.729518 0
M  V30 16 C -3.203856 0.825004 1.029747 0
M  V30 17 C -4.607534 1.369306 1.032779 0
M  V30 18 O -4.845832 2.246729 2.075852 0
M  V30 19 C -4.247705 1.817096 3.243593 0
M  V30 20 C -2.740418 1.874314 3.092449 0
M  V30 21 C 2.605172 -0.027234 1.039305 0
M  V30 22 N 1.882488 -4.119599 0.898309 0
M  V30 23 N 1.334495 -4.344040 -0.366268 0
M  V30 24 C 0.225003 -4.976785 -0.544487 0
M  V30 25 C -0.497771 -5.305833 -1.774585 0
M  V30 26 C -1.684394 -5.996452 -1.787941 0
M  V30 27 C -2.266070 -6.247372 -3.013004 0
M  V30 28 N -1.685859 -5.825461 -4.177274 0
M  V30 29 C -0.520669 -5.152248 -4.093075 0
M  V30 30 C 0.158761 -4.841779 -2.904656 0
M  V30 31 H 4.133830 -3.446710 2.458955 0
M  V30 32 H 2.911280 -2.240170 2.842575 0
M  V30 33 H 5.455206 -1.659394 1.718259 0
M  V30 34 H 5.905269 0.514164 0.829398 0
M  V30 35 H 5.098604 2.732500 -0.055711 0
M  V30 36 H 2.716321 3.048415 -0.186662 0
M  V30 37 H 0.717424 3.138944 -0.372692 0
M  V30 38 H -1.375970 3.849165 -0.724062 0
M  V30 39 H -1.903984 2.133004 -0.906823 0
M  V30 40 H -1.591928 3.668151 1.723029 0
M  V30 41 H -3.128132 3.497262 0.840650 0
M  V30 42 H -3.237369 -0.121223 1.621153 0
M  V30 43 H -2.838671 0.565512 0.031269 0
M  V30 44 H -5.375869 0.556267 1.049413 0
M  V30 45 H -4.767284 1.919542 0.074545 0
M  V30 46 H -4.589821 2.492074 4.068205 0
M  V30 47 H -4.575371 0.792361 3.534872 0
M  V30 48 H -2.272621 1.030191 3.658143 0
M  V30 49 H -2.350473 2.824990 3.514378 0
M  V30 50 H 1.911129 -0.789708 1.348008 0
M  V30 51 H 1.676925 -4.626596 1.814879 0
M  V30 52 H -0.229912 -5.311910 0.375346 0
M  V30 53 H -2.131511 -6.321826 -0.862310 0
M  V30 54 H -3.205343 -6.797512 -2.990076 0
M  V30 55 H -0.113711 -4.844541 -5.065071 0
M  V30 56 H 1.089449 -4.296687 -2.921561 0
M  V30 END ATOM
M  V30 BEGIN BOND
M  V30 1 2 1 2
M  V30 2 1 2 3
M  V30 3 1 3 4
M  V30 4 1 4 5
M  V30 5 2 5 6
M  V30 6 1 6 7
M  V30 7 2 7 8
M  V30 8 1 8 9
M  V30 9 1 9 10
M  V30 10 2 10 11
M  V30 11 1 10 12
M  V30 12 1 12 13
M  V30 13 1 13 14
M  V30 14 1 14 15
M  V30 15 1 15 16
M  V30 16 1 16 17
M  V30 17 1 17 18
M  V30 18 1 18 19
M  V30 19 1 19 20
M  V30 20 2 9 21
M  V30 21 1 2 22
M  V30 22 1 22 23
M  V30 23 2 23 24
M  V30 24 1 24 25
M  V30 25 2 25 26
M  V30 26 1 26 27
M  V30 27 2 27 28
M  V30 28 1 28 29
M  V30 29 2 29 30
M  V30 30 1 21 5
M  V30 31 1 30 25
M  V30 32 1 20 15
M  V30 33 1 3 31
M  V30 34 1 3 32
M  V30 35 1 4 33
M  V30 36 1 6 34
M  V30 37 1 7 35
M  V30 38 1 8 36
M  V30 39 1 12 37
M  V30 40 1 13 38
M  V30 41 1 13 39
M  V30 42 1 14 40
M  V30 43 1 14 41
M  V30 44 1 16 42
M  V30 45 1 16 43
M  V30 46 1 17 44
M  V30 47 1 17 45
M  V30 48 1 19 46
M  V30 49 1 19 47
M  V30 50 1 20 48
M  V30 51 1 20 49
M  V30 52 1 21 50
M  V30 53 1 22 51
M  V30 54 1 24 52
M  V30 55 1 26 53
M  V30 56 1 27 54
M  V30 57 1 29 55
M  V30 58 1 30 56
M  V30 END BOND
M  V30 END CTAB
M  END
>  <Dataset>  (638) 
ChEMBL_Kinases

>  <Ligand_Instance>  (638) 
nan

>  <PDB_ID>  (638) 
nan

>  <Standardized_SMILES>  (638) 
O=C(CNc1cccc(C(=O)NCCN2CCOCC2)c1)N/N=C/c1ccncc1

>  <Name>  (638) 
nan

>  <Pocket>  (638) 
nan

>  <ATP_Site>  (638) 
nan

>  <Peripheral>  (638) 
nan

>  <Num_H_Atoms_ProtBoundConf>  (638) 
nan

>  <Num_Resolved_Atoms>  (638) 
nan

>  <Num_Not_Resolved_Atoms>  (638) 
nan

$$$$
CHEMBL3730412
     RDKit          3D

  0  0  0  0  0  0  0  0  0  0999 V3000
M  V30 BEGIN CTAB
M  V30 COUNTS 58 62 0 0 0
M  V30 BEGIN ATOM
M  V30 1 N 4.883399 -2.055276 0.871420 0
M  V30 2 C 3.432747 -2.134930 1.114181 0 CFG=2
M  V30 3 C 3.156918 -1.709107 2.522945 0
M  V30 4 N 1.759147 -1.737514 2.893987 0
M  V30 5 C 0.873109 -0.882861 2.219847 0
M  V30 6 N 1.309222 -0.027575 1.246587 0
M  V30 7 C 0.341473 0.757796 0.683583 0
M  V30 8 C 0.772498 1.693724 -0.365099 0
M  V30 9 C 2.113833 1.698293 -0.685100 0
M  V30 10 C 2.496764 2.600392 -1.685258 0
M  V30 11 N 1.592756 3.408373 -2.288209 0
M  V30 12 C 0.277370 3.404091 -1.974601 0
M  V30 13 C -0.133036 2.525048 -0.991154 0
M  V30 14 F -1.423862 2.500745 -0.662921 0
M  V30 15 N -0.954695 0.732027 1.022570 0
M  V30 16 C -1.404885 -0.101375 1.976665 0
M  V30 17 C -2.708939 -0.180938 2.371754 0
M  V30 18 C -3.845896 0.560767 1.891697 0
M  V30 19 C -4.803752 1.190761 1.463746 0
M  V30 20 C -5.948455 1.953999 0.960912 0
M  V30 21 O -5.667103 3.301166 1.092855 0
M  V30 22 C -7.283951 1.484343 1.485391 0
M  V30 23 C -7.380957 0.592291 0.265065 0
M  V30 24 C -6.411118 1.530727 -0.422548 0
M  V30 25 C -2.984612 -1.119864 3.389594 0
M  V30 26 S -1.278491 -1.872117 3.739872 0
M  V30 27 C -0.476470 -0.884270 2.546625 0
M  V30 28 C 3.103064 -3.625844 0.943592 0
M  V30 29 C 3.434410 -4.123210 -0.395253 0
M  V30 30 C 4.720327 -4.633955 -0.601129 0
M  V30 31 C 5.194716 -5.143870 -1.801822 0
M  V30 32 C 4.315217 -5.139524 -2.867554 0
M  V30 33 C 3.037114 -4.639402 -2.689017 0
M  V30 34 C 2.615979 -4.150214 -1.495611 0
M  V30 35 H 5.167250 -1.036084 0.827337 0
M  V30 36 H 5.381146 -2.533737 1.672025 0
M  V30 37 H 2.924528 -1.523629 0.364397 0
M  V30 38 H 3.581101 -0.727492 2.774538 0
M  V30 39 H 3.705201 -2.441232 3.180124 0
M  V30 40 H 1.417773 -2.375703 3.642726 0
M  V30 41 H 2.885284 1.075726 -0.238197 0
M  V30 42 H 3.543289 2.655363 -1.987371 0
M  V30 43 H -0.361553 4.085414 -2.511221 0
M  V30 44 H -6.428610 3.844125 0.835503 0
M  V30 45 H -8.049089 2.268051 1.479645 0
M  V30 46 H -7.146031 0.942909 2.441813 0
M  V30 47 H -8.376403 0.522004 -0.209896 0
M  V30 48 H -6.905652 -0.395397 0.373493 0
M  V30 49 H -6.950887 2.325519 -0.942158 0
M  V30 50 H -5.638973 0.999193 -1.020726 0
M  V30 51 H -3.868318 -1.427005 3.930054 0
M  V30 52 H 3.714676 -4.164282 1.697407 0
M  V30 53 H 2.021525 -3.755688 1.161478 0
M  V30 54 H 5.417843 -4.640022 0.232675 0
M  V30 55 H 6.206327 -5.516627 -1.861646 0
M  V30 56 H 4.743554 -5.554091 -3.791608 0
M  V30 57 H 2.417206 -4.675308 -3.575793 0
M  V30 58 H 1.619581 -3.762556 -1.364946 0
M  V30 END ATOM
M  V30 BEGIN BOND
M  V30 1 1 1 2
M  V30 2 1 2 3
M  V30 3 1 3 4
M  V30 4 1 4 5
M  V30 5 2 5 6
M  V30 6 1 6 7
M  V30 7 1 7 8
M  V30 8 2 8 9
M  V30 9 1 9 10
M  V30 10 2 10 11
M  V30 11 1 11 12
M  V30 12 2 12 13
M  V30 13 1 13 14
M  V30 14 2 7 15
M  V30 15 1 15 16
M  V30 16 1 16 17
M  V30 17 1 17 18
M  V30 18 3 18 19
M  V30 19 1 19 20
M  V30 20 1 20 21
M  V30 21 1 20 22
M  V30 22 1 22 23
M  V30 23 1 23 24
M  V30 24 2 17 25
M  V30 25 1 25 26
M  V30 26 1 26 27
M  V30 27 1 2 28
M  V30 28 1 28 29
M  V30 29 2 29 30
M  V30 30 1 30 31
M  V30 31 2 31 32
M  V30 32 1 32 33
M  V30 33 2 33 34
M  V30 34 1 27 5
M  V30 35 1 34 29
M  V30 36 1 13 8
M  V30 37 2 27 16
M  V30 38 1 24 20
M  V30 39 1 1 35
M  V30 40 1 1 36
M  V30 41 1 2 37 CFG=3
M  V30 42 1 3 38
M  V30 43 1 3 39
M  V30 44 1 4 40
M  V30 45 1 9 41
M  V30 46 1 10 42
M  V30 47 1 12 43
M  V30 48 1 21 44
M  V30 49 1 22 45
M  V30 50 1 22 46
M  V30 51 1 23 47
M  V30 52 1 23 48
M  V30 53 1 24 49
M  V30 54 1 24 50
M  V30 55 1 25 51
M  V30 56 1 28 52
M  V30 57 1 28 53
M  V30 58 1 30 54
M  V30 59 1 31 55
M  V30 60 1 32 56
M  V30 61 1 33 57
M  V30 62 1 34 58
M  V30 END BOND
M  V30 END CTAB
M  END
>  <Dataset>  (639) 
ChEMBL_Kinases

>  <Ligand_Instance>  (639) 
nan

>  <PDB_ID>  (639) 
nan

>  <Standardized_SMILES>  (639) 
N[C@H](CNc1nc(-c2ccncc2F)nc2c(C#CC3(O)CCC3)csc12)Cc1ccccc1

>  <Name>  (639) 
nan

>  <Pocket>  (639) 
nan

>  <ATP_Site>  (639) 
nan

>  <Peripheral>  (639) 
nan

>  <Num_H_Atoms_ProtBoundConf>  (639) 
nan

>  <Num_Resolved_Atoms>  (639) 
nan

>  <Num_Not_Resolved_Atoms>  (639) 
nan

$$$$
CHEMBL3730408
     RDKit          3D

  0  0  0  0  0  0  0  0  0  0999 V3000
M  V30 BEGIN CTAB
M  V30 COUNTS 47 51 0 0 0
M  V30 BEGIN ATOM
M  V30 1 C 3.978996 -2.485621 4.033834 0
M  V30 2 N 5.215154 -3.015074 4.044403 0
M  V30 3 N 5.481415 -3.540607 2.845444 0
M  V30 4 C 4.410145 -3.351897 2.047738 0
M  V30 5 C 3.422674 -2.677130 2.774435 0
M  V30 6 C 2.119740 -2.295367 2.248685 0
M  V30 7 N 1.790492 -1.095211 1.758364 0
M  V30 8 C 0.592438 -0.743134 1.274606 0
M  V30 9 N 0.623496 0.588819 0.791658 0
M  V30 10 C 0.673743 0.693396 -0.660535 0
M  V30 11 C 0.185719 1.986011 -1.204249 0
M  V30 12 C -0.140992 3.041812 -0.201407 0
M  V30 13 N 0.992093 3.560203 0.504701 0
M  V30 14 C 1.475816 2.750723 1.577516 0
M  V30 15 C 0.599858 1.556105 1.875719 0
M  V30 16 C -0.430748 -1.651533 1.254994 0
M  V30 17 C -1.675600 -1.415055 0.803187 0
M  V30 18 C -2.581742 -2.543368 0.893204 0
M  V30 19 S -1.590703 -3.850572 1.616027 0
M  V30 20 C -0.108375 -2.918437 1.763907 0
M  V30 21 N 1.121090 -3.192477 2.231087 0
M  V30 22 C -3.983193 -2.457512 0.435795 0
M  V30 23 C -4.067731 -1.867454 -0.957060 0
M  V30 24 C -3.078147 -0.730779 -1.114671 0
M  V30 25 C -2.495497 -0.328071 0.227892 0
M  V30 26 H 3.460328 -1.980681 4.854933 0
M  V30 27 H 6.358261 -4.035056 2.505907 0
M  V30 28 H 4.299438 -3.663359 0.999104 0
M  V30 29 H 1.727053 0.466992 -0.998843 0
M  V30 30 H 0.081469 -0.154313 -1.099872 0
M  V30 31 H -0.725009 1.861224 -1.844553 0
M  V30 32 H 0.966561 2.401279 -1.876925 0
M  V30 33 H -0.540033 3.913284 -0.802251 0
M  V30 34 H -0.991581 2.782542 0.466396 0
M  V30 35 H 1.692747 3.886368 -0.172468 0
M  V30 36 H 2.455380 2.317350 1.218615 0
M  V30 37 H 1.709020 3.311931 2.479272 0
M  V30 38 H -0.424416 1.848106 2.184339 0
M  V30 39 H 1.040959 1.103988 2.812608 0
M  V30 40 H -4.545863 -1.866985 1.175944 0
M  V30 41 H -4.353884 -3.503084 0.402073 0
M  V30 42 H -3.765468 -2.693528 -1.651451 0
M  V30 43 H -5.110327 -1.555008 -1.151638 0
M  V30 44 H -2.248405 -0.955145 -1.792413 0
M  V30 45 H -3.636389 0.140668 -1.504850 0
M  V30 46 H -3.411647 -0.208763 0.897028 0
M  V30 47 H -1.978251 0.620152 0.155370 0
M  V30 END ATOM
M  V30 BEGIN BOND
M  V30 1 2 1 2
M  V30 2 1 2 3
M  V30 3 1 3 4
M  V30 4 2 4 5
M  V30 5 1 5 6
M  V30 6 2 6 7
M  V30 7 1 7 8
M  V30 8 1 8 9
M  V30 9 1 9 10
M  V30 10 1 10 11
M  V30 11 1 11 12
M  V30 12 1 12 13
M  V30 13 1 13 14
M  V30 14 1 14 15
M  V30 15 2 8 16
M  V30 16 1 16 17
M  V30 17 2 17 18
M  V30 18 1 18 19
M  V30 19 1 19 20
M  V30 20 2 20 21
M  V30 21 1 18 22
M  V30 22 1 22 23
M  V30 23 1 23 24
M  V30 24 1 24 25
M  V30 25 1 5 1
M  V30 26 1 21 6
M  V30 27 1 15 9
M  V30 28 1 20 16
M  V30 29 1 25 17
M  V30 30 1 1 26
M  V30 31 1 3 27
M  V30 32 1 4 28
M  V30 33 1 10 29
M  V30 34 1 10 30
M  V30 35 1 11 31
M  V30 36 1 11 32
M  V30 37 1 12 33
M  V30 38 1 12 34
M  V30 39 1 13 35
M  V30 40 1 14 36
M  V30 41 1 14 37
M  V30 42 1 15 38
M  V30 43 1 15 39
M  V30 44 1 22 40
M  V30 45 1 22 41
M  V30 46 1 23 42
M  V30 47 1 23 43
M  V30 48 1 24 44
M  V30 49 1 24 45
M  V30 50 1 25 46
M  V30 51 1 25 47
M  V30 END BOND
M  V30 END CTAB
M  END
>  <Dataset>  (640) 
ChEMBL_Kinases

>  <Ligand_Instance>  (640) 
nan

>  <PDB_ID>  (640) 
nan

>  <Standardized_SMILES>  (640) 
c1n[nH]cc1-c1nc(N2CCCNCC2)c2c3c(sc2n1)CCCC3

>  <Name>  (640) 
nan

>  <Pocket>  (640) 
nan

>  <ATP_Site>  (640) 
nan

>  <Peripheral>  (640) 
nan

>  <Num_H_Atoms_ProtBoundConf>  (640) 
nan

>  <Num_Resolved_Atoms>  (640) 
nan

>  <Num_Not_Resolved_Atoms>  (640) 
nan

$$$$
CHEMBL3730403
     RDKit          3D

  0  0  0  0  0  0  0  0  0  0999 V3000
M  V30 BEGIN CTAB
M  V30 COUNTS 64 68 0 0 0
M  V30 BEGIN ATOM
M  V30 1 C 6.066215 -0.781795 0.182422 0
M  V30 2 C 6.616481 -0.753715 -1.227519 0
M  V30 3 C 7.439490 -1.991003 -1.404344 0
M  V30 4 C 5.483949 -0.740035 -2.226828 0
M  V30 5 N 4.630488 0.420828 -2.055280 0
M  V30 6 C 3.532592 0.461048 -1.243301 0
M  V30 7 C 2.979402 1.723177 -1.339573 0
M  V30 8 C 1.777660 2.149429 -0.609653 0
M  V30 9 C 1.854144 3.371740 -0.009492 0
M  V30 10 S 0.150808 3.564197 0.812443 0
M  V30 11 C -0.399930 1.991651 0.232151 0
M  V30 12 C -1.624552 1.373504 0.431596 0
M  V30 13 N -2.600061 2.061820 1.197666 0
M  V30 14 C -3.892578 1.461492 1.437284 0
M  V30 15 C -3.828880 0.162486 2.201939 0 CFG=1
M  V30 16 N -3.226819 0.319811 3.500746 0
M  V30 17 C -5.252477 -0.340132 2.341558 0
M  V30 18 C -5.320596 -1.616663 3.078832 0
M  V30 19 C -5.251201 -2.864790 2.490333 0
M  V30 20 C -5.321624 -4.031342 3.243210 0
M  V30 21 C -5.464260 -3.895762 4.608330 0
M  V30 22 C -5.537699 -2.688065 5.238407 0
M  V30 23 C -5.465256 -1.527596 4.466434 0
M  V30 24 N -1.868773 0.145372 -0.100381 0
M  V30 25 C -0.827608 -0.378773 -0.813131 0
M  V30 26 C -1.017560 -1.698574 -1.415267 0
M  V30 27 C -0.042583 -2.314491 -2.147769 0
M  V30 28 C -0.280383 -3.547991 -2.684862 0
M  V30 29 N -1.452223 -4.165083 -2.506558 0
M  V30 30 C -2.427797 -3.565090 -1.782037 0
M  V30 31 C -2.235512 -2.309920 -1.214426 0
M  V30 32 N 0.346625 0.227859 -0.997156 0
M  V30 33 C 0.613693 1.442249 -0.481990 0
M  V30 34 C 3.760391 2.441291 -2.221057 0
M  V30 35 N 4.762931 1.620404 -2.643386 0
M  V30 36 H 6.885412 -0.672434 0.922243 0
M  V30 37 H 5.485898 -1.683722 0.406002 0
M  V30 38 H 5.400411 0.109210 0.358485 0
M  V30 39 H 7.255386 0.124812 -1.337739 0
M  V30 40 H 6.907442 -2.921714 -1.106591 0
M  V30 41 H 8.371249 -1.961899 -0.802946 0
M  V30 42 H 7.767359 -2.155083 -2.450996 0
M  V30 43 H 5.846122 -0.762307 -3.253011 0
M  V30 44 H 4.875572 -1.649183 -1.992990 0
M  V30 45 H 3.186896 -0.385938 -0.637748 0
M  V30 46 H 2.603011 4.122021 0.061219 0
M  V30 47 H -2.429242 2.986383 1.599345 0
M  V30 48 H -4.593169 2.157064 1.933053 0
M  V30 49 H -4.349385 1.274367 0.425997 0
M  V30 50 H -3.252378 -0.600494 1.662045 0
M  V30 51 H -2.611796 1.165198 3.496786 0
M  V30 52 H -2.747895 -0.542114 3.833784 0
M  V30 53 H -5.698750 -0.378143 1.327486 0
M  V30 54 H -5.818677 0.446492 2.889366 0
M  V30 55 H -5.139473 -2.896606 1.416376 0
M  V30 56 H -5.267034 -5.008830 2.780001 0
M  V30 57 H -5.525601 -4.774650 5.256139 0
M  V30 58 H -5.650158 -2.570055 6.314453 0
M  V30 59 H -5.523955 -0.552090 4.969542 0
M  V30 60 H 0.867921 -1.762218 -2.248688 0
M  V30 61 H 0.560020 -3.959515 -3.254499 0
M  V30 62 H -3.390101 -4.050974 -1.624843 0
M  V30 63 H -3.062826 -1.882598 -0.642150 0
M  V30 64 H 3.581714 3.472104 -2.505746 0
M  V30 END ATOM
M  V30 BEGIN BOND
M  V30 1 1 1 2
M  V30 2 1 2 3
M  V30 3 1 2 4
M  V30 4 1 4 5
M  V30 5 1 5 6
M  V30 6 2 6 7
M  V30 7 1 7 8
M  V30 8 2 8 9
M  V30 9 1 9 10
M  V30 10 1 10 11
M  V30 11 2 11 12
M  V30 12 1 12 13
M  V30 13 1 13 14
M  V30 14 1 14 15
M  V30 15 1 15 16
M  V30 16 1 15 17
M  V30 17 1 17 18
M  V30 18 2 18 19
M  V30 19 1 19 20
M  V30 20 2 20 21
M  V30 21 1 21 22
M  V30 22 2 22 23
M  V30 23 1 12 24
M  V30 24 2 24 25
M  V30 25 1 25 26
M  V30 26 2 26 27
M  V30 27 1 27 28
M  V30 28 2 28 29
M  V30 29 1 29 30
M  V30 30 2 30 31
M  V30 31 1 25 32
M  V30 32 2 32 33
M  V30 33 1 7 34
M  V30 34 2 34 35
M  V30 35 1 35 5
M  V30 36 1 33 8
M  V30 37 1 33 11
M  V30 38 1 23 18
M  V30 39 1 31 26
M  V30 40 1 1 36
M  V30 41 1 1 37
M  V30 42 1 1 38
M  V30 43 1 2 39
M  V30 44 1 3 40
M  V30 45 1 3 41
M  V30 46 1 3 42
M  V30 47 1 4 43
M  V30 48 1 4 44
M  V30 49 1 6 45
M  V30 50 1 9 46
M  V30 51 1 13 47
M  V30 52 1 14 48
M  V30 53 1 14 49
M  V30 54 1 15 50 CFG=3
M  V30 55 1 16 51
M  V30 56 1 16 52
M  V30 57 1 17 53
M  V30 58 1 17 54
M  V30 59 1 19 55
M  V30 60 1 20 56
M  V30 61 1 21 57
M  V30 62 1 22 58
M  V30 63 1 23 59
M  V30 64 1 27 60
M  V30 65 1 28 61
M  V30 66 1 30 62
M  V30 67 1 31 63
M  V30 68 1 34 64
M  V30 END BOND
M  V30 END CTAB
M  END
>  <Dataset>  (641) 
ChEMBL_Kinases

>  <Ligand_Instance>  (641) 
nan

>  <PDB_ID>  (641) 
nan

>  <Standardized_SMILES>  (641) 
CC(C)Cn1cc(-c2csc3c(NC[C@@H](N)Cc4ccccc4)nc(-c4ccncc4)nc23)cn1

>  <Name>  (641) 
nan

>  <Pocket>  (641) 
nan

>  <ATP_Site>  (641) 
nan

>  <Peripheral>  (641) 
nan

>  <Num_H_Atoms_ProtBoundConf>  (641) 
nan

>  <Num_Resolved_Atoms>  (641) 
nan

>  <Num_Not_Resolved_Atoms>  (641) 
nan

$$$$
CHEMBL3704387
     RDKit          3D

  0  0  0  0  0  0  0  0  0  0999 V3000
M  V30 BEGIN CTAB
M  V30 COUNTS 65 68 0 0 0
M  V30 BEGIN ATOM
M  V30 1 C 3.749611 -1.218616 6.634210 0
M  V30 2 O 2.495520 -0.590628 6.384698 0
M  V30 3 C 2.330346 0.211992 5.258196 0
M  V30 4 C 3.344126 0.435486 4.349199 0
M  V30 5 C 3.189866 1.233007 3.224335 0
M  V30 6 C 1.961593 1.811293 3.035834 0
M  V30 7 C 1.791063 2.651011 1.855938 0
M  V30 8 O 2.764367 2.801986 1.080513 0
M  V30 9 N 0.598383 3.318326 1.511410 0
M  V30 10 C 0.377900 4.150897 0.370424 0 CFG=2
M  V30 11 C -0.013253 5.564852 0.738353 0
M  V30 12 C -0.688082 3.588505 -0.530406 0
M  V30 13 C -1.691434 4.343472 -1.075763 0
M  V30 14 C -2.623987 3.733295 -1.891467 0
M  V30 15 C -2.564742 2.377384 -2.167991 0
M  V30 16 C -1.549412 1.623195 -1.613823 0
M  V30 17 C -1.355983 0.169788 -1.816597 0
M  V30 18 O -0.418055 -0.512267 -1.300955 0
M  V30 19 N -2.223545 -0.614760 -2.626842 0
M  V30 20 C -1.743360 -1.975649 -2.601056 0
M  V30 21 C -0.820915 -2.263785 -3.611140 0
M  V30 22 C -0.312806 -3.544095 -3.656625 0
M  V30 23 C -0.655419 -4.548366 -2.775244 0
M  V30 24 C -1.569750 -4.203920 -1.800852 0
M  V30 25 C -2.119766 -2.943049 -1.694662 0
M  V30 26 C -2.001384 -5.218883 -0.804494 0
M  V30 27 N -1.924898 -6.516097 -1.450534 0
M  V30 28 C -2.801106 -6.504742 -2.603027 0
M  V30 29 C -0.558348 -6.798949 -1.822289 0
M  V30 30 C -0.045016 -5.884011 -2.922050 0
M  V30 31 C -0.593151 2.216248 -0.785049 0
M  V30 32 C 0.936415 1.598989 3.934203 0
M  V30 33 C 1.089220 0.804513 5.055270 0
M  V30 34 C -0.037309 0.606318 5.989187 0
M  V30 35 H 3.620721 -2.015973 7.394890 0
M  V30 36 H 4.166683 -1.710415 5.733538 0
M  V30 37 H 4.475199 -0.443214 6.957518 0
M  V30 38 H 4.307326 -0.049584 4.544996 0
M  V30 39 H 4.028974 1.372299 2.541395 0
M  V30 40 H -0.232874 3.216247 2.132772 0
M  V30 41 H 1.289993 4.227154 -0.256566 0
M  V30 42 H -1.065878 5.665621 1.036528 0
M  V30 43 H 0.168338 6.191908 -0.159276 0
M  V30 44 H 0.610784 5.945249 1.561762 0
M  V30 45 H -1.741403 5.382712 -0.867171 0
M  V30 46 H -3.436851 4.282988 -2.347821 0
M  V30 47 H -3.265754 1.845022 -2.798533 0
M  V30 48 H -3.032913 -0.159771 -3.103267 0
M  V30 49 H -0.483645 -1.551164 -4.353068 0
M  V30 50 H 0.408808 -3.788587 -4.438146 0
M  V30 51 H -2.825896 -2.652825 -0.953114 0
M  V30 52 H -3.018345 -5.062487 -0.429966 0
M  V30 53 H -1.268327 -5.144169 0.031306 0
M  V30 54 H -3.390701 -5.563102 -2.668698 0
M  V30 55 H -2.239255 -6.730430 -3.521873 0
M  V30 56 H -3.575037 -7.311100 -2.526637 0
M  V30 57 H -0.530959 -7.837853 -2.227845 0
M  V30 58 H 0.067989 -6.744028 -0.918105 0
M  V30 59 H 1.055384 -5.812421 -2.809516 0
M  V30 60 H -0.248121 -6.315614 -3.923972 0
M  V30 61 H 0.221833 1.627110 -0.336421 0
M  V30 62 H -0.034964 2.050418 3.794091 0
M  V30 63 H -0.678271 -0.204215 5.552313 0
M  V30 64 H -0.668959 1.511080 6.104182 0
M  V30 65 H 0.318370 0.268595 6.988586 0
M  V30 END ATOM
M  V30 BEGIN BOND
M  V30 1 1 1 2
M  V30 2 1 2 3
M  V30 3 2 3 4
M  V30 4 1 4 5
M  V30 5 2 5 6
M  V30 6 1 6 7
M  V30 7 2 7 8
M  V30 8 1 7 9
M  V30 9 1 9 10
M  V30 10 1 10 11
M  V30 11 1 10 12
M  V30 12 2 12 13
M  V30 13 1 13 14
M  V30 14 2 14 15
M  V30 15 1 15 16
M  V30 16 1 16 17
M  V30 17 2 17 18
M  V30 18 1 17 19
M  V30 19 1 19 20
M  V30 20 2 20 21
M  V30 21 1 21 22
M  V30 22 2 22 23
M  V30 23 1 23 24
M  V30 24 2 24 25
M  V30 25 1 24 26
M  V30 26 1 26 27
M  V30 27 1 27 28
M  V30 28 1 27 29
M  V30 29 1 29 30
M  V30 30 2 16 31
M  V30 31 1 6 32
M  V30 32 2 32 33
M  V30 33 1 33 34
M  V30 34 1 33 3
M  V30 35 1 31 12
M  V30 36 1 25 20
M  V30 37 1 30 23
M  V30 38 1 1 35
M  V30 39 1 1 36
M  V30 40 1 1 37
M  V30 41 1 4 38
M  V30 42 1 5 39
M  V30 43 1 9 40
M  V30 44 1 10 41 CFG=3
M  V30 45 1 11 42
M  V30 46 1 11 43
M  V30 47 1 11 44
M  V30 48 1 13 45
M  V30 49 1 14 46
M  V30 50 1 15 47
M  V30 51 1 19 48
M  V30 52 1 21 49
M  V30 53 1 22 50
M  V30 54 1 25 51
M  V30 55 1 26 52
M  V30 56 1 26 53
M  V30 57 1 28 54
M  V30 58 1 28 55
M  V30 59 1 28 56
M  V30 60 1 29 57
M  V30 61 1 29 58
M  V30 62 1 30 59
M  V30 63 1 30 60
M  V30 64 1 31 61
M  V30 65 1 32 62
M  V30 66 1 34 63
M  V30 67 1 34 64
M  V30 68 1 34 65
M  V30 END BOND
M  V30 END CTAB
M  END
>  <Dataset>  (642) 
ChEMBL_Kinases

>  <Ligand_Instance>  (642) 
nan

>  <PDB_ID>  (642) 
nan

>  <Standardized_SMILES>  (642) 
COc1ccc(C(=O)N[C@H](C)c2cccc(C(=O)Nc3ccc4c(c3)CN(C)CC4)c2)cc1C

>  <Name>  (642) 
nan

>  <Pocket>  (642) 
nan

>  <ATP_Site>  (642) 
nan

>  <Peripheral>  (642) 
nan

>  <Num_H_Atoms_ProtBoundConf>  (642) 
nan

>  <Num_Resolved_Atoms>  (642) 
nan

>  <Num_Not_Resolved_Atoms>  (642) 
nan

$$$$
CHEMBL3730401
     RDKit          3D

  0  0  0  0  0  0  0  0  0  0999 V3000
M  V30 BEGIN CTAB
M  V30 COUNTS 61 64 0 0 0
M  V30 BEGIN ATOM
M  V30 1 C 2.265032 2.519829 2.343961 0
M  V30 2 C 2.279460 3.056135 0.953183 0
M  V30 3 N 3.224015 2.354052 0.071996 0
M  V30 4 C 4.565327 2.901645 0.032746 0
M  V30 5 C 5.502508 2.304124 1.044518 0
M  V30 6 C 2.792224 1.204255 -0.697202 0
M  V30 7 O 3.671392 0.666812 -1.413870 0
M  V30 8 C 1.433862 0.796664 -0.573683 0
M  V30 9 C 0.971845 1.610926 -1.699121 0
M  V30 10 S -0.912188 1.249557 -1.829493 0
M  V30 11 C -0.901345 0.152121 -0.493942 0
M  V30 12 C -1.845650 -0.607173 0.167165 0
M  V30 13 N -3.133300 -0.509548 -0.394415 0
M  V30 14 C -4.238275 -1.213755 0.155484 0
M  V30 15 C -4.086398 -2.677423 0.345666 0 CFG=1
M  V30 16 N -5.353920 -3.164596 0.917478 0
M  V30 17 C -3.821861 -3.497233 -0.862780 0
M  V30 18 C -2.598402 -3.174596 -1.607757 0
M  V30 19 C -2.549773 -2.279361 -2.680592 0
M  V30 20 C -1.347658 -2.036182 -3.308303 0
M  V30 21 C -0.222150 -2.678517 -2.866636 0
M  V30 22 C -0.173480 -3.581343 -1.812134 0
M  V30 23 C -1.429579 -3.781228 -1.220766 0
M  V30 24 N -1.548205 -1.383139 1.225469 0
M  V30 25 C -0.235606 -1.379729 1.616351 0
M  V30 26 C 0.107344 -2.219909 2.791263 0
M  V30 27 C 1.425134 -2.262976 3.204180 0
M  V30 28 C 1.686237 -3.061692 4.303024 0
M  V30 29 N 0.705563 -3.740296 4.910571 0
M  V30 30 C -0.573656 -3.692066 4.501759 0
M  V30 31 C -0.919918 -2.906692 3.396153 0
M  V30 32 N 0.724652 -0.640535 0.982132 0
M  V30 33 C 0.378011 0.130829 -0.083464 0
M  V30 34 H 1.712945 3.210443 2.999155 0
M  V30 35 H 3.268565 2.257178 2.728477 0
M  V30 36 H 1.690698 1.575106 2.342476 0
M  V30 37 H 2.534684 4.112160 0.918255 0
M  V30 38 H 1.269216 2.864931 0.486976 0
M  V30 39 H 5.059996 2.793334 -0.965123 0
M  V30 40 H 4.483184 4.019938 0.158740 0
M  V30 41 H 5.160867 1.397581 1.535225 0
M  V30 42 H 6.504789 2.037357 0.594120 0
M  V30 43 H 5.773891 3.116278 1.776530 0
M  V30 44 H 1.111940 2.367878 -2.575712 0
M  V30 45 H -3.379065 0.073437 -1.233724 0
M  V30 46 H -4.399647 -0.779456 1.188501 0
M  V30 47 H -5.203358 -1.032315 -0.380791 0
M  V30 48 H -3.317630 -2.939140 1.105146 0
M  V30 49 H -6.121041 -2.696860 0.416352 0
M  V30 50 H -5.384713 -4.183268 0.788995 0
M  V30 51 H -3.747920 -4.573123 -0.545083 0
M  V30 52 H -4.720862 -3.502785 -1.551842 0
M  V30 53 H -3.472843 -1.804393 -2.979680 0
M  V30 54 H -1.313771 -1.341520 -4.137623 0
M  V30 55 H 0.735818 -2.491137 -3.359085 0
M  V30 56 H 0.694770 -4.091527 -1.452546 0
M  V30 57 H -1.447638 -4.490062 -0.378558 0
M  V30 58 H 2.212041 -1.717664 2.717048 0
M  V30 59 H 2.690395 -3.170551 4.714241 0
M  V30 60 H -1.315821 -4.265684 5.038179 0
M  V30 61 H -1.948548 -2.865713 3.067838 0
M  V30 END ATOM
M  V30 BEGIN BOND
M  V30 1 1 1 2
M  V30 2 1 2 3
M  V30 3 1 3 4
M  V30 4 1 4 5
M  V30 5 1 3 6
M  V30 6 2 6 7
M  V30 7 1 6 8
M  V30 8 2 8 9
M  V30 9 1 9 10
M  V30 10 1 10 11
M  V30 11 2 11 12
M  V30 12 1 12 13
M  V30 13 1 13 14
M  V30 14 1 14 15
M  V30 15 1 15 16
M  V30 16 1 15 17
M  V30 17 1 17 18
M  V30 18 2 18 19
M  V30 19 1 19 20
M  V30 20 2 20 21
M  V30 21 1 21 22
M  V30 22 2 22 23
M  V30 23 1 12 24
M  V30 24 2 24 25
M  V30 25 1 25 26
M  V30 26 2 26 27
M  V30 27 1 27 28
M  V30 28 2 28 29
M  V30 29 1 29 30
M  V30 30 2 30 31
M  V30 31 1 25 32
M  V30 32 2 32 33
M  V30 33 1 33 8
M  V30 34 1 33 11
M  V30 35 1 23 18
M  V30 36 1 31 26
M  V30 37 1 1 34
M  V30 38 1 1 35
M  V30 39 1 1 36
M  V30 40 1 2 37
M  V30 41 1 2 38
M  V30 42 1 4 39
M  V30 43 1 4 40
M  V30 44 1 5 41
M  V30 45 1 5 42
M  V30 46 1 5 43
M  V30 47 1 9 44
M  V30 48 1 13 45
M  V30 49 1 14 46
M  V30 50 1 14 47
M  V30 51 1 15 48 CFG=1
M  V30 52 1 16 49
M  V30 53 1 16 50
M  V30 54 1 17 51
M  V30 55 1 17 52
M  V30 56 1 19 53
M  V30 57 1 20 54
M  V30 58 1 21 55
M  V30 59 1 22 56
M  V30 60 1 23 57
M  V30 61 1 27 58
M  V30 62 1 28 59
M  V30 63 1 30 60
M  V30 64 1 31 61
M  V30 END BOND
M  V30 END CTAB
M  END
>  <Dataset>  (643) 
ChEMBL_Kinases

>  <Ligand_Instance>  (643) 
nan

>  <PDB_ID>  (643) 
nan

>  <Standardized_SMILES>  (643) 
CCN(CC)C(=O)c1csc2c(NC[C@@H](N)Cc3ccccc3)nc(-c3ccncc3)nc12

>  <Name>  (643) 
nan

>  <Pocket>  (643) 
nan

>  <ATP_Site>  (643) 
nan

>  <Peripheral>  (643) 
nan

>  <Num_H_Atoms_ProtBoundConf>  (643) 
nan

>  <Num_Resolved_Atoms>  (643) 
nan

>  <Num_Not_Resolved_Atoms>  (643) 
nan

$$$$
CHEMBL3730395
     RDKit          3D

  0  0  0  0  0  0  0  0  0  0999 V3000
M  V30 BEGIN CTAB
M  V30 COUNTS 58 63 0 0 0
M  V30 BEGIN ATOM
M  V30 1 C 4.907885 -2.224829 5.833695 0
M  V30 2 C 5.586629 -2.634058 4.681424 0
M  V30 3 N 4.799539 -3.508478 3.987634 0
M  V30 4 C 5.015910 -4.218507 2.747113 0
M  V30 5 C 4.521112 -3.382938 1.598242 0
M  V30 6 C 5.318780 -2.499617 0.916213 0
M  V30 7 C 4.817245 -1.765172 -0.109664 0
M  V30 8 C 3.511049 -1.840504 -0.538757 0
M  V30 9 N 2.966270 -1.102748 -1.615357 0
M  V30 10 C 1.692673 -0.531609 -1.839998 0
M  V30 11 C 0.668916 -0.442537 -0.941269 0
M  V30 12 C -0.566727 0.102648 -1.212119 0
M  V30 13 C -1.627107 0.162214 -0.209190 0
M  V30 14 N -2.825131 0.686899 -0.604566 0
M  V30 15 C -3.769196 0.728302 0.344944 0
M  V30 16 N -5.072403 1.224209 0.125181 0
M  V30 17 C -5.399234 1.691331 -1.182361 0 CFG=2
M  V30 18 C -5.249301 0.676163 -2.258129 0
M  V30 19 C -4.742530 1.355015 -3.480459 0
M  V30 20 N -4.528679 2.712927 -3.111273 0
M  V30 21 C -4.532671 2.828480 -1.682190 0
M  V30 22 C -3.499139 0.253411 1.643079 0
M  V30 23 S -4.523935 0.180859 3.065608 0
M  V30 24 C -3.173240 -0.600181 4.152902 0
M  V30 25 C -2.077398 -0.711729 3.270267 0
M  V30 26 C -2.272239 -0.269180 1.998035 0
M  V30 27 N -1.353596 -0.292423 1.016008 0
M  V30 28 C -0.817991 0.601925 -2.467989 0
M  V30 29 C 0.237983 0.503975 -3.373572 0
M  V30 30 N 1.427590 -0.037743 -3.061203 0
M  V30 31 C 2.704973 -2.735006 0.152262 0
M  V30 32 C 3.213875 -3.496173 1.211357 0
M  V30 33 C 3.654853 -3.638264 4.697577 0
M  V30 34 N 3.713346 -2.875271 5.799357 0
M  V30 35 H 5.321186 -1.530963 6.550106 0
M  V30 36 H 6.588387 -2.353267 4.310519 0
M  V30 37 H 6.110626 -4.412312 2.580527 0
M  V30 38 H 4.501019 -5.194911 2.777928 0
M  V30 39 H 6.374980 -2.400021 1.219514 0
M  V30 40 H 5.461310 -1.074798 -0.635317 0
M  V30 41 H 3.700286 -1.001290 -2.346817 0
M  V30 42 H 0.796506 -0.797812 0.051180 0
M  V30 43 H -5.796196 1.259392 0.874123 0
M  V30 44 H -6.448156 2.056444 -1.204106 0
M  V30 45 H -4.641663 -0.206254 -1.955369 0
M  V30 46 H -6.259097 0.231819 -2.483666 0
M  V30 47 H -5.527322 1.326764 -4.295886 0
M  V30 48 H -3.836206 0.867619 -3.910431 0
M  V30 49 H -3.671268 3.108180 -3.529395 0
M  V30 50 H -5.019997 3.810033 -1.420577 0
M  V30 51 H -3.521552 2.847236 -1.274567 0
M  V30 52 H -3.246506 -0.885111 5.200475 0
M  V30 53 H -1.187067 -1.141899 3.698705 0
M  V30 54 H -1.761497 1.041008 -2.745230 0
M  V30 55 H 0.050659 0.894330 -4.363803 0
M  V30 56 H 1.681042 -2.939590 -0.040442 0
M  V30 57 H 2.583668 -4.211084 1.768669 0
M  V30 58 H 2.763353 -4.232752 4.508325 0
M  V30 END ATOM
M  V30 BEGIN BOND
M  V30 1 2 1 2
M  V30 2 1 2 3
M  V30 3 1 3 4
M  V30 4 1 4 5
M  V30 5 2 5 6
M  V30 6 1 6 7
M  V30 7 2 7 8
M  V30 8 1 8 9
M  V30 9 1 9 10
M  V30 10 2 10 11
M  V30 11 1 11 12
M  V30 12 1 12 13
M  V30 13 2 13 14
M  V30 14 1 14 15
M  V30 15 1 15 16
M  V30 16 1 16 17
M  V30 17 1 17 18
M  V30 18 1 18 19
M  V30 19 1 19 20
M  V30 20 1 20 21
M  V30 21 2 15 22
M  V30 22 1 22 23
M  V30 23 1 23 24
M  V30 24 2 24 25
M  V30 25 1 25 26
M  V30 26 2 26 27
M  V30 27 2 12 28
M  V30 28 1 28 29
M  V30 29 2 29 30
M  V30 30 1 8 31
M  V30 31 2 31 32
M  V30 32 1 3 33
M  V30 33 2 33 34
M  V30 34 1 34 1
M  V30 35 1 32 5
M  V30 36 1 30 10
M  V30 37 1 27 13
M  V30 38 1 21 17
M  V30 39 1 26 22
M  V30 40 1 1 35
M  V30 41 1 2 36
M  V30 42 1 4 37
M  V30 43 1 4 38
M  V30 44 1 6 39
M  V30 45 1 7 40
M  V30 46 1 9 41
M  V30 47 1 11 42
M  V30 48 1 16 43
M  V30 49 1 17 44 CFG=1
M  V30 50 1 18 45
M  V30 51 1 18 46
M  V30 52 1 19 47
M  V30 53 1 19 48
M  V30 54 1 20 49
M  V30 55 1 21 50
M  V30 56 1 21 51
M  V30 57 1 24 52
M  V30 58 1 25 53
M  V30 59 1 28 54
M  V30 60 1 29 55
M  V30 61 1 31 56
M  V30 62 1 32 57
M  V30 63 1 33 58
M  V30 END BOND
M  V30 END CTAB
M  END
>  <Dataset>  (644) 
ChEMBL_Kinases

>  <Ligand_Instance>  (644) 
nan

>  <PDB_ID>  (644) 
nan

>  <Standardized_SMILES>  (644) 
c1cn(Cc2ccc(Nc3cc(-c4nc(N[C@@H]5CCNC5)c5sccc5n4)ccn3)cc2)cn1

>  <Name>  (644) 
nan

>  <Pocket>  (644) 
nan

>  <ATP_Site>  (644) 
nan

>  <Peripheral>  (644) 
nan

>  <Num_H_Atoms_ProtBoundConf>  (644) 
nan

>  <Num_Resolved_Atoms>  (644) 
nan

>  <Num_Not_Resolved_Atoms>  (644) 
nan

$$$$
CHEMBL3730394
     RDKit          3D

  0  0  0  0  0  0  0  0  0  0999 V3000
M  V30 BEGIN CTAB
M  V30 COUNTS 44 46 0 0 0
M  V30 BEGIN ATOM
M  V30 1 C -1.267537 -4.782064 1.713104 0
M  V30 2 C 0.196728 -4.406291 1.694617 0
M  V30 3 C 0.914013 -4.803464 2.941395 0
M  V30 4 C 0.847268 -5.184077 0.540130 0
M  V30 5 C 0.363103 -3.021469 1.427454 0
M  V30 6 C 1.437849 -2.160157 1.316374 0
M  V30 7 C 1.179055 -0.861480 1.038809 0
M  V30 8 N 2.129484 0.071385 0.906578 0
M  V30 9 C 1.918096 1.343123 0.637676 0
M  V30 10 C 2.984085 2.320723 0.505564 0
M  V30 11 C 2.707619 3.633934 0.211273 0
M  V30 12 C 3.833314 4.460726 0.113268 0
M  V30 13 N 5.072379 3.987687 0.295686 0
M  V30 14 C 5.312323 2.696284 0.582994 0
M  V30 15 C 4.247405 1.807416 0.698179 0
M  V30 16 N 0.659837 1.777016 0.476019 0
M  V30 17 C -0.395983 0.952944 0.580066 0
M  V30 18 N -1.770486 1.088249 0.474361 0
M  V30 19 C -3.139791 1.223113 0.369041 0
M  V30 20 C -3.694913 1.760053 -0.960710 0
M  V30 21 N -3.195529 3.065868 -1.245830 0
M  V30 22 C -0.160298 -0.442102 0.875350 0
M  V30 23 S -1.090158 -1.866785 1.108956 0
M  V30 24 H -1.435255 -5.676646 1.116393 0
M  V30 25 H -1.894051 -3.965425 1.247307 0
M  V30 26 H -1.532523 -4.926113 2.783709 0
M  V30 27 H 0.896759 -5.923792 3.003724 0
M  V30 28 H 1.983112 -4.472680 2.799765 0
M  V30 29 H 0.454999 -4.330632 3.815669 0
M  V30 30 H 1.680278 -4.585017 0.089313 0
M  V30 31 H 0.112575 -5.386835 -0.267715 0
M  V30 32 H 1.269156 -6.135420 0.869711 0
M  V30 33 H 2.380813 -2.661796 1.472717 0
M  V30 34 H 1.683030 3.936946 0.078587 0
M  V30 35 H 3.614235 5.509242 -0.121932 0
M  V30 36 H 6.342938 2.367466 0.721497 0
M  V30 37 H 4.448511 0.778846 0.928269 0
M  V30 38 H -1.726675 2.143989 0.263473 0
M  V30 39 H -3.700986 0.236237 0.581361 0
M  V30 40 H -3.649273 1.859961 1.147309 0
M  V30 41 H -4.798705 1.846152 -0.908572 0
M  V30 42 H -3.472103 1.122140 -1.814153 0
M  V30 43 H -3.907949 3.807904 -1.276721 0
M  V30 44 H -2.438861 3.124019 -1.952477 0
M  V30 END ATOM
M  V30 BEGIN BOND
M  V30 1 1 1 2
M  V30 2 1 2 3
M  V30 3 1 2 4
M  V30 4 1 2 5
M  V30 5 2 5 6
M  V30 6 1 6 7
M  V30 7 2 7 8
M  V30 8 1 8 9
M  V30 9 1 9 10
M  V30 10 2 10 11
M  V30 11 1 11 12
M  V30 12 2 12 13
M  V30 13 1 13 14
M  V30 14 2 14 15
M  V30 15 2 9 16
M  V30 16 1 16 17
M  V30 17 1 17 18
M  V30 18 1 18 19
M  V30 19 1 19 20
M  V30 20 1 20 21
M  V30 21 2 17 22
M  V30 22 1 22 23
M  V30 23 1 23 5
M  V30 24 1 22 7
M  V30 25 1 15 10
M  V30 26 1 1 24
M  V30 27 1 1 25
M  V30 28 1 1 26
M  V30 29 1 3 27
M  V30 30 1 3 28
M  V30 31 1 3 29
M  V30 32 1 4 30
M  V30 33 1 4 31
M  V30 34 1 4 32
M  V30 35 1 6 33
M  V30 36 1 11 34
M  V30 37 1 12 35
M  V30 38 1 14 36
M  V30 39 1 15 37
M  V30 40 1 18 38
M  V30 41 1 19 39
M  V30 42 1 19 40
M  V30 43 1 20 41
M  V30 44 1 20 42
M  V30 45 1 21 43
M  V30 46 1 21 44
M  V30 END BOND
M  V30 END CTAB
M  END
>  <Dataset>  (645) 
ChEMBL_Kinases

>  <Ligand_Instance>  (645) 
nan

>  <PDB_ID>  (645) 
nan

>  <Standardized_SMILES>  (645) 
CC(C)(C)c1cc2nc(-c3ccncc3)nc(NCCN)c2s1

>  <Name>  (645) 
nan

>  <Pocket>  (645) 
nan

>  <ATP_Site>  (645) 
nan

>  <Peripheral>  (645) 
nan

>  <Num_H_Atoms_ProtBoundConf>  (645) 
nan

>  <Num_Resolved_Atoms>  (645) 
nan

>  <Num_Not_Resolved_Atoms>  (645) 
nan

$$$$
CHEMBL3730389
     RDKit          3D

  0  0  0  0  0  0  0  0  0  0999 V3000
M  V30 BEGIN CTAB
M  V30 COUNTS 41 43 0 0 0
M  V30 BEGIN ATOM
M  V30 1 C -0.883085 -4.401229 -2.103912 0
M  V30 2 N 0.533124 -4.344975 -1.975964 0
M  V30 3 C 1.003639 -4.617971 -0.627069 0
M  V30 4 C 1.145810 -3.147686 -2.515146 0
M  V30 5 C 0.805529 -1.924644 -1.732598 0
M  V30 6 N 1.452794 -0.730128 -2.305480 0
M  V30 7 C 1.290094 0.428086 -1.724794 0
M  V30 8 N 1.815772 1.673045 -2.105468 0
M  V30 9 C 1.928207 2.615555 -1.081060 0
M  V30 10 O 2.389663 3.802516 -1.255281 0
M  V30 11 C 1.477304 2.149109 0.221614 0
M  V30 12 C 1.871990 2.623090 1.399765 0
M  V30 13 C 1.268575 1.987404 2.590585 0
M  V30 14 C 1.947445 1.604579 3.738372 0
M  V30 15 C 1.221761 1.038279 4.769574 0
M  V30 16 C -0.137779 0.849404 4.683872 0
M  V30 17 N -0.732130 0.290244 5.750520 0
M  V30 18 C -2.070301 0.077140 5.732139 0
M  V30 19 C -2.801391 0.444342 4.602356 0
M  V30 20 C -2.204688 1.025193 3.485058 0
M  V30 21 C -0.829943 1.214357 3.572763 0
M  V30 22 C -0.114992 1.783798 2.529350 0
M  V30 23 S 0.334474 0.813619 -0.232336 0
M  V30 24 H -1.198237 -5.463538 -2.293479 0
M  V30 25 H -1.349704 -4.093861 -1.145656 0
M  V30 26 H -1.294670 -3.716343 -2.862423 0
M  V30 27 H 0.706306 -5.654629 -0.371724 0
M  V30 28 H 2.127911 -4.542328 -0.665077 0
M  V30 29 H 0.588599 -3.931914 0.129454 0
M  V30 30 H 2.260491 -3.293155 -2.467831 0
M  V30 31 H 0.852319 -3.076553 -3.577788 0
M  V30 32 H -0.284185 -1.737449 -1.831174 0
M  V30 33 H 1.018969 -2.001486 -0.666996 0
M  V30 34 H 2.096770 1.847630 -3.119096 0
M  V30 35 H 2.595351 3.426136 1.427859 0
M  V30 36 H 3.026292 1.785436 3.729890 0
M  V30 37 H 1.795587 0.744730 5.663211 0
M  V30 38 H -2.743532 -0.348795 6.458180 0
M  V30 39 H -3.887517 0.327386 4.463842 0
M  V30 40 H -2.729390 1.320121 2.597973 0
M  V30 41 H -0.740400 2.059435 1.669060 0
M  V30 END ATOM
M  V30 BEGIN BOND
M  V30 1 1 1 2
M  V30 2 1 2 3
M  V30 3 1 2 4
M  V30 4 1 4 5
M  V30 5 1 5 6
M  V30 6 2 6 7
M  V30 7 1 7 8
M  V30 8 1 8 9
M  V30 9 2 9 10
M  V30 10 1 9 11
M  V30 11 2 11 12
M  V30 12 1 12 13
M  V30 13 2 13 14
M  V30 14 1 14 15
M  V30 15 2 15 16
M  V30 16 1 16 17
M  V30 17 2 17 18
M  V30 18 1 18 19
M  V30 19 2 19 20
M  V30 20 1 20 21
M  V30 21 2 21 22
M  V30 22 1 11 23
M  V30 23 1 23 7
M  V30 24 1 22 13
M  V30 25 1 21 16
M  V30 26 1 1 24
M  V30 27 1 1 25
M  V30 28 1 1 26
M  V30 29 1 3 27
M  V30 30 1 3 28
M  V30 31 1 3 29
M  V30 32 1 4 30
M  V30 33 1 4 31
M  V30 34 1 5 32
M  V30 35 1 5 33
M  V30 36 1 8 34
M  V30 37 1 12 35
M  V30 38 1 14 36
M  V30 39 1 15 37
M  V30 40 1 18 38
M  V30 41 1 19 39
M  V30 42 1 20 40
M  V30 43 1 22 41
M  V30 END BOND
M  V30 END CTAB
M  END
>  <Dataset>  (646) 
ChEMBL_Kinases

>  <Ligand_Instance>  (646) 
nan

>  <PDB_ID>  (646) 
nan

>  <Standardized_SMILES>  (646) 
CN(C)CC/N=C1/NC(=O)/C(=C/c2ccc3ncccc3c2)S1

>  <Name>  (646) 
nan

>  <Pocket>  (646) 
nan

>  <ATP_Site>  (646) 
nan

>  <Peripheral>  (646) 
nan

>  <Num_H_Atoms_ProtBoundConf>  (646) 
nan

>  <Num_Resolved_Atoms>  (646) 
nan

>  <Num_Not_Resolved_Atoms>  (646) 
nan

$$$$
CHEMBL3730379
     RDKit          3D

  0  0  0  0  0  0  0  0  0  0999 V3000
M  V30 BEGIN CTAB
M  V30 COUNTS 43 46 0 0 0
M  V30 BEGIN ATOM
M  V30 1 C -0.867209 -3.860470 0.259355 0
M  V30 2 C 0.589648 -4.084204 0.498715 0 CFG=2
M  V30 3 N 1.016385 -4.338645 1.821803 0
M  V30 4 C 1.391357 -3.057742 -0.281697 0
M  V30 5 N 1.133588 -1.695288 0.014111 0
M  V30 6 C 1.114152 -0.225303 0.048138 0
M  V30 7 N 1.797447 0.567751 -0.746439 0
M  V30 8 C 1.914484 1.829636 -0.916404 0
M  V30 9 C 2.740237 2.538433 -1.868771 0
M  V30 10 C 4.096080 2.397213 -2.082114 0
M  V30 11 N 4.421743 3.261232 -3.062495 0
M  V30 12 N 3.322560 3.908633 -3.440969 0
M  V30 13 C 2.255300 3.497968 -2.733078 0
M  V30 14 N 1.138715 2.439988 -0.060132 0
M  V30 15 C 0.367144 1.775841 0.830964 0
M  V30 16 S -0.779093 2.462692 2.092753 0
M  V30 17 C -1.306686 0.848939 2.737324 0
M  V30 18 C -0.575661 0.015418 1.946228 0
M  V30 19 C 0.290321 0.386353 0.961079 0
M  V30 20 C -0.943997 -1.334289 2.460329 0
M  V30 21 C -1.229842 -1.329456 3.942506 0
M  V30 22 C -2.545388 -0.582923 4.177855 0
M  V30 23 C -2.246357 0.835568 3.784416 0
M  V30 24 H -1.339929 -4.602345 -0.420753 0
M  V30 25 H -1.442795 -3.962388 1.216950 0
M  V30 26 H -1.088058 -2.811561 -0.086810 0
M  V30 27 H 0.840048 -5.062631 -0.067569 0
M  V30 28 H 1.764249 -3.749788 2.205765 0
M  V30 29 H 0.262809 -4.403265 2.534649 0
M  V30 30 H 2.492077 -3.299489 -0.072671 0
M  V30 31 H 1.275542 -3.326909 -1.387262 0
M  V30 32 H 1.832416 -1.653417 -0.757442 0
M  V30 33 H 4.764331 1.723712 -1.562380 0
M  V30 34 H 3.313795 4.636191 -4.191484 0
M  V30 35 H 1.229482 3.838303 -2.813275 0
M  V30 36 H -1.814354 -1.693987 1.913996 0
M  V30 37 H -0.092255 -2.036145 2.345912 0
M  V30 38 H -1.434932 -2.385201 4.215839 0
M  V30 39 H -0.405155 -0.919087 4.528720 0
M  V30 40 H -3.262124 -0.981763 3.442725 0
M  V30 41 H -2.861307 -0.617829 5.216274 0
M  V30 42 H -1.932309 1.370600 4.730742 0
M  V30 43 H -3.221490 1.300274 3.513388 0
M  V30 END ATOM
M  V30 BEGIN BOND
M  V30 1 1 1 2
M  V30 2 1 2 3
M  V30 3 1 2 4
M  V30 4 1 4 5
M  V30 5 1 5 6
M  V30 6 2 6 7
M  V30 7 1 7 8
M  V30 8 1 8 9
M  V30 9 1 9 10
M  V30 10 2 10 11
M  V30 11 1 11 12
M  V30 12 1 12 13
M  V30 13 2 8 14
M  V30 14 1 14 15
M  V30 15 1 15 16
M  V30 16 1 16 17
M  V30 17 2 17 18
M  V30 18 1 18 19
M  V30 19 1 18 20
M  V30 20 1 20 21
M  V30 21 1 21 22
M  V30 22 1 22 23
M  V30 23 1 19 6
M  V30 24 2 13 9
M  V30 25 2 19 15
M  V30 26 1 23 17
M  V30 27 1 1 24
M  V30 28 1 1 25
M  V30 29 1 1 26
M  V30 30 1 2 27 CFG=3
M  V30 31 1 3 28
M  V30 32 1 3 29
M  V30 33 1 4 30
M  V30 34 1 4 31
M  V30 35 1 5 32
M  V30 36 1 10 33
M  V30 37 1 12 34
M  V30 38 1 13 35
M  V30 39 1 20 36
M  V30 40 1 20 37
M  V30 41 1 21 38
M  V30 42 1 21 39
M  V30 43 1 22 40
M  V30 44 1 22 41
M  V30 45 1 23 42
M  V30 46 1 23 43
M  V30 END BOND
M  V30 END CTAB
M  END
>  <Dataset>  (647) 
ChEMBL_Kinases

>  <Ligand_Instance>  (647) 
nan

>  <PDB_ID>  (647) 
nan

>  <Standardized_SMILES>  (647) 
C[C@H](N)CNc1nc(-c2cn[nH]c2)nc2sc3c(c12)CCCC3

>  <Name>  (647) 
nan

>  <Pocket>  (647) 
nan

>  <ATP_Site>  (647) 
nan

>  <Peripheral>  (647) 
nan

>  <Num_H_Atoms_ProtBoundConf>  (647) 
nan

>  <Num_Resolved_Atoms>  (647) 
nan

>  <Num_Not_Resolved_Atoms>  (647) 
nan

$$$$
CHEMBL3704386
     RDKit          3D

  0  0  0  0  0  0  0  0  0  0999 V3000
M  V30 BEGIN CTAB
M  V30 COUNTS 62 65 0 0 0
M  V30 BEGIN ATOM
M  V30 1 C 5.152922 -1.582003 5.880381 0
M  V30 2 O 3.861615 -0.998724 5.880816 0
M  V30 3 C 3.427036 -0.123616 4.895212 0
M  V30 4 C 4.149583 0.303205 3.801252 0
M  V30 5 C 3.612784 1.179590 2.880914 0
M  V30 6 C 2.335486 1.673818 3.001410 0
M  V30 7 C 1.815302 2.597749 2.000996 0
M  V30 8 O 2.566412 2.913342 1.050035 0
M  V30 9 N 0.514878 3.129219 2.082178 0
M  V30 10 C -0.141675 4.047155 1.179719 0 CFG=2
M  V30 11 C -0.504398 5.357568 1.838232 0
M  V30 12 C -1.341494 3.407242 0.538886 0
M  V30 13 C -2.565527 4.029553 0.411474 0
M  V30 14 C -3.625991 3.380013 -0.189344 0
M  V30 15 C -3.469436 2.096488 -0.669762 0
M  V30 16 C -2.243786 1.475988 -0.541106 0
M  V30 17 C -1.973608 0.107592 -1.020683 0
M  V30 18 O -0.834923 -0.458086 -0.897235 0
M  V30 19 N -2.915820 -0.724120 -1.658722 0
M  V30 20 C -2.266716 -1.975820 -1.971590 0
M  V30 21 C -1.664799 -1.981639 -3.227417 0
M  V30 22 C -1.003292 -3.109667 -3.669501 0
M  V30 23 C -0.966173 -4.211062 -2.826087 0
M  V30 24 C -1.567907 -4.192147 -1.581605 0
M  V30 25 C -2.232192 -3.068964 -1.129669 0
M  V30 26 C -1.529836 -5.377481 -0.670017 0
M  V30 27 N -1.396088 -6.551887 -1.505152 0
M  V30 28 C -2.527753 -6.808101 -2.340370 0
M  V30 29 C -0.146468 -6.404968 -2.228251 0
M  V30 30 C -0.246494 -5.402554 -3.336794 0
M  V30 31 C -1.184461 2.126182 0.059636 0
M  V30 32 C 1.608868 1.249843 4.093898 0
M  V30 33 C 2.129806 0.370350 5.029207 0
M  V30 34 Cl 1.135190 -0.116495 6.388625 0
M  V30 35 H 5.164827 -2.539538 5.321188 0
M  V30 36 H 5.889839 -0.872460 5.451522 0
M  V30 37 H 5.368827 -1.838278 6.937847 0
M  V30 38 H 5.156674 -0.091792 3.714091 0
M  V30 39 H 4.238997 1.466795 2.052762 0
M  V30 40 H -0.137197 2.889819 2.857725 0
M  V30 41 H 0.583785 4.278004 0.371066 0
M  V30 42 H -0.842731 6.043579 1.032697 0
M  V30 43 H -1.197492 5.259402 2.676539 0
M  V30 44 H 0.473174 5.791180 2.178498 0
M  V30 45 H -2.599254 5.030285 0.813680 0
M  V30 46 H -4.572009 3.897389 -0.272722 0
M  V30 47 H -4.275959 1.556041 -1.145848 0
M  V30 48 H -3.894731 -0.335867 -1.805182 0
M  V30 49 H -1.684258 -1.128135 -3.900459 0
M  V30 50 H -0.529343 -3.134276 -4.641734 0
M  V30 51 H -2.727025 -2.976331 -0.170588 0
M  V30 52 H -2.379098 -5.391561 0.014560 0
M  V30 53 H -0.567991 -5.293069 -0.110784 0
M  V30 54 H -3.269879 -5.966206 -2.335943 0
M  V30 55 H -2.258950 -7.007779 -3.394179 0
M  V30 56 H -3.052165 -7.730613 -1.963341 0
M  V30 57 H 0.302632 -7.365275 -2.542432 0
M  V30 58 H 0.587723 -5.979206 -1.485537 0
M  V30 59 H 0.800829 -5.164708 -3.670022 0
M  V30 60 H -0.740362 -5.805125 -4.249303 0
M  V30 61 H -0.216991 1.630829 0.158811 0
M  V30 62 H 0.615904 1.597089 4.241227 0
M  V30 END ATOM
M  V30 BEGIN BOND
M  V30 1 1 1 2
M  V30 2 1 2 3
M  V30 3 2 3 4
M  V30 4 1 4 5
M  V30 5 2 5 6
M  V30 6 1 6 7
M  V30 7 2 7 8
M  V30 8 1 7 9
M  V30 9 1 9 10
M  V30 10 1 10 11
M  V30 11 1 10 12
M  V30 12 2 12 13
M  V30 13 1 13 14
M  V30 14 2 14 15
M  V30 15 1 15 16
M  V30 16 1 16 17
M  V30 17 2 17 18
M  V30 18 1 17 19
M  V30 19 1 19 20
M  V30 20 2 20 21
M  V30 21 1 21 22
M  V30 22 2 22 23
M  V30 23 1 23 24
M  V30 24 2 24 25
M  V30 25 1 24 26
M  V30 26 1 26 27
M  V30 27 1 27 28
M  V30 28 1 27 29
M  V30 29 1 29 30
M  V30 30 2 16 31
M  V30 31 1 6 32
M  V30 32 2 32 33
M  V30 33 1 33 34
M  V30 34 1 33 3
M  V30 35 1 31 12
M  V30 36 1 25 20
M  V30 37 1 30 23
M  V30 38 1 1 35
M  V30 39 1 1 36
M  V30 40 1 1 37
M  V30 41 1 4 38
M  V30 42 1 5 39
M  V30 43 1 9 40
M  V30 44 1 10 41 CFG=3
M  V30 45 1 11 42
M  V30 46 1 11 43
M  V30 47 1 11 44
M  V30 48 1 13 45
M  V30 49 1 14 46
M  V30 50 1 15 47
M  V30 51 1 19 48
M  V30 52 1 21 49
M  V30 53 1 22 50
M  V30 54 1 25 51
M  V30 55 1 26 52
M  V30 56 1 26 53
M  V30 57 1 28 54
M  V30 58 1 28 55
M  V30 59 1 28 56
M  V30 60 1 29 57
M  V30 61 1 29 58
M  V30 62 1 30 59
M  V30 63 1 30 60
M  V30 64 1 31 61
M  V30 65 1 32 62
M  V30 END BOND
M  V30 END CTAB
M  END
>  <Dataset>  (648) 
ChEMBL_Kinases

>  <Ligand_Instance>  (648) 
nan

>  <PDB_ID>  (648) 
nan

>  <Standardized_SMILES>  (648) 
COc1ccc(C(=O)N[C@H](C)c2cccc(C(=O)Nc3ccc4c(c3)CN(C)CC4)c2)cc1Cl

>  <Name>  (648) 
nan

>  <Pocket>  (648) 
nan

>  <ATP_Site>  (648) 
nan

>  <Peripheral>  (648) 
nan

>  <Num_H_Atoms_ProtBoundConf>  (648) 
nan

>  <Num_Resolved_Atoms>  (648) 
nan

>  <Num_Not_Resolved_Atoms>  (648) 
nan

$$$$
CHEMBL3729904
     RDKit          3D

  0  0  0  0  0  0  0  0  0  0999 V3000
M  V30 BEGIN CTAB
M  V30 COUNTS 65 69 0 0 0
M  V30 BEGIN ATOM
M  V30 1 C 5.655509 0.352394 0.161595 0
M  V30 2 O 4.334492 0.358975 -0.320907 0
M  V30 3 C 3.802979 1.434539 -1.057215 0
M  V30 4 C 4.648009 2.513526 -1.297352 0
M  V30 5 C 4.166329 3.601794 -2.021803 0
M  V30 6 C 2.866557 3.540375 -2.460898 0
M  V30 7 C 2.407246 4.724586 -3.226990 0
M  V30 8 C 1.987887 2.501684 -2.252816 0
M  V30 9 C 2.487854 1.447922 -1.539358 0
M  V30 10 C 1.751123 0.241657 -1.198914 0
M  V30 11 C 1.886955 -0.714889 -2.162278 0
M  V30 12 C 2.554937 -0.911895 -3.460488 0
M  V30 13 S 0.859860 -2.164110 -1.508418 0
M  V30 14 C 0.394169 -1.315006 -0.060077 0
M  V30 15 C -0.401287 -1.674278 1.030580 0
M  V30 16 N -0.955145 -2.983216 0.967004 0
M  V30 17 C -1.790873 -3.420515 2.071480 0
M  V30 18 C -2.243927 -4.850560 1.883739 0 CFG=1
M  V30 19 N -3.067419 -5.211016 3.019671 0
M  V30 20 C -3.030641 -5.061653 0.621784 0
M  V30 21 C -4.257090 -4.268876 0.564745 0
M  V30 22 C -4.173920 -3.003081 0.058453 0
M  V30 23 C -5.336774 -2.225478 -0.016392 0
M  V30 24 C -6.543795 -2.757375 0.423291 0
M  V30 25 C -6.663745 -4.042909 0.943212 0
M  V30 26 C -5.467937 -4.768506 0.992041 0
M  V30 27 N -0.633056 -0.846330 2.061364 0
M  V30 28 C -0.024399 0.375085 1.950769 0
M  V30 29 C -0.216603 1.366943 3.034816 0
M  V30 30 C -1.000283 1.019907 4.109590 0
M  V30 31 C -1.215182 1.898377 5.142442 0
M  V30 32 N -0.645155 3.109588 5.088306 0
M  V30 33 C 0.123191 3.486242 4.062481 0
M  V30 34 C 0.370219 2.633618 2.993980 0
M  V30 35 N 0.764982 0.788381 0.910905 0
M  V30 36 C 0.974127 -0.092837 -0.120714 0
M  V30 37 H 6.306664 0.422222 -0.745125 0
M  V30 38 H 5.854295 -0.645198 0.584592 0
M  V30 39 H 5.869169 1.103377 0.933743 0
M  V30 40 H 5.656857 2.476242 -0.914467 0
M  V30 41 H 4.843814 4.417391 -2.189786 0
M  V30 42 H 1.421900 4.577234 -3.720016 0
M  V30 43 H 2.368116 5.654468 -2.657824 0
M  V30 44 H 3.105677 4.934729 -4.090607 0
M  V30 45 H 0.981110 2.460810 -2.595701 0
M  V30 46 H 3.475062 -1.520761 -3.345613 0
M  V30 47 H 1.914195 -1.526444 -4.159086 0
M  V30 48 H 2.864900 0.036382 -3.932453 0
M  V30 49 H -0.805244 -3.643440 0.192643 0
M  V30 50 H -2.717759 -2.799317 2.137188 0
M  V30 51 H -1.293233 -3.352062 3.059184 0
M  V30 52 H -1.380983 -5.555089 1.893866 0
M  V30 53 H -2.654299 -4.685678 3.852478 0
M  V30 54 H -4.041671 -4.852324 2.967395 0
M  V30 55 H -3.319055 -6.156313 0.614972 0
M  V30 56 H -2.383408 -4.947822 -0.275031 0
M  V30 57 H -3.342587 -2.461195 -0.314972 0
M  V30 58 H -5.395510 -1.216317 -0.393561 0
M  V30 59 H -7.454384 -2.179874 0.376371 0
M  V30 60 H -7.618110 -4.411359 1.271212 0
M  V30 61 H -5.569630 -5.778050 1.398056 0
M  V30 62 H -1.470702 0.049555 4.176173 0
M  V30 63 H -1.834696 1.603969 5.976898 0
M  V30 64 H 0.597593 4.460356 3.992695 0
M  V30 65 H 0.971665 2.843640 2.123937 0
M  V30 END ATOM
M  V30 BEGIN BOND
M  V30 1 1 1 2
M  V30 2 1 2 3
M  V30 3 2 3 4
M  V30 4 1 4 5
M  V30 5 2 5 6
M  V30 6 1 6 7
M  V30 7 1 6 8
M  V30 8 2 8 9
M  V30 9 1 9 10
M  V30 10 2 10 11
M  V30 11 1 11 12
M  V30 12 1 11 13
M  V30 13 1 13 14
M  V30 14 2 14 15
M  V30 15 1 15 16
M  V30 16 1 16 17
M  V30 17 1 17 18
M  V30 18 1 18 19
M  V30 19 1 18 20
M  V30 20 1 20 21
M  V30 21 2 21 22
M  V30 22 1 22 23
M  V30 23 2 23 24
M  V30 24 1 24 25
M  V30 25 2 25 26
M  V30 26 1 15 27
M  V30 27 2 27 28
M  V30 28 1 28 29
M  V30 29 2 29 30
M  V30 30 1 30 31
M  V30 31 2 31 32
M  V30 32 1 32 33
M  V30 33 2 33 34
M  V30 34 1 28 35
M  V30 35 2 35 36
M  V30 36 1 9 3
M  V30 37 1 36 10
M  V30 38 1 36 14
M  V30 39 1 26 21
M  V30 40 1 34 29
M  V30 41 1 1 37
M  V30 42 1 1 38
M  V30 43 1 1 39
M  V30 44 1 4 40
M  V30 45 1 5 41
M  V30 46 1 7 42
M  V30 47 1 7 43
M  V30 48 1 7 44
M  V30 49 1 8 45
M  V30 50 1 12 46
M  V30 51 1 12 47
M  V30 52 1 12 48
M  V30 53 1 16 49
M  V30 54 1 17 50
M  V30 55 1 17 51
M  V30 56 1 18 52 CFG=3
M  V30 57 1 19 53
M  V30 58 1 19 54
M  V30 59 1 20 55
M  V30 60 1 20 56
M  V30 61 1 22 57
M  V30 62 1 23 58
M  V30 63 1 24 59
M  V30 64 1 25 60
M  V30 65 1 26 61
M  V30 66 1 30 62
M  V30 67 1 31 63
M  V30 68 1 33 64
M  V30 69 1 34 65
M  V30 END BOND
M  V30 END CTAB
M  END
>  <Dataset>  (649) 
ChEMBL_Kinases

>  <Ligand_Instance>  (649) 
nan

>  <PDB_ID>  (649) 
nan

>  <Standardized_SMILES>  (649) 
COc1ccc(C)cc1-c1c(C)sc2c(NC[C@@H](N)Cc3ccccc3)nc(-c3ccncc3)nc12

>  <Name>  (649) 
nan

>  <Pocket>  (649) 
nan

>  <ATP_Site>  (649) 
nan

>  <Peripheral>  (649) 
nan

>  <Num_H_Atoms_ProtBoundConf>  (649) 
nan

>  <Num_Resolved_Atoms>  (649) 
nan

>  <Num_Not_Resolved_Atoms>  (649) 
nan

$$$$
CHEMBL3729897
     RDKit          3D

  0  0  0  0  0  0  0  0  0  0999 V3000
M  V30 BEGIN CTAB
M  V30 COUNTS 54 58 0 0 0
M  V30 BEGIN ATOM
M  V30 1 N 1.848335 -3.780896 2.766613 0
M  V30 2 C 0.917477 -2.716663 2.319180 0 CFG=2
M  V30 3 C 0.753477 -2.782673 0.849928 0
M  V30 4 N -0.149598 -1.896315 0.223802 0
M  V30 5 C -0.730688 -0.679963 -0.190521 0
M  V30 6 N -0.049638 0.342268 0.307555 0
M  V30 7 C -0.316382 1.625910 0.150397 0
M  V30 8 C 0.312810 2.837633 0.631031 0
M  V30 9 C 1.416479 2.781916 1.456136 0
M  V30 10 C 2.092883 3.844332 1.976676 0
M  V30 11 N 1.639437 5.049885 1.653910 0
M  V30 12 C 0.574350 5.195268 0.859085 0
M  V30 13 C -0.109158 4.135114 0.333174 0
M  V30 14 N -1.397325 1.858433 -0.598915 0
M  V30 15 C -2.123872 0.875496 -1.128239 0
M  V30 16 S -3.646215 0.820893 -2.193904 0
M  V30 17 C -3.738793 -0.918861 -2.299780 0
M  V30 18 C -2.642545 -1.430501 -1.544811 0
M  V30 19 C -1.840882 -0.498790 -0.961741 0
M  V30 20 C -2.828498 -2.871346 -1.715089 0
M  V30 21 C -4.208967 -3.174356 -1.077451 0
M  V30 22 C -5.241338 -2.829685 -2.099963 0
M  V30 23 C -4.708715 -1.743170 -3.005340 0
M  V30 24 C 1.474299 -1.418376 2.867912 0
M  V30 25 C 2.859567 -1.180397 2.386798 0
M  V30 26 C 3.373555 -0.555232 1.275008 0
M  V30 27 C 4.701091 -0.440900 1.011574 0
M  V30 28 N 5.634355 -0.939172 1.831973 0
M  V30 29 C 5.257767 -1.573116 2.952010 0
M  V30 30 C 3.904284 -1.673159 3.192009 0
M  V30 31 H 1.799763 -3.724691 3.826785 0
M  V30 32 H 1.304180 -4.669953 2.559158 0
M  V30 33 H -0.036924 -2.919083 2.820091 0
M  V30 34 H 0.665585 -3.817579 0.468922 0
M  V30 35 H 1.789171 -2.468864 0.419780 0
M  V30 36 H -0.779652 -2.607606 -0.135868 0
M  V30 37 H 1.767874 1.791603 1.710102 0
M  V30 38 H 2.960058 3.684747 2.623253 0
M  V30 39 H 0.187352 6.171314 0.582971 0
M  V30 40 H -0.978674 4.225540 -0.316087 0
M  V30 41 H -2.158310 -3.565661 -1.241075 0
M  V30 42 H -2.978092 -3.161117 -2.809677 0
M  V30 43 H -4.351918 -2.473689 -0.204682 0
M  V30 44 H -4.291140 -4.214460 -0.757252 0
M  V30 45 H -6.223487 -2.578714 -1.649153 0
M  V30 46 H -5.413781 -3.765837 -2.701990 0
M  V30 47 H -5.583253 -1.120579 -3.272405 0
M  V30 48 H -4.367550 -2.203154 -3.946781 0
M  V30 49 H 0.833033 -0.555012 2.730677 0
M  V30 50 H 1.549384 -1.539315 3.989523 0
M  V30 51 H 2.612529 -0.161146 0.620802 0
M  V30 52 H 4.946563 0.080220 0.093994 0
M  V30 53 H 5.971425 -1.992151 3.645297 0
M  V30 54 H 3.639270 -2.201844 4.123300 0
M  V30 END ATOM
M  V30 BEGIN BOND
M  V30 1 1 1 2
M  V30 2 1 2 3
M  V30 3 1 3 4
M  V30 4 1 4 5
M  V30 5 2 5 6
M  V30 6 1 6 7
M  V30 7 1 7 8
M  V30 8 2 8 9
M  V30 9 1 9 10
M  V30 10 2 10 11
M  V30 11 1 11 12
M  V30 12 2 12 13
M  V30 13 2 7 14
M  V30 14 1 14 15
M  V30 15 1 15 16
M  V30 16 1 16 17
M  V30 17 2 17 18
M  V30 18 1 18 19
M  V30 19 1 18 20
M  V30 20 1 20 21
M  V30 21 1 21 22
M  V30 22 1 22 23
M  V30 23 1 2 24
M  V30 24 1 24 25
M  V30 25 2 25 26
M  V30 26 1 26 27
M  V30 27 2 27 28
M  V30 28 1 28 29
M  V30 29 2 29 30
M  V30 30 1 19 5
M  V30 31 1 30 25
M  V30 32 1 13 8
M  V30 33 2 19 15
M  V30 34 1 23 17
M  V30 35 1 1 31
M  V30 36 1 1 32
M  V30 37 1 2 33 CFG=1
M  V30 38 1 3 34
M  V30 39 1 3 35
M  V30 40 1 4 36
M  V30 41 1 9 37
M  V30 42 1 10 38
M  V30 43 1 12 39
M  V30 44 1 13 40
M  V30 45 1 20 41
M  V30 46 1 20 42
M  V30 47 1 21 43
M  V30 48 1 21 44
M  V30 49 1 22 45
M  V30 50 1 22 46
M  V30 51 1 23 47
M  V30 52 1 23 48
M  V30 53 1 24 49
M  V30 54 1 24 50
M  V30 55 1 26 51
M  V30 56 1 27 52
M  V30 57 1 29 53
M  V30 58 1 30 54
M  V30 END BOND
M  V30 END CTAB
M  END
>  <Dataset>  (650) 
ChEMBL_Kinases

>  <Ligand_Instance>  (650) 
nan

>  <PDB_ID>  (650) 
nan

>  <Standardized_SMILES>  (650) 
N[C@H](CNc1nc(-c2ccncc2)nc2sc3c(c12)CCCC3)Cc1ccncc1

>  <Name>  (650) 
nan

>  <Pocket>  (650) 
nan

>  <ATP_Site>  (650) 
nan

>  <Peripheral>  (650) 
nan

>  <Num_H_Atoms_ProtBoundConf>  (650) 
nan

>  <Num_Resolved_Atoms>  (650) 
nan

>  <Num_Not_Resolved_Atoms>  (650) 
nan

$$$$
CHEMBL3704392
     RDKit          3D

  0  0  0  0  0  0  0  0  0  0999 V3000
M  V30 BEGIN CTAB
M  V30 COUNTS 62 67 0 0 0
M  V30 BEGIN ATOM
M  V30 1 C 5.693534 -0.578758 6.077488 0
M  V30 2 N 4.803078 -1.073005 5.077999 0
M  V30 3 C 5.145624 -0.716713 3.722878 0
M  V30 4 C 4.283854 -1.434865 2.711000 0
M  V30 5 C 2.900039 -0.837167 2.762368 0
M  V30 6 N 1.854403 -0.507243 2.027573 0
M  V30 7 C 0.861004 -0.044590 2.299887 0
M  V30 8 N -0.226171 0.246957 1.290136 0
M  V30 9 C -0.131349 1.530516 0.718441 0
M  V30 10 O 0.805685 2.288147 1.076147 0
M  V30 11 C -1.125414 1.969695 -0.286409 0
M  V30 12 C -0.894829 3.249524 -0.734067 0
M  V30 13 C -1.819941 3.715609 -1.679216 0
M  V30 14 C -2.884194 2.911697 -2.112184 0
M  V30 15 C -3.058271 1.615132 -1.613170 0
M  V30 16 C -4.186798 0.755689 -2.023118 0 CFG=1
M  V30 17 C -5.097063 1.334534 -3.046072 0
M  V30 18 C -5.746283 0.136965 -3.718139 0
M  V30 19 C -4.580655 -0.846226 -3.812826 0
M  V30 20 N -3.758033 -0.509890 -2.637945 0
M  V30 21 C -2.842068 -1.594519 -2.587089 0
M  V30 22 O -3.195300 -2.291052 -3.598593 0
M  V30 23 C -1.746329 -2.117954 -1.836442 0
M  V30 24 C -2.041782 -3.331089 -1.200125 0
M  V30 25 N -0.950899 -3.743886 -0.500697 0
M  V30 26 C -0.691532 -4.831284 0.285327 0
M  V30 27 C 0.573295 -4.898573 0.841496 0
M  V30 28 C 0.836062 -6.040177 1.665936 0
M  V30 29 N 1.054937 -6.965602 2.359098 0
M  V30 30 C 1.554907 -3.957861 0.652787 0
M  V30 31 C 1.243742 -2.886647 -0.144005 0
M  V30 32 C -0.004981 -2.783589 -0.716591 0
M  V30 33 N -0.481601 -1.816639 -1.512185 0
M  V30 34 C -2.154191 1.152959 -0.685091 0
M  V30 35 S 1.056387 0.165518 4.203485 0
M  V30 36 C 2.690087 -0.536094 4.146184 0
M  V30 37 C 3.456876 -0.671900 5.426787 0
M  V30 38 H 5.721142 -1.331176 6.921051 0
M  V30 39 H 6.701387 -0.354844 5.723368 0
M  V30 40 H 5.293989 0.360944 6.555670 0
M  V30 41 H 5.050781 0.377362 3.551431 0
M  V30 42 H 6.192141 -1.009227 3.540155 0
M  V30 43 H 4.267184 -2.503953 2.913337 0
M  V30 44 H 4.741860 -1.278248 1.716355 0
M  V30 45 H -0.928234 -0.463253 1.089022 0
M  V30 46 H -0.100292 3.893551 -0.431831 0
M  V30 47 H -1.689848 4.734074 -2.074804 0
M  V30 48 H -3.554790 3.335262 -2.833813 0
M  V30 49 H -4.734946 0.524957 -1.060224 0
M  V30 50 H -5.887870 1.940267 -2.512756 0
M  V30 51 H -4.652609 1.966866 -3.808494 0
M  V30 52 H -6.123927 0.345333 -4.722112 0
M  V30 53 H -6.548530 -0.228992 -3.040817 0
M  V30 54 H -5.042805 -1.843678 -3.761723 0
M  V30 55 H -4.061451 -0.711092 -4.759523 0
M  V30 56 H -2.932529 -3.980122 -1.157325 0
M  V30 57 H -1.442233 -5.578741 0.447162 0
M  V30 58 H 2.529770 -4.011462 1.082014 0
M  V30 59 H 1.985813 -2.128356 -0.316044 0
M  V30 60 H -2.270665 0.164633 -0.276191 0
M  V30 61 H 3.517164 0.307977 5.896502 0
M  V30 62 H 2.972485 -1.407945 6.102246 0
M  V30 END ATOM
M  V30 BEGIN BOND
M  V30 1 1 1 2
M  V30 2 1 2 3
M  V30 3 1 3 4
M  V30 4 1 4 5
M  V30 5 1 5 6
M  V30 6 2 6 7
M  V30 7 1 7 8
M  V30 8 1 8 9
M  V30 9 2 9 10
M  V30 10 1 9 11
M  V30 11 2 11 12
M  V30 12 1 12 13
M  V30 13 2 13 14
M  V30 14 1 14 15
M  V30 15 1 15 16
M  V30 16 1 16 17
M  V30 17 1 17 18
M  V30 18 1 18 19
M  V30 19 1 19 20
M  V30 20 1 20 21
M  V30 21 2 21 22
M  V30 22 1 21 23
M  V30 23 2 23 24
M  V30 24 1 24 25
M  V30 25 1 25 26
M  V30 26 2 26 27
M  V30 27 1 27 28
M  V30 28 3 28 29
M  V30 29 1 27 30
M  V30 30 2 30 31
M  V30 31 1 31 32
M  V30 32 2 32 33
M  V30 33 2 15 34
M  V30 34 1 7 35
M  V30 35 1 35 36
M  V30 36 1 36 37
M  V30 37 1 37 2
M  V30 38 2 36 5
M  V30 39 1 34 11
M  V30 40 1 20 16
M  V30 41 1 33 23
M  V30 42 1 32 25
M  V30 43 1 1 38
M  V30 44 1 1 39
M  V30 45 1 1 40
M  V30 46 1 3 41
M  V30 47 1 3 42
M  V30 48 1 4 43
M  V30 49 1 4 44
M  V30 50 1 8 45
M  V30 51 1 12 46
M  V30 52 1 13 47
M  V30 53 1 14 48
M  V30 54 1 16 49 CFG=1
M  V30 55 1 17 50
M  V30 56 1 17 51
M  V30 57 1 18 52
M  V30 58 1 18 53
M  V30 59 1 19 54
M  V30 60 1 19 55
M  V30 61 1 24 56
M  V30 62 1 26 57
M  V30 63 1 30 58
M  V30 64 1 31 59
M  V30 65 1 34 60
M  V30 66 1 37 61
M  V30 67 1 37 62
M  V30 END BOND
M  V30 END CTAB
M  END
>  <Dataset>  (651) 
ChEMBL_Kinases

>  <Ligand_Instance>  (651) 
nan

>  <PDB_ID>  (651) 
nan

>  <Standardized_SMILES>  (651) 
CN1CCc2nc(NC(=O)c3cccc([C@H]4CCCN4C(=O)c4cn5cc(C#N)ccc5n4)c3)sc2C1

>  <Name>  (651) 
nan

>  <Pocket>  (651) 
nan

>  <ATP_Site>  (651) 
nan

>  <Peripheral>  (651) 
nan

>  <Num_H_Atoms_ProtBoundConf>  (651) 
nan

>  <Num_Resolved_Atoms>  (651) 
nan

>  <Num_Not_Resolved_Atoms>  (651) 
nan

$$$$
CHEMBL3729896
     RDKit          3D

  0  0  0  0  0  0  0  0  0  0999 V3000
M  V30 BEGIN CTAB
M  V30 COUNTS 58 61 0 0 0
M  V30 BEGIN ATOM
M  V30 1 C 7.274534 -0.700877 2.953438 0
M  V30 2 C 6.101426 -1.559822 2.586799 0
M  V30 3 C 6.527558 -2.731748 1.716268 0
M  V30 4 N 5.552806 -2.113838 3.810961 0
M  V30 5 C 5.098574 -0.804142 1.834697 0
M  V30 6 C 4.257144 -0.171957 1.200283 0
M  V30 7 C 3.255059 0.551348 0.465513 0
M  V30 8 C 3.690400 1.720468 -0.195409 0
M  V30 9 S 2.106236 2.355443 -1.020887 0
M  V30 10 C 1.138211 1.068479 -0.418587 0
M  V30 11 C -0.229586 0.825818 -0.608752 0
M  V30 12 N -0.952994 1.748601 -1.407673 0
M  V30 13 C -2.357031 1.531662 -1.621880 0
M  V30 14 C -3.175954 1.551232 -0.376682 0 CFG=1
M  V30 15 N -3.047172 2.850604 0.291906 0
M  V30 16 C -4.663488 1.393415 -0.675176 0
M  V30 17 C -4.912642 0.086883 -1.374644 0
M  V30 18 C -5.184783 -1.058007 -0.625750 0
M  V30 19 C -5.428926 -2.307893 -1.147666 0
M  V30 20 C -5.398623 -2.422392 -2.527524 0
M  V30 21 C -5.131173 -1.306329 -3.312384 0
M  V30 22 C -4.891999 -0.072054 -2.748376 0
M  V30 23 N -0.823977 -0.245398 -0.053297 0
M  V30 24 C 0.014132 -1.035582 0.683558 0
M  V30 25 C -0.536402 -2.243029 1.340322 0
M  V30 26 C -1.865255 -2.523021 1.184984 0
M  V30 27 C -2.429292 -3.637079 1.776580 0
M  V30 28 N -1.649081 -4.460727 2.520579 0
M  V30 29 C -0.345156 -4.212769 2.690699 0
M  V30 30 C 0.241032 -3.105649 2.109358 0
M  V30 31 N 1.321170 -0.811394 0.870361 0
M  V30 32 C 1.930918 0.254672 0.322236 0
M  V30 33 H 6.915067 0.289547 3.239575 0
M  V30 34 H 7.745640 -1.164369 3.864180 0
M  V30 35 H 8.022021 -0.690031 2.127789 0
M  V30 36 H 5.614222 -3.066648 1.182569 0
M  V30 37 H 7.331763 -2.411317 1.025909 0
M  V30 38 H 6.820907 -3.590150 2.356064 0
M  V30 39 H 5.105435 -3.041173 3.590113 0
M  V30 40 H 4.841652 -1.527971 4.266171 0
M  V30 41 H 4.693897 2.194142 -0.251298 0
M  V30 42 H -0.512660 2.570406 -1.842119 0
M  V30 43 H -2.501099 0.575649 -2.168638 0
M  V30 44 H -2.790896 2.307251 -2.299465 0
M  V30 45 H -2.909500 0.789042 0.347156 0
M  V30 46 H -2.323526 3.456433 -0.165428 0
M  V30 47 H -2.848825 2.751925 1.309983 0
M  V30 48 H -5.251835 1.335816 0.262903 0
M  V30 49 H -5.072592 2.247474 -1.254394 0
M  V30 50 H -5.200959 -0.932016 0.457541 0
M  V30 51 H -5.627741 -3.115630 -0.448019 0
M  V30 52 H -5.590809 -3.407005 -2.942799 0
M  V30 53 H -5.115034 -1.429088 -4.378023 0
M  V30 54 H -4.681402 0.810097 -3.348022 0
M  V30 55 H -2.487790 -1.865462 0.591120 0
M  V30 56 H -3.480206 -3.797802 1.613633 0
M  V30 57 H 0.272134 -4.880665 3.290098 0
M  V30 58 H 1.291078 -2.861224 2.216808 0
M  V30 END ATOM
M  V30 BEGIN BOND
M  V30 1 1 1 2
M  V30 2 1 2 3
M  V30 3 1 2 4
M  V30 4 1 2 5
M  V30 5 3 5 6
M  V30 6 1 6 7
M  V30 7 2 7 8
M  V30 8 1 8 9
M  V30 9 1 9 10
M  V30 10 2 10 11
M  V30 11 1 11 12
M  V30 12 1 12 13
M  V30 13 1 13 14
M  V30 14 1 14 15
M  V30 15 1 14 16
M  V30 16 1 16 17
M  V30 17 2 17 18
M  V30 18 1 18 19
M  V30 19 2 19 20
M  V30 20 1 20 21
M  V30 21 2 21 22
M  V30 22 1 11 23
M  V30 23 2 23 24
M  V30 24 1 24 25
M  V30 25 2 25 26
M  V30 26 1 26 27
M  V30 27 2 27 28
M  V30 28 1 28 29
M  V30 29 2 29 30
M  V30 30 1 24 31
M  V30 31 2 31 32
M  V30 32 1 32 7
M  V30 33 1 32 10
M  V30 34 1 22 17
M  V30 35 1 30 25
M  V30 36 1 1 33
M  V30 37 1 1 34
M  V30 38 1 1 35
M  V30 39 1 3 36
M  V30 40 1 3 37
M  V30 41 1 3 38
M  V30 42 1 4 39
M  V30 43 1 4 40
M  V30 44 1 8 41
M  V30 45 1 12 42
M  V30 46 1 13 43
M  V30 47 1 13 44
M  V30 48 1 14 45 CFG=1
M  V30 49 1 15 46
M  V30 50 1 15 47
M  V30 51 1 16 48
M  V30 52 1 16 49
M  V30 53 1 18 50
M  V30 54 1 19 51
M  V30 55 1 20 52
M  V30 56 1 21 53
M  V30 57 1 22 54
M  V30 58 1 26 55
M  V30 59 1 27 56
M  V30 60 1 29 57
M  V30 61 1 30 58
M  V30 END BOND
M  V30 END CTAB
M  END
>  <Dataset>  (652) 
ChEMBL_Kinases

>  <Ligand_Instance>  (652) 
nan

>  <PDB_ID>  (652) 
nan

>  <Standardized_SMILES>  (652) 
CC(C)(N)C#Cc1csc2c(NC[C@@H](N)Cc3ccccc3)nc(-c3ccncc3)nc12

>  <Name>  (652) 
nan

>  <Pocket>  (652) 
nan

>  <ATP_Site>  (652) 
nan

>  <Peripheral>  (652) 
nan

>  <Num_H_Atoms_ProtBoundConf>  (652) 
nan

>  <Num_Resolved_Atoms>  (652) 
nan

>  <Num_Not_Resolved_Atoms>  (652) 
nan

$$$$
CHEMBL3729873
     RDKit          3D

  0  0  0  0  0  0  0  0  0  0999 V3000
M  V30 BEGIN CTAB
M  V30 COUNTS 47 50 0 0 0
M  V30 BEGIN ATOM
M  V30 1 C 0.541920 -6.169730 0.156607 0
M  V30 2 C -0.499077 -5.124272 0.463569 0
M  V30 3 N -1.012784 -4.599742 -0.786064 0
M  V30 4 C -2.010437 -3.597188 -0.607404 0
M  V30 5 C -1.595707 -2.535159 0.388885 0
M  V30 6 C -0.304581 -1.927336 -0.026196 0
M  V30 7 C 0.343858 -2.661433 -0.952900 0
M  V30 8 S 1.775732 -1.796728 -1.367085 0
M  V30 9 C 1.454112 -0.381994 -0.214017 0
M  V30 10 N 2.164668 0.746806 0.047267 0
M  V30 11 C 1.723634 1.628576 0.940559 0
M  V30 12 C 2.511851 2.814340 1.184458 0
M  V30 13 C 3.695070 3.054747 0.524749 0
M  V30 14 C 4.365775 4.230098 0.843166 0
M  V30 15 N 3.885671 5.095788 1.752686 0
M  V30 16 C 2.739566 4.857798 2.388288 0
M  V30 17 C 2.017561 3.709712 2.123589 0
M  V30 18 N 0.591633 1.290958 1.500071 0
M  V30 19 C -0.159840 0.205543 1.296289 0
M  V30 20 N -1.334305 0.101385 2.120077 0
M  V30 21 C -1.701103 1.122934 3.034587 0
M  V30 22 C -2.002986 2.462443 2.415126 0
M  V30 23 N -3.099926 2.354244 1.480778 0
M  V30 24 C 0.241106 -0.741834 0.382899 0
M  V30 25 C 0.036150 -3.972467 -1.572949 0
M  V30 26 H 0.331468 -6.684701 -0.818322 0
M  V30 27 H 1.539251 -5.693181 0.108673 0
M  V30 28 H 0.528868 -6.934645 0.960612 0
M  V30 29 H -1.311269 -5.590269 1.055570 0
M  V30 30 H 0.008293 -4.330996 1.073755 0
M  V30 31 H -2.985940 -3.989376 -0.333081 0
M  V30 32 H -2.101702 -3.054355 -1.588743 0
M  V30 33 H -1.524295 -2.901733 1.408430 0
M  V30 34 H -2.438918 -1.769859 0.264690 0
M  V30 35 H 3.983981 2.308862 -0.172459 0
M  V30 36 H 5.305554 4.400320 0.305383 0
M  V30 37 H 2.451711 5.623668 3.098088 0
M  V30 38 H 1.079353 3.562292 2.675474 0
M  V30 39 H -1.999829 -0.688207 2.151458 0
M  V30 40 H -0.849533 1.235541 3.762593 0
M  V30 41 H -2.565692 0.817503 3.642860 0
M  V30 42 H -2.310907 3.161449 3.235225 0
M  V30 43 H -1.111275 2.871398 1.925258 0
M  V30 44 H -2.792098 2.599628 0.514268 0
M  V30 45 H -3.580158 1.442761 1.471853 0
M  V30 46 H -0.342683 -3.839029 -2.600239 0
M  V30 47 H 0.908347 -4.658832 -1.536785 0
M  V30 END ATOM
M  V30 BEGIN BOND
M  V30 1 1 1 2
M  V30 2 1 2 3
M  V30 3 1 3 4
M  V30 4 1 4 5
M  V30 5 1 5 6
M  V30 6 2 6 7
M  V30 7 1 7 8
M  V30 8 1 8 9
M  V30 9 2 9 10
M  V30 10 1 10 11
M  V30 11 1 11 12
M  V30 12 2 12 13
M  V30 13 1 13 14
M  V30 14 2 14 15
M  V30 15 1 15 16
M  V30 16 2 16 17
M  V30 17 2 11 18
M  V30 18 1 18 19
M  V30 19 1 19 20
M  V30 20 1 20 21
M  V30 21 1 21 22
M  V30 22 1 22 23
M  V30 23 2 19 24
M  V30 24 1 7 25
M  V30 25 1 25 3
M  V30 26 1 24 6
M  V30 27 1 24 9
M  V30 28 1 17 12
M  V30 29 1 1 26
M  V30 30 1 1 27
M  V30 31 1 1 28
M  V30 32 1 2 29
M  V30 33 1 2 30
M  V30 34 1 4 31
M  V30 35 1 4 32
M  V30 36 1 5 33
M  V30 37 1 5 34
M  V30 38 1 13 35
M  V30 39 1 14 36
M  V30 40 1 16 37
M  V30 41 1 17 38
M  V30 42 1 20 39
M  V30 43 1 21 40
M  V30 44 1 21 41
M  V30 45 1 22 42
M  V30 46 1 22 43
M  V30 47 1 23 44
M  V30 48 1 23 45
M  V30 49 1 25 46
M  V30 50 1 25 47
M  V30 END BOND
M  V30 END CTAB
M  END
>  <Dataset>  (653) 
ChEMBL_Kinases

>  <Ligand_Instance>  (653) 
nan

>  <PDB_ID>  (653) 
nan

>  <Standardized_SMILES>  (653) 
CCN1CCc2c(sc3nc(-c4ccncc4)nc(NCCN)c23)C1

>  <Name>  (653) 
nan

>  <Pocket>  (653) 
nan

>  <ATP_Site>  (653) 
nan

>  <Peripheral>  (653) 
nan

>  <Num_H_Atoms_ProtBoundConf>  (653) 
nan

>  <Num_Resolved_Atoms>  (653) 
nan

>  <Num_Not_Resolved_Atoms>  (653) 
nan

$$$$
CHEMBL3729869
     RDKit          3D

  0  0  0  0  0  0  0  0  0  0999 V3000
M  V30 BEGIN CTAB
M  V30 COUNTS 53 57 0 0 0
M  V30 BEGIN ATOM
M  V30 1 N 1.397303 3.392083 3.713596 0
M  V30 2 C 2.382715 2.338949 3.860052 0
M  V30 3 C 1.707489 0.996303 4.077605 0
M  V30 4 N 0.843516 0.616349 2.997821 0
M  V30 5 C 1.286872 0.260190 1.701078 0
M  V30 6 N 2.616275 0.243986 1.603587 0
M  V30 7 C 3.290005 -0.109784 0.502208 0
M  V30 8 C 4.746380 -0.151480 0.450926 0
M  V30 9 C 5.318492 -0.469188 -0.760495 0
M  V30 10 C 6.723284 -0.464294 -0.689654 0
M  V30 11 N 7.447444 -0.187442 0.413212 0
M  V30 12 C 6.741544 0.107798 1.531859 0
M  V30 13 C 5.368762 0.148953 1.640771 0
M  V30 14 N 2.515934 -0.453522 -0.518445 0
M  V30 15 C 1.170109 -0.452173 -0.465720 0
M  V30 16 S -0.087446 -0.902527 -1.696079 0
M  V30 17 C -1.451936 -0.565690 -0.598347 0
M  V30 18 C -0.909979 -0.158848 0.551368 0
M  V30 19 C 0.446576 -0.082063 0.682664 0
M  V30 20 C -2.071553 0.167185 1.407149 0
M  V30 21 C -2.903135 -1.087145 1.575305 0
M  V30 22 N -3.343462 -1.576100 0.262714 0
M  V30 23 C -4.100980 -2.752370 0.188266 0
M  V30 24 O -4.526317 -3.546260 1.048280 0
M  V30 25 C -4.547537 -3.257631 -1.124448 0
M  V30 26 C -5.667911 -2.648945 -1.612731 0
M  V30 27 C -6.123204 -3.077483 -2.840677 0
M  V30 28 C -5.409818 -4.090008 -3.478907 0
M  V30 29 C -4.301612 -4.647937 -2.928988 0
M  V30 30 C -3.781333 -4.271849 -1.700378 0
M  V30 31 C -2.922708 -0.745751 -0.877389 0
M  V30 32 H 1.014625 3.667639 4.643939 0
M  V30 33 H 1.856566 4.191861 3.246509 0
M  V30 34 H 2.943983 2.555036 4.815699 0
M  V30 35 H 3.056171 2.253750 2.997659 0
M  V30 36 H 1.204528 1.013185 5.049546 0
M  V30 37 H 2.538108 0.242733 4.174753 0
M  V30 38 H -0.102472 0.666776 3.406219 0
M  V30 39 H 4.770581 -0.697346 -1.656481 0
M  V30 40 H 7.219829 -0.712112 -1.644856 0
M  V30 41 H 7.383381 0.326113 2.402253 0
M  V30 42 H 4.849931 0.386012 2.546409 0
M  V30 43 H -2.793144 0.868054 0.844766 0
M  V30 44 H -1.912901 0.662630 2.338381 0
M  V30 45 H -3.831306 -0.793092 2.108925 0
M  V30 46 H -2.400246 -1.853995 2.169602 0
M  V30 47 H -6.220810 -1.870848 -1.124970 0
M  V30 48 H -6.971810 -2.741563 -3.403593 0
M  V30 49 H -5.709133 -4.500687 -4.440840 0
M  V30 50 H -3.711547 -5.452652 -3.404378 0
M  V30 51 H -2.925579 -4.637905 -1.180209 0
M  V30 52 H -3.064755 -1.361813 -1.788743 0
M  V30 53 H -3.461703 0.200936 -0.949191 0
M  V30 END ATOM
M  V30 BEGIN BOND
M  V30 1 1 1 2
M  V30 2 1 2 3
M  V30 3 1 3 4
M  V30 4 1 4 5
M  V30 5 2 5 6
M  V30 6 1 6 7
M  V30 7 1 7 8
M  V30 8 2 8 9
M  V30 9 1 9 10
M  V30 10 2 10 11
M  V30 11 1 11 12
M  V30 12 2 12 13
M  V30 13 2 7 14
M  V30 14 1 14 15
M  V30 15 1 15 16
M  V30 16 1 16 17
M  V30 17 2 17 18
M  V30 18 1 18 19
M  V30 19 1 18 20
M  V30 20 1 20 21
M  V30 21 1 21 22
M  V30 22 1 22 23
M  V30 23 2 23 24
M  V30 24 1 23 25
M  V30 25 2 25 26
M  V30 26 1 26 27
M  V30 27 2 27 28
M  V30 28 1 28 29
M  V30 29 2 29 30
M  V30 30 1 22 31
M  V30 31 1 19 5
M  V30 32 1 30 25
M  V30 33 1 13 8
M  V30 34 2 19 15
M  V30 35 1 31 17
M  V30 36 1 1 32
M  V30 37 1 1 33
M  V30 38 1 2 34
M  V30 39 1 2 35
M  V30 40 1 3 36
M  V30 41 1 3 37
M  V30 42 1 4 38
M  V30 43 1 9 39
M  V30 44 1 10 40
M  V30 45 1 12 41
M  V30 46 1 13 42
M  V30 47 1 20 43
M  V30 48 1 20 44
M  V30 49 1 21 45
M  V30 50 1 21 46
M  V30 51 1 26 47
M  V30 52 1 27 48
M  V30 53 1 28 49
M  V30 54 1 29 50
M  V30 55 1 30 51
M  V30 56 1 31 52
M  V30 57 1 31 53
M  V30 END BOND
M  V30 END CTAB
M  END
>  <Dataset>  (654) 
ChEMBL_Kinases

>  <Ligand_Instance>  (654) 
nan

>  <PDB_ID>  (654) 
nan

>  <Standardized_SMILES>  (654) 
NCCNc1nc(-c2ccncc2)nc2sc3c(c12)CCN(C(=O)c1ccccc1)C3

>  <Name>  (654) 
nan

>  <Pocket>  (654) 
nan

>  <ATP_Site>  (654) 
nan

>  <Peripheral>  (654) 
nan

>  <Num_H_Atoms_ProtBoundConf>  (654) 
nan

>  <Num_Resolved_Atoms>  (654) 
nan

>  <Num_Not_Resolved_Atoms>  (654) 
nan

$$$$
CHEMBL3729868
     RDKit          3D

  0  0  0  0  0  0  0  0  0  0999 V3000
M  V30 BEGIN CTAB
M  V30 COUNTS 51 55 0 0 0
M  V30 BEGIN ATOM
M  V30 1 C 2.446491 -6.270494 1.423325 0
M  V30 2 C 1.807867 -5.032323 1.343099 0
M  V30 3 C 0.440419 -5.000140 1.604937 0
M  V30 4 C -0.280776 -3.735069 1.536384 0
M  V30 5 N 0.251935 -2.566985 1.238982 0
M  V30 6 C -0.346941 -1.383352 1.160005 0
M  V30 7 O 0.358125 -0.234163 0.832075 0
M  V30 8 C 1.741703 -0.349989 0.581044 0
M  V30 9 C 2.293264 1.025443 0.245663 0 CFG=2
M  V30 10 C 1.605351 1.430264 -1.055497 0
M  V30 11 C 2.285750 2.623386 -1.652440 0
M  V30 12 C 3.262687 3.278418 -0.710297 0
M  V30 13 C 4.219799 2.326801 -0.066985 0
M  V30 14 N 3.705727 0.962889 -0.019810 0
M  V30 15 C -1.698296 -1.340027 1.416747 0
M  V30 16 C -2.528445 -0.255645 1.399369 0
M  V30 17 C -3.880877 -0.423589 1.691258 0
M  V30 18 S -4.028091 -2.187181 2.011970 0
M  V30 19 C -2.272378 -2.543728 1.728125 0
M  V30 20 N -1.596602 -3.735120 1.793370 0
M  V30 21 C -4.767350 0.750053 1.668862 0
M  V30 22 C -4.590980 1.588102 0.423183 0
M  V30 23 C -3.174257 1.508669 -0.106163 0
M  V30 24 C -2.305991 1.185809 1.118159 0
M  V30 25 C -0.197656 -6.185183 1.925805 0
M  V30 26 C 0.475795 -7.388532 1.993461 0
M  V30 27 N 1.800338 -7.429797 1.741508 0
M  V30 28 H 3.506325 -6.392593 1.236469 0
M  V30 29 H 2.364573 -4.151328 1.088479 0
M  V30 30 H 1.947111 -1.044135 -0.281187 0
M  V30 31 H 2.331383 -0.739270 1.421403 0
M  V30 32 H 2.007487 1.724080 1.045556 0
M  V30 33 H 1.749611 0.555409 -1.755077 0
M  V30 34 H 0.516044 1.533655 -0.927323 0
M  V30 35 H 1.499401 3.392099 -1.871895 0
M  V30 36 H 2.770567 2.376531 -2.622132 0
M  V30 37 H 2.696740 3.781737 0.101505 0
M  V30 38 H 3.822455 4.031021 -1.302603 0
M  V30 39 H 4.495732 2.687956 0.965444 0
M  V30 40 H 5.191030 2.310148 -0.624538 0
M  V30 41 H 4.250059 0.467721 0.734089 0
M  V30 42 H -4.684605 1.386040 2.573481 0
M  V30 43 H -5.804702 0.357622 1.641812 0
M  V30 44 H -5.266254 1.284898 -0.404452 0
M  V30 45 H -4.802633 2.641659 0.656600 0
M  V30 46 H -3.071692 0.686073 -0.847032 0
M  V30 47 H -2.917257 2.463671 -0.567377 0
M  V30 48 H -1.268442 1.439296 0.879172 0
M  V30 49 H -2.711198 1.824235 1.940390 0
M  V30 50 H -1.265664 -6.116196 2.123050 0
M  V30 51 H -0.134979 -8.245553 2.254685 0
M  V30 END ATOM
M  V30 BEGIN BOND
M  V30 1 2 1 2
M  V30 2 1 2 3
M  V30 3 1 3 4
M  V30 4 2 4 5
M  V30 5 1 5 6
M  V30 6 1 6 7
M  V30 7 1 7 8
M  V30 8 1 8 9
M  V30 9 1 9 10
M  V30 10 1 10 11
M  V30 11 1 11 12
M  V30 12 1 12 13
M  V30 13 1 13 14
M  V30 14 2 6 15
M  V30 15 1 15 16
M  V30 16 2 16 17
M  V30 17 1 17 18
M  V30 18 1 18 19
M  V30 19 2 19 20
M  V30 20 1 17 21
M  V30 21 1 21 22
M  V30 22 1 22 23
M  V30 23 1 23 24
M  V30 24 2 3 25
M  V30 25 1 25 26
M  V30 26 2 26 27
M  V30 27 1 27 1
M  V30 28 1 20 4
M  V30 29 1 14 9
M  V30 30 1 19 15
M  V30 31 1 24 16
M  V30 32 1 1 28
M  V30 33 1 2 29
M  V30 34 1 8 30
M  V30 35 1 8 31
M  V30 36 1 9 32 CFG=1
M  V30 37 1 10 33
M  V30 38 1 10 34
M  V30 39 1 11 35
M  V30 40 1 11 36
M  V30 41 1 12 37
M  V30 42 1 12 38
M  V30 43 1 13 39
M  V30 44 1 13 40
M  V30 45 1 14 41
M  V30 46 1 21 42
M  V30 47 1 21 43
M  V30 48 1 22 44
M  V30 49 1 22 45
M  V30 50 1 23 46
M  V30 51 1 23 47
M  V30 52 1 24 48
M  V30 53 1 24 49
M  V30 54 1 25 50
M  V30 55 1 26 51
M  V30 END BOND
M  V30 END CTAB
M  END
>  <Dataset>  (655) 
ChEMBL_Kinases

>  <Ligand_Instance>  (655) 
nan

>  <PDB_ID>  (655) 
nan

>  <Standardized_SMILES>  (655) 
c1cc(-c2nc(OC[C@@H]3CCCCN3)c3c4c(sc3n2)CCCC4)ccn1

>  <Name>  (655) 
nan

>  <Pocket>  (655) 
nan

>  <ATP_Site>  (655) 
nan

>  <Peripheral>  (655) 
nan

>  <Num_H_Atoms_ProtBoundConf>  (655) 
nan

>  <Num_Resolved_Atoms>  (655) 
nan

>  <Num_Not_Resolved_Atoms>  (655) 
nan

$$$$
CHEMBL3729855
     RDKit          3D

  0  0  0  0  0  0  0  0  0  0999 V3000
M  V30 BEGIN CTAB
M  V30 COUNTS 57 61 0 0 0
M  V30 BEGIN ATOM
M  V30 1 C 0.009625 0.175049 4.887612 0
M  V30 2 O 0.555519 0.614488 3.639962 0
M  V30 3 C 1.957421 0.711804 3.563185 0
M  V30 4 C 2.779542 0.403315 4.624154 0
M  V30 5 C 4.143815 0.503042 4.536259 0
M  V30 6 C 4.684220 0.926039 3.342169 0
M  V30 7 C 3.829749 1.225249 2.304085 0
M  V30 8 C 2.431705 1.138418 2.347498 0
M  V30 9 C 1.702473 1.496758 1.131432 0
M  V30 10 C 1.196886 0.305093 0.341862 0 CFG=2
M  V30 11 N 2.382251 -0.476316 -0.005686 0
M  V30 12 C 0.617016 0.812153 -0.968836 0
M  V30 13 N 0.113227 -0.230857 -1.813936 0
M  V30 14 C -1.035072 -1.013006 -1.493699 0
M  V30 15 N -1.605283 -0.684922 -0.328335 0
M  V30 16 C -2.679446 -1.241139 0.228307 0
M  V30 17 C -3.283784 -0.855084 1.483318 0
M  V30 18 C -4.391943 -1.538654 1.935795 0
M  V30 19 C -5.072395 -1.281724 3.105339 0
M  V30 20 N -4.590422 -0.270275 3.849256 0
M  V30 21 C -3.511185 0.419237 3.440049 0
M  V30 22 C -2.824547 0.159098 2.259065 0
M  V30 23 N -3.215273 -2.236164 -0.493267 0
M  V30 24 C -2.676273 -2.596862 -1.665854 0
M  V30 25 S -3.186586 -3.837962 -2.749347 0
M  V30 26 C -1.902517 -3.577718 -3.978689 0
M  V30 27 C -1.140906 -2.512618 -3.450960 0
M  V30 28 C -1.577084 -2.032604 -2.245020 0
M  V30 29 C -0.086471 -2.270104 -4.452942 0
M  V30 30 C 0.956046 -3.382920 -4.414334 0
M  V30 31 S 0.085950 -4.827726 -5.157662 0
M  V30 32 C -1.657177 -4.302015 -5.266046 0
M  V30 33 H 0.285076 -0.881230 5.077603 0
M  V30 34 H -1.073640 0.359457 4.969182 0
M  V30 35 H 0.477121 0.807002 5.700802 0
M  V30 36 H 2.364517 0.071090 5.560501 0
M  V30 37 H 4.805452 0.269777 5.344691 0
M  V30 38 H 5.752753 1.023342 3.215362 0
M  V30 39 H 4.313723 1.558183 1.373080 0
M  V30 40 H 0.779925 2.107697 1.360969 0
M  V30 41 H 2.340229 2.089771 0.449099 0
M  V30 42 H 0.444683 -0.277442 0.861598 0
M  V30 43 H 3.065110 -0.552544 0.780006 0
M  V30 44 H 2.897100 -0.050830 -0.806163 0
M  V30 45 H 1.324075 1.469942 -1.489280 0
M  V30 46 H -0.293761 1.432142 -0.684185 0
M  V30 47 H 0.762228 -0.245215 -2.610508 0
M  V30 48 H -4.770559 -2.353046 1.325142 0
M  V30 49 H -5.937908 -1.881150 3.372568 0
M  V30 50 H -3.189188 1.227942 4.112727 0
M  V30 51 H -1.958313 0.738904 1.965997 0
M  V30 52 H -0.539706 -2.270091 -5.508017 0
M  V30 53 H 0.433405 -1.320070 -4.416945 0
M  V30 54 H 1.145038 -3.616887 -3.367949 0
M  V30 55 H 1.803463 -3.055732 -5.014599 0
M  V30 56 H -1.866873 -3.698677 -6.149931 0
M  V30 57 H -2.311013 -5.187160 -5.265393 0
M  V30 END ATOM
M  V30 BEGIN BOND
M  V30 1 1 1 2
M  V30 2 1 2 3
M  V30 3 2 3 4
M  V30 4 1 4 5
M  V30 5 2 5 6
M  V30 6 1 6 7
M  V30 7 2 7 8
M  V30 8 1 8 9
M  V30 9 1 9 10
M  V30 10 1 10 11
M  V30 11 1 10 12
M  V30 12 1 12 13
M  V30 13 1 13 14
M  V30 14 2 14 15
M  V30 15 1 15 16
M  V30 16 1 16 17
M  V30 17 2 17 18
M  V30 18 1 18 19
M  V30 19 2 19 20
M  V30 20 1 20 21
M  V30 21 2 21 22
M  V30 22 2 16 23
M  V30 23 1 23 24
M  V30 24 1 24 25
M  V30 25 1 25 26
M  V30 26 2 26 27
M  V30 27 1 27 28
M  V30 28 1 27 29
M  V30 29 1 29 30
M  V30 30 1 30 31
M  V30 31 1 31 32
M  V30 32 1 8 3
M  V30 33 1 28 14
M  V30 34 1 22 17
M  V30 35 2 28 24
M  V30 36 1 32 26
M  V30 37 1 1 33
M  V30 38 1 1 34
M  V30 39 1 1 35
M  V30 40 1 4 36
M  V30 41 1 5 37
M  V30 42 1 6 38
M  V30 43 1 7 39
M  V30 44 1 9 40
M  V30 45 1 9 41
M  V30 46 1 10 42 CFG=1
M  V30 47 1 11 43
M  V30 48 1 11 44
M  V30 49 1 12 45
M  V30 50 1 12 46
M  V30 51 1 13 47
M  V30 52 1 18 48
M  V30 53 1 19 49
M  V30 54 1 21 50
M  V30 55 1 22 51
M  V30 56 1 29 52
M  V30 57 1 29 53
M  V30 58 1 30 54
M  V30 59 1 30 55
M  V30 60 1 32 56
M  V30 61 1 32 57
M  V30 END BOND
M  V30 END CTAB
M  END
>  <Dataset>  (656) 
ChEMBL_Kinases

>  <Ligand_Instance>  (656) 
nan

>  <PDB_ID>  (656) 
nan

>  <Standardized_SMILES>  (656) 
COc1ccccc1C[C@H](N)CNc1nc(-c2ccncc2)nc2sc3c(c12)CCSC3

>  <Name>  (656) 
nan

>  <Pocket>  (656) 
nan

>  <ATP_Site>  (656) 
nan

>  <Peripheral>  (656) 
nan

>  <Num_H_Atoms_ProtBoundConf>  (656) 
nan

>  <Num_Resolved_Atoms>  (656) 
nan

>  <Num_Not_Resolved_Atoms>  (656) 
nan

$$$$
CHEMBL3729854
     RDKit          3D

  0  0  0  0  0  0  0  0  0  0999 V3000
M  V30 BEGIN CTAB
M  V30 COUNTS 55 58 0 0 0
M  V30 BEGIN ATOM
M  V30 1 C 4.887336 -5.188179 1.418154 0
M  V30 2 C 4.269832 -4.410729 2.576709 0
M  V30 3 N 3.737115 -3.176589 1.973321 0
M  V30 4 C 3.120936 -2.352564 2.987135 0
M  V30 5 O 3.116915 -2.761723 4.160538 0
M  V30 6 C 2.548196 -1.089560 2.535482 0
M  V30 7 C 2.955106 0.016549 3.250871 0
M  V30 8 S 2.028648 1.431936 2.396547 0
M  V30 9 C 1.267473 0.331578 1.250501 0
M  V30 10 C 0.379673 0.687814 0.234533 0
M  V30 11 N -0.082091 1.946335 -0.121251 0
M  V30 12 C -0.547151 3.204559 -0.480985 0
M  V30 13 C -1.790804 3.751406 0.092787 0 CFG=1
M  V30 14 N -1.900729 5.114223 -0.524356 0
M  V30 15 C -3.087745 3.113243 -0.167307 0
M  V30 16 C -3.308345 1.730752 0.236436 0
M  V30 17 C -3.710124 1.532740 1.548237 0
M  V30 18 C -3.981798 0.253246 2.028930 0
M  V30 19 C -3.855884 -0.845851 1.209073 0
M  V30 20 C -3.453115 -0.627447 -0.095642 0
M  V30 21 C -3.180072 0.636378 -0.589261 0
M  V30 22 N -0.114556 -0.303590 -0.565815 0
M  V30 23 C 0.314742 -1.545117 -0.285164 0
M  V30 24 C -0.153838 -2.695574 -1.095015 0
M  V30 25 C -0.998892 -2.422643 -2.127227 0
M  V30 26 C -1.446202 -3.492794 -2.902649 0
M  V30 27 N -1.074656 -4.756250 -2.663686 0
M  V30 28 C -0.237833 -5.031881 -1.642665 0
M  V30 29 C 0.235538 -4.011919 -0.843226 0
M  V30 30 N 1.165195 -1.835595 0.697379 0
M  V30 31 C 1.694192 -0.932091 1.523192 0
M  V30 32 H 5.666179 -5.886885 1.764249 0
M  V30 33 H 4.042003 -5.694025 0.901538 0
M  V30 34 H 5.325294 -4.481612 0.667175 0
M  V30 35 H 5.029410 -4.187064 3.364787 0
M  V30 36 H 3.477731 -5.039860 3.001856 0
M  V30 37 H 3.783982 -2.916211 0.957762 0
M  V30 38 H 3.657272 0.153192 4.135715 0
M  V30 39 H 0.343863 2.527173 0.660455 0
M  V30 40 H -0.773076 3.195772 -1.656367 0
M  V30 41 H 0.229293 4.002014 -0.501187 0
M  V30 42 H -1.653610 4.004704 1.173955 0
M  V30 43 H -2.820726 5.512313 -0.230104 0
M  V30 44 H -1.103727 5.713653 -0.200314 0
M  V30 45 H -3.348676 3.149722 -1.276610 0
M  V30 46 H -3.885371 3.809220 0.258832 0
M  V30 47 H -3.860379 2.262869 2.328357 0
M  V30 48 H -4.299224 0.002495 3.035975 0
M  V30 49 H -4.049312 -1.890986 1.505011 0
M  V30 50 H -3.350508 -1.483572 -0.749928 0
M  V30 51 H -2.862462 0.834188 -1.614515 0
M  V30 52 H -1.323773 -1.403896 -2.357230 0
M  V30 53 H -2.121469 -3.237434 -3.721497 0
M  V30 54 H 0.128700 -6.014265 -1.355846 0
M  V30 55 H 0.916603 -4.143102 -0.000396 0
M  V30 END ATOM
M  V30 BEGIN BOND
M  V30 1 1 1 2
M  V30 2 1 2 3
M  V30 3 1 3 4
M  V30 4 2 4 5
M  V30 5 1 4 6
M  V30 6 2 6 7
M  V30 7 1 7 8
M  V30 8 1 8 9
M  V30 9 2 9 10
M  V30 10 1 10 11
M  V30 11 1 11 12
M  V30 12 1 12 13
M  V30 13 1 13 14
M  V30 14 1 13 15
M  V30 15 1 15 16
M  V30 16 2 16 17
M  V30 17 1 17 18
M  V30 18 2 18 19
M  V30 19 1 19 20
M  V30 20 2 20 21
M  V30 21 1 10 22
M  V30 22 2 22 23
M  V30 23 1 23 24
M  V30 24 2 24 25
M  V30 25 1 25 26
M  V30 26 2 26 27
M  V30 27 1 27 28
M  V30 28 2 28 29
M  V30 29 1 23 30
M  V30 30 2 30 31
M  V30 31 1 31 6
M  V30 32 1 31 9
M  V30 33 1 21 16
M  V30 34 1 29 24
M  V30 35 1 1 32
M  V30 36 1 1 33
M  V30 37 1 1 34
M  V30 38 1 2 35
M  V30 39 1 2 36
M  V30 40 1 3 37
M  V30 41 1 7 38
M  V30 42 1 11 39
M  V30 43 1 12 40
M  V30 44 1 12 41
M  V30 45 1 13 42 CFG=1
M  V30 46 1 14 43
M  V30 47 1 14 44
M  V30 48 1 15 45
M  V30 49 1 15 46
M  V30 50 1 17 47
M  V30 51 1 18 48
M  V30 52 1 19 49
M  V30 53 1 20 50
M  V30 54 1 21 51
M  V30 55 1 25 52
M  V30 56 1 26 53
M  V30 57 1 28 54
M  V30 58 1 29 55
M  V30 END BOND
M  V30 END CTAB
M  END
>  <Dataset>  (657) 
ChEMBL_Kinases

>  <Ligand_Instance>  (657) 
nan

>  <PDB_ID>  (657) 
nan

>  <Standardized_SMILES>  (657) 
CCNC(=O)c1csc2c(NC[C@@H](N)Cc3ccccc3)nc(-c3ccncc3)nc12

>  <Name>  (657) 
nan

>  <Pocket>  (657) 
nan

>  <ATP_Site>  (657) 
nan

>  <Peripheral>  (657) 
nan

>  <Num_H_Atoms_ProtBoundConf>  (657) 
nan

>  <Num_Resolved_Atoms>  (657) 
nan

>  <Num_Not_Resolved_Atoms>  (657) 
nan

$$$$
CHEMBL3729853
     RDKit          3D

  0  0  0  0  0  0  0  0  0  0999 V3000
M  V30 BEGIN CTAB
M  V30 COUNTS 42 45 0 0 0
M  V30 BEGIN ATOM
M  V30 1 N 0.224110 -7.071877 0.237106 0
M  V30 2 C 0.246459 -5.622012 0.471158 0
M  V30 3 C 0.579027 -4.959140 -0.876855 0
M  V30 4 N 0.604530 -3.586712 -0.670850 0
M  V30 5 C 0.630875 -2.172479 -0.458833 0
M  V30 6 N 0.892213 -1.152753 -1.294368 0
M  V30 7 C 0.840549 0.091721 -0.808823 0
M  V30 8 C 1.133522 1.151384 -1.760094 0
M  V30 9 C 1.081224 2.438364 -1.273758 0
M  V30 10 C 1.346209 3.517826 -2.107996 0
M  V30 11 N 1.652554 3.247662 -3.397738 0
M  V30 12 C 1.692463 1.983121 -3.828880 0
M  V30 13 C 1.441879 0.845430 -3.065061 0
M  V30 14 N 0.537636 0.300666 0.467728 0
M  V30 15 C 0.262755 -0.638409 1.376060 0
M  V30 16 C -0.038777 -0.320083 2.670006 0
M  V30 17 C -0.134511 0.966587 3.337992 0
M  V30 18 C 0.875325 1.882016 3.127949 0
M  V30 19 C 0.835926 3.124406 3.724682 0
M  V30 20 C -0.235952 3.430194 4.536147 0
M  V30 21 Br -0.477911 5.088680 5.450048 0
M  V30 22 C -1.256850 2.505356 4.749126 0
M  V30 23 C -1.210056 1.261529 4.146858 0
M  V30 24 C -0.296719 -1.431149 3.470718 0
M  V30 25 S -0.084208 -2.891475 2.285344 0
M  V30 26 C 0.312445 -1.909772 0.892855 0
M  V30 27 H 0.631660 -7.557939 1.057913 0
M  V30 28 H -0.749497 -7.420522 0.116828 0
M  V30 29 H -0.773869 -5.376675 0.811620 0
M  V30 30 H 1.020861 -5.439635 1.230355 0
M  V30 31 H -0.298207 -5.265762 -1.522286 0
M  V30 32 H 1.463685 -5.464672 -1.319220 0
M  V30 33 H 0.868524 -3.502248 -1.714942 0
M  V30 34 H 0.835451 2.638107 -0.242864 0
M  V30 35 H 1.306349 4.516675 -1.735984 0
M  V30 36 H 1.947882 1.874954 -4.880854 0
M  V30 37 H 1.484705 -0.151255 -3.451214 0
M  V30 38 H 1.754479 1.735108 2.511044 0
M  V30 39 H 1.550381 3.942891 3.655062 0
M  V30 40 H -2.116583 2.697237 5.375180 0
M  V30 41 H -1.960789 0.475966 4.254735 0
M  V30 42 H -0.554861 -1.573858 4.485822 0
M  V30 END ATOM
M  V30 BEGIN BOND
M  V30 1 1 1 2
M  V30 2 1 2 3
M  V30 3 1 3 4
M  V30 4 1 4 5
M  V30 5 2 5 6
M  V30 6 1 6 7
M  V30 7 1 7 8
M  V30 8 2 8 9
M  V30 9 1 9 10
M  V30 10 2 10 11
M  V30 11 1 11 12
M  V30 12 2 12 13
M  V30 13 2 7 14
M  V30 14 1 14 15
M  V30 15 1 15 16
M  V30 16 1 16 17
M  V30 17 2 17 18
M  V30 18 1 18 19
M  V30 19 2 19 20
M  V30 20 1 20 21
M  V30 21 1 20 22
M  V30 22 2 22 23
M  V30 23 2 16 24
M  V30 24 1 24 25
M  V30 25 1 25 26
M  V30 26 1 26 5
M  V30 27 1 13 8
M  V30 28 2 26 15
M  V30 29 1 23 17
M  V30 30 1 1 27
M  V30 31 1 1 28
M  V30 32 1 2 29
M  V30 33 1 2 30
M  V30 34 1 3 31
M  V30 35 1 3 32
M  V30 36 1 4 33
M  V30 37 1 9 34
M  V30 38 1 10 35
M  V30 39 1 12 36
M  V30 40 1 13 37
M  V30 41 1 18 38
M  V30 42 1 19 39
M  V30 43 1 22 40
M  V30 44 1 23 41
M  V30 45 1 24 42
M  V30 END BOND
M  V30 END CTAB
M  END
>  <Dataset>  (658) 
ChEMBL_Kinases

>  <Ligand_Instance>  (658) 
nan

>  <PDB_ID>  (658) 
nan

>  <Standardized_SMILES>  (658) 
NCCNc1nc(-c2ccncc2)nc2c(-c3ccc(Br)cc3)csc12

>  <Name>  (658) 
nan

>  <Pocket>  (658) 
nan

>  <ATP_Site>  (658) 
nan

>  <Peripheral>  (658) 
nan

>  <Num_H_Atoms_ProtBoundConf>  (658) 
nan

>  <Num_Resolved_Atoms>  (658) 
nan

>  <Num_Not_Resolved_Atoms>  (658) 
nan

$$$$
CHEMBL3730153
     RDKit          3D

  0  0  0  0  0  0  0  0  0  0999 V3000
M  V30 BEGIN CTAB
M  V30 COUNTS 53 56 0 0 0
M  V30 BEGIN ATOM
M  V30 1 C 1.005239 -6.121721 1.917110 0
M  V30 2 C 2.059412 -6.049425 0.856407 0
M  V30 3 C 1.579441 -6.686684 -0.446785 0
M  V30 4 C 2.607085 -4.688720 0.648293 0
M  V30 5 N 1.771605 -3.641519 0.250058 0
M  V30 6 C 0.815972 -3.076452 1.101718 0
M  V30 7 C -0.146447 -2.263615 0.188059 0
M  V30 8 C 0.497746 -0.948878 0.051662 0
M  V30 9 C 1.785504 -1.337277 -0.342395 0
M  V30 10 S 2.662640 0.223079 -0.512583 0
M  V30 11 C 1.300055 1.265566 -0.062550 0
M  V30 12 N 1.222083 2.586037 0.032029 0
M  V30 13 C 0.076054 3.178321 0.396202 0
M  V30 14 C 0.013660 4.629384 0.483632 0
M  V30 15 C -1.122171 5.303040 0.856101 0
M  V30 16 C -1.110396 6.687110 0.914040 0
M  V30 17 N 0.020504 7.372986 0.603545 0
M  V30 18 C 1.112544 6.692456 0.244199 0
M  V30 19 C 1.163258 5.334065 0.168524 0
M  V30 20 N -0.931268 2.339624 0.641496 0
M  V30 21 C -0.903434 1.005616 0.559917 0
M  V30 22 N -2.134464 0.347365 0.831021 0
M  V30 23 C -3.308663 1.080856 1.234360 0
M  V30 24 C -4.535560 0.263639 1.455994 0
M  V30 25 N -4.925985 -0.450587 0.236406 0
M  V30 26 C 0.270172 0.393306 0.188300 0
M  V30 27 C 2.353521 -2.648175 -0.585414 0
M  V30 28 H 0.985070 -7.216877 2.247940 0
M  V30 29 H 1.216742 -5.546805 2.820027 0
M  V30 30 H -0.029354 -5.970821 1.495725 0
M  V30 31 H 2.878468 -6.763386 1.196530 0
M  V30 32 H 1.591427 -7.794489 -0.337047 0
M  V30 33 H 2.331540 -6.448119 -1.208146 0
M  V30 34 H 0.546634 -6.421038 -0.686887 0
M  V30 35 H 3.252044 -4.368590 1.536391 0
M  V30 36 H 3.404563 -4.795123 -0.162186 0
M  V30 37 H 1.351592 -2.300784 1.734897 0
M  V30 38 H 0.252654 -3.690691 1.789275 0
M  V30 39 H -0.219640 -2.783579 -0.795767 0
M  V30 40 H -1.113951 -2.321557 0.657039 0
M  V30 41 H -2.005055 4.765221 1.098836 0
M  V30 42 H -1.985690 7.263503 1.203278 0
M  V30 43 H 1.966079 7.326311 0.014414 0
M  V30 44 H 2.117354 4.910563 -0.137855 0
M  V30 45 H -2.448146 -0.613529 0.809559 0
M  V30 46 H -3.064729 1.595270 2.194834 0
M  V30 47 H -3.563641 1.852477 0.473996 0
M  V30 48 H -5.360786 0.965796 1.683058 0
M  V30 49 H -4.399239 -0.474251 2.289190 0
M  V30 50 H -5.737227 0.023303 -0.227070 0
M  V30 51 H -5.257431 -1.401452 0.529610 0
M  V30 52 H 3.452692 -2.674203 -0.408505 0
M  V30 53 H 2.225988 -2.920529 -1.652880 0
M  V30 END ATOM
M  V30 BEGIN BOND
M  V30 1 1 1 2
M  V30 2 1 2 3
M  V30 3 1 2 4
M  V30 4 1 4 5
M  V30 5 1 5 6
M  V30 6 1 6 7
M  V30 7 1 7 8
M  V30 8 2 8 9
M  V30 9 1 9 10
M  V30 10 1 10 11
M  V30 11 2 11 12
M  V30 12 1 12 13
M  V30 13 1 13 14
M  V30 14 2 14 15
M  V30 15 1 15 16
M  V30 16 2 16 17
M  V30 17 1 17 18
M  V30 18 2 18 19
M  V30 19 2 13 20
M  V30 20 1 20 21
M  V30 21 1 21 22
M  V30 22 1 22 23
M  V30 23 1 23 24
M  V30 24 1 24 25
M  V30 25 2 21 26
M  V30 26 1 9 27
M  V30 27 1 27 5
M  V30 28 1 26 8
M  V30 29 1 26 11
M  V30 30 1 19 14
M  V30 31 1 1 28
M  V30 32 1 1 29
M  V30 33 1 1 30
M  V30 34 1 2 31
M  V30 35 1 3 32
M  V30 36 1 3 33
M  V30 37 1 3 34
M  V30 38 1 4 35
M  V30 39 1 4 36
M  V30 40 1 6 37
M  V30 41 1 6 38
M  V30 42 1 7 39
M  V30 43 1 7 40
M  V30 44 1 15 41
M  V30 45 1 16 42
M  V30 46 1 18 43
M  V30 47 1 19 44
M  V30 48 1 22 45
M  V30 49 1 23 46
M  V30 50 1 23 47
M  V30 51 1 24 48
M  V30 52 1 24 49
M  V30 53 1 25 50
M  V30 54 1 25 51
M  V30 55 1 27 52
M  V30 56 1 27 53
M  V30 END BOND
M  V30 END CTAB
M  END
>  <Dataset>  (659) 
ChEMBL_Kinases

>  <Ligand_Instance>  (659) 
nan

>  <PDB_ID>  (659) 
nan

>  <Standardized_SMILES>  (659) 
CC(C)CN1CCc2c(sc3nc(-c4ccncc4)nc(NCCN)c23)C1

>  <Name>  (659) 
nan

>  <Pocket>  (659) 
nan

>  <ATP_Site>  (659) 
nan

>  <Peripheral>  (659) 
nan

>  <Num_H_Atoms_ProtBoundConf>  (659) 
nan

>  <Num_Resolved_Atoms>  (659) 
nan

>  <Num_Not_Resolved_Atoms>  (659) 
nan

$$$$
CHEMBL3729839
     RDKit          3D

  0  0  0  0  0  0  0  0  0  0999 V3000
M  V30 BEGIN CTAB
M  V30 COUNTS 54 58 0 0 0
M  V30 BEGIN ATOM
M  V30 1 N 2.469078 -2.590305 -1.736263 0
M  V30 2 C 1.480703 -2.075052 -0.803779 0 CFG=2
M  V30 3 C 2.008390 -2.139116 0.620985 0
M  V30 4 N 1.001459 -1.623719 1.526273 0
M  V30 5 C 0.593655 -0.267140 1.546715 0
M  V30 6 N 1.168862 0.507818 0.636261 0
M  V30 7 C 0.970658 1.781770 0.388050 0
M  V30 8 C 1.630408 2.579968 -0.622164 0
M  V30 9 C 1.304942 3.914157 -0.753573 0
M  V30 10 C 1.924538 4.689672 -1.711736 0
M  V30 11 N 2.844409 4.131477 -2.511201 0
M  V30 12 C 3.148412 2.833703 -2.369665 0
M  V30 13 C 2.575115 1.976522 -1.432213 0
M  V30 14 N 0.047540 2.318084 1.199445 0
M  V30 15 C -0.567722 1.579144 2.141606 0
M  V30 16 S -1.811757 2.111866 3.284893 0
M  V30 17 C -1.996680 0.486579 4.078772 0
M  V30 18 C -1.103336 -0.310642 3.411669 0
M  V30 19 C -0.354843 0.239075 2.400433 0
M  V30 20 C -0.980483 -1.731498 3.889275 0
M  V30 21 C -1.638933 -1.883942 5.237443 0
M  V30 22 C -3.009045 -1.302392 5.271608 0
M  V30 23 C -2.927631 0.212580 5.148970 0
M  V30 24 C 0.212530 -2.872222 -0.806691 0
M  V30 25 C -0.482042 -2.923536 -2.103240 0
M  V30 26 C -1.656278 -3.674634 -2.062372 0
M  V30 27 C -2.439406 -3.832779 -3.187160 0
M  V30 28 C -2.087702 -3.251597 -4.396595 0
M  V30 29 C -0.913797 -2.526578 -4.350515 0
M  V30 30 N -0.135008 -2.357248 -3.272494 0
M  V30 31 H 2.205262 -2.265690 -2.690812 0
M  V30 32 H 2.454592 -3.643583 -1.772926 0
M  V30 33 H 1.319652 -1.024603 -1.091005 0
M  V30 34 H 2.336390 -3.158377 0.793280 0
M  V30 35 H 2.916685 -1.484971 0.695854 0
M  V30 36 H 0.706058 -2.461774 2.062755 0
M  V30 37 H 0.577947 4.367163 -0.126056 0
M  V30 38 H 1.645263 5.745027 -1.791886 0
M  V30 39 H 3.903887 2.465001 -3.058958 0
M  V30 40 H 2.871553 0.934740 -1.375734 0
M  V30 41 H 0.103629 -1.951084 4.118825 0
M  V30 42 H -1.390654 -2.462952 3.202820 0
M  V30 43 H -1.730483 -2.963295 5.473161 0
M  V30 44 H -1.027412 -1.430021 6.049755 0
M  V30 45 H -3.490437 -1.540359 6.235976 0
M  V30 46 H -3.630926 -1.680137 4.434146 0
M  V30 47 H -2.616935 0.695990 6.095393 0
M  V30 48 H -3.930979 0.603554 4.896847 0
M  V30 49 H 0.488304 -3.902801 -0.454333 0
M  V30 50 H -0.468990 -2.378358 -0.075107 0
M  V30 51 H -2.042887 -4.183776 -1.168886 0
M  V30 52 H -3.368972 -4.423288 -3.168551 0
M  V30 53 H -2.662856 -3.346279 -5.294814 0
M  V30 54 H -0.552768 -2.033599 -5.243781 0
M  V30 END ATOM
M  V30 BEGIN BOND
M  V30 1 1 1 2
M  V30 2 1 2 3
M  V30 3 1 3 4
M  V30 4 1 4 5
M  V30 5 2 5 6
M  V30 6 1 6 7
M  V30 7 1 7 8
M  V30 8 2 8 9
M  V30 9 1 9 10
M  V30 10 2 10 11
M  V30 11 1 11 12
M  V30 12 2 12 13
M  V30 13 2 7 14
M  V30 14 1 14 15
M  V30 15 1 15 16
M  V30 16 1 16 17
M  V30 17 2 17 18
M  V30 18 1 18 19
M  V30 19 1 18 20
M  V30 20 1 20 21
M  V30 21 1 21 22
M  V30 22 1 22 23
M  V30 23 1 2 24
M  V30 24 1 24 25
M  V30 25 2 25 26
M  V30 26 1 26 27
M  V30 27 2 27 28
M  V30 28 1 28 29
M  V30 29 2 29 30
M  V30 30 1 19 5
M  V30 31 1 30 25
M  V30 32 1 13 8
M  V30 33 2 19 15
M  V30 34 1 23 17
M  V30 35 1 1 31
M  V30 36 1 1 32
M  V30 37 1 2 33 CFG=3
M  V30 38 1 3 34
M  V30 39 1 3 35
M  V30 40 1 4 36
M  V30 41 1 9 37
M  V30 42 1 10 38
M  V30 43 1 12 39
M  V30 44 1 13 40
M  V30 45 1 20 41
M  V30 46 1 20 42
M  V30 47 1 21 43
M  V30 48 1 21 44
M  V30 49 1 22 45
M  V30 50 1 22 46
M  V30 51 1 23 47
M  V30 52 1 23 48
M  V30 53 1 24 49
M  V30 54 1 24 50
M  V30 55 1 26 51
M  V30 56 1 27 52
M  V30 57 1 28 53
M  V30 58 1 29 54
M  V30 END BOND
M  V30 END CTAB
M  END
>  <Dataset>  (660) 
ChEMBL_Kinases

>  <Ligand_Instance>  (660) 
nan

>  <PDB_ID>  (660) 
nan

>  <Standardized_SMILES>  (660) 
N[C@H](CNc1nc(-c2ccncc2)nc2sc3c(c12)CCCC3)Cc1ccccn1

>  <Name>  (660) 
nan

>  <Pocket>  (660) 
nan

>  <ATP_Site>  (660) 
nan

>  <Peripheral>  (660) 
nan

>  <Num_H_Atoms_ProtBoundConf>  (660) 
nan

>  <Num_Resolved_Atoms>  (660) 
nan

>  <Num_Not_Resolved_Atoms>  (660) 
nan

$$$$
CHEMBL3729835
     RDKit          3D

  0  0  0  0  0  0  0  0  0  0999 V3000
M  V30 BEGIN CTAB
M  V30 COUNTS 57 61 0 0 0
M  V30 BEGIN ATOM
M  V30 1 N 0.159167 2.983532 1.263802 0
M  V30 2 C 0.010374 1.576065 0.906641 0 CFG=2
M  V30 3 C 1.325132 0.836325 1.091923 0
M  V30 4 C 1.811318 0.898415 2.529271 0
M  V30 5 C 3.095827 0.173338 2.702616 0
M  V30 6 C 3.045351 -1.166935 3.029512 0
M  V30 7 C 4.206548 -1.909690 3.207502 0
M  V30 8 C 5.442958 -1.321130 3.060715 0
M  V30 9 C 5.469100 0.019225 2.733863 0
M  V30 10 C 4.328584 0.782673 2.550772 0
M  V30 11 C -0.314223 1.559919 -0.565061 0
M  V30 12 O -0.469794 0.257939 -0.991486 0
M  V30 13 C -1.353076 -0.699625 -0.596071 0
M  V30 14 N -2.247609 -0.412930 0.351397 0
M  V30 15 C -3.177555 -1.216875 0.856055 0
M  V30 16 C -4.104522 -0.786240 1.896070 0
M  V30 17 C -5.046038 -1.674729 2.374520 0
M  V30 18 C -5.917956 -1.256165 3.358648 0
M  V30 19 N -5.837839 0.000503 3.832692 0
M  V30 20 C -4.921717 0.877082 3.372399 0
M  V30 21 C -4.020727 0.503463 2.381130 0
M  V30 22 N -3.226614 -2.462363 0.358301 0
M  V30 23 C -2.346292 -2.802809 -0.599527 0
M  V30 24 S -2.137371 -4.356940 -1.469082 0
M  V30 25 C -0.785670 -3.861242 -2.495901 0
M  V30 26 C -0.551817 -2.444817 -2.093434 0
M  V30 27 C -1.385455 -1.970394 -1.120181 0
M  V30 28 C 0.572610 -1.887061 -2.881621 0
M  V30 29 C 0.263071 -1.948727 -4.365283 0
M  V30 30 C 0.113778 -3.402717 -4.770121 0
M  V30 31 C 0.154033 -4.314231 -3.558462 0
M  V30 32 H 0.694883 3.427567 0.485252 0
M  V30 33 H -0.785578 3.409112 1.294309 0
M  V30 34 H -0.829930 1.113264 1.454718 0
M  V30 35 H 2.038987 1.284713 0.392388 0
M  V30 36 H 1.188151 -0.227836 0.815104 0
M  V30 37 H 1.016058 0.567041 3.226024 0
M  V30 38 H 2.016236 1.985405 2.726007 0
M  V30 39 H 2.115421 -1.694530 3.160620 0
M  V30 40 H 4.169147 -2.967607 3.465527 0
M  V30 41 H 6.340582 -1.903408 3.200291 0
M  V30 42 H 6.419751 0.530551 2.606665 0
M  V30 43 H 4.368416 1.843264 2.292082 0
M  V30 44 H 0.574429 2.004184 -1.086380 0
M  V30 45 H -1.155175 2.236380 -0.819968 0
M  V30 46 H -5.150900 -2.692207 2.027482 0
M  V30 47 H -6.707929 -1.860012 3.821816 0
M  V30 48 H -4.825147 1.905305 3.731757 0
M  V30 49 H -3.287442 1.207143 2.013595 0
M  V30 50 H 0.821619 -0.871409 -2.580330 0
M  V30 51 H 1.510365 -2.490727 -2.703084 0
M  V30 52 H -0.712475 -1.433405 -4.500027 0
M  V30 53 H 1.104853 -1.473041 -4.898704 0
M  V30 54 H 0.941135 -3.689893 -5.426447 0
M  V30 55 H -0.844312 -3.558443 -5.283222 0
M  V30 56 H 1.161314 -4.447207 -3.163026 0
M  V30 57 H -0.274022 -5.290817 -3.912958 0
M  V30 END ATOM
M  V30 BEGIN BOND
M  V30 1 1 1 2
M  V30 2 1 2 3
M  V30 3 1 3 4
M  V30 4 1 4 5
M  V30 5 2 5 6
M  V30 6 1 6 7
M  V30 7 2 7 8
M  V30 8 1 8 9
M  V30 9 2 9 10
M  V30 10 1 2 11
M  V30 11 1 11 12
M  V30 12 1 12 13
M  V30 13 2 13 14
M  V30 14 1 14 15
M  V30 15 1 15 16
M  V30 16 2 16 17
M  V30 17 1 17 18
M  V30 18 2 18 19
M  V30 19 1 19 20
M  V30 20 2 20 21
M  V30 21 2 15 22
M  V30 22 1 22 23
M  V30 23 1 23 24
M  V30 24 1 24 25
M  V30 25 2 25 26
M  V30 26 1 26 27
M  V30 27 1 26 28
M  V30 28 1 28 29
M  V30 29 1 29 30
M  V30 30 1 30 31
M  V30 31 1 10 5
M  V30 32 1 27 13
M  V30 33 1 21 16
M  V30 34 2 27 23
M  V30 35 1 31 25
M  V30 36 1 1 32
M  V30 37 1 1 33
M  V30 38 1 2 34 CFG=1
M  V30 39 1 3 35
M  V30 40 1 3 36
M  V30 41 1 4 37
M  V30 42 1 4 38
M  V30 43 1 6 39
M  V30 44 1 7 40
M  V30 45 1 8 41
M  V30 46 1 9 42
M  V30 47 1 10 43
M  V30 48 1 11 44
M  V30 49 1 11 45
M  V30 50 1 17 46
M  V30 51 1 18 47
M  V30 52 1 20 48
M  V30 53 1 21 49
M  V30 54 1 28 50
M  V30 55 1 28 51
M  V30 56 1 29 52
M  V30 57 1 29 53
M  V30 58 1 30 54
M  V30 59 1 30 55
M  V30 60 1 31 56
M  V30 61 1 31 57
M  V30 END BOND
M  V30 END CTAB
M  END
>  <Dataset>  (661) 
ChEMBL_Kinases

>  <Ligand_Instance>  (661) 
nan

>  <PDB_ID>  (661) 
nan

>  <Standardized_SMILES>  (661) 
N[C@H](CCc1ccccc1)COc1nc(-c2ccncc2)nc2sc3c(c12)CCCC3

>  <Name>  (661) 
nan

>  <Pocket>  (661) 
nan

>  <ATP_Site>  (661) 
nan

>  <Peripheral>  (661) 
nan

>  <Num_H_Atoms_ProtBoundConf>  (661) 
nan

>  <Num_Resolved_Atoms>  (661) 
nan

>  <Num_Not_Resolved_Atoms>  (661) 
nan

$$$$
CHEMBL3729827
     RDKit          3D

  0  0  0  0  0  0  0  0  0  0999 V3000
M  V30 BEGIN CTAB
M  V30 COUNTS 38 40 0 0 0
M  V30 BEGIN ATOM
M  V30 1 C -0.971199 -2.510143 2.471392 0
M  V30 2 N -0.129610 -3.490311 1.885144 0
M  V30 3 C 0.515866 -4.376648 2.789049 0
M  V30 4 C 0.559292 -3.145640 0.698327 0
M  V30 5 C -0.277948 -2.952607 -0.516701 0
M  V30 6 N -1.274394 -1.913401 -0.424512 0
M  V30 7 C -0.905882 -0.581610 -0.223258 0
M  V30 8 N 0.388522 -0.216050 -0.110814 0
M  V30 9 C 0.564447 1.125121 0.080263 0
M  V30 10 C 1.961229 1.593839 0.210689 0
M  V30 11 C 2.281189 2.899078 0.405811 0
M  V30 12 C 3.580627 3.357784 0.529410 0
M  V30 13 N 4.582452 2.450246 0.450420 0
M  V30 14 C 4.250748 1.152052 0.255689 0
M  V30 15 C 2.956243 0.647060 0.126045 0
M  V30 16 N -0.422404 2.031331 0.156107 0
M  V30 17 C -1.713939 1.665666 0.043756 0
M  V30 18 C -2.722280 2.576427 0.118270 0
M  V30 19 Br -2.714036 4.460793 0.374091 0
M  V30 20 C -4.038999 1.975327 -0.028009 0
M  V30 21 S -3.647670 0.133755 -0.259863 0
M  V30 22 C -1.940181 0.333364 -0.148622 0
M  V30 23 H -2.001360 -2.510037 2.075886 0
M  V30 24 H -1.065913 -2.787005 3.563323 0
M  V30 25 H -0.488703 -1.516325 2.488110 0
M  V30 26 H -0.159400 -5.141064 3.252865 0
M  V30 27 H 1.376058 -4.858035 2.278426 0
M  V30 28 H 0.941977 -3.804672 3.641779 0
M  V30 29 H 1.151817 -2.219211 0.874518 0
M  V30 30 H 1.314352 -3.931550 0.489545 0
M  V30 31 H -0.672473 -3.909022 -0.927194 0
M  V30 32 H 0.430740 -2.594635 -1.322815 0
M  V30 33 H -2.252724 -2.245342 -0.519346 0
M  V30 34 H 1.422249 3.563330 0.457899 0
M  V30 35 H 3.762586 4.411980 0.683243 0
M  V30 36 H 5.083204 0.466609 0.199748 0
M  V30 37 H 2.795571 -0.401086 -0.026113 0
M  V30 38 H -5.045336 2.439497 -0.010379 0
M  V30 END ATOM
M  V30 BEGIN BOND
M  V30 1 1 1 2
M  V30 2 1 2 3
M  V30 3 1 2 4
M  V30 4 1 4 5
M  V30 5 1 5 6
M  V30 6 1 6 7
M  V30 7 2 7 8
M  V30 8 1 8 9
M  V30 9 1 9 10
M  V30 10 2 10 11
M  V30 11 1 11 12
M  V30 12 2 12 13
M  V30 13 1 13 14
M  V30 14 2 14 15
M  V30 15 2 9 16
M  V30 16 1 16 17
M  V30 17 1 17 18
M  V30 18 1 18 19
M  V30 19 2 18 20
M  V30 20 1 20 21
M  V30 21 1 21 22
M  V30 22 1 22 7
M  V30 23 1 15 10
M  V30 24 2 22 17
M  V30 25 1 1 23
M  V30 26 1 1 24
M  V30 27 1 1 25
M  V30 28 1 3 26
M  V30 29 1 3 27
M  V30 30 1 3 28
M  V30 31 1 4 29
M  V30 32 1 4 30
M  V30 33 1 5 31
M  V30 34 1 5 32
M  V30 35 1 6 33
M  V30 36 1 11 34
M  V30 37 1 12 35
M  V30 38 1 14 36
M  V30 39 1 15 37
M  V30 40 1 20 38
M  V30 END BOND
M  V30 END CTAB
M  END
>  <Dataset>  (662) 
ChEMBL_Kinases

>  <Ligand_Instance>  (662) 
nan

>  <PDB_ID>  (662) 
nan

>  <Standardized_SMILES>  (662) 
CN(C)CCNc1nc(-c2ccncc2)nc2c(Br)csc12

>  <Name>  (662) 
nan

>  <Pocket>  (662) 
nan

>  <ATP_Site>  (662) 
nan

>  <Peripheral>  (662) 
nan

>  <Num_H_Atoms_ProtBoundConf>  (662) 
nan

>  <Num_Resolved_Atoms>  (662) 
nan

>  <Num_Not_Resolved_Atoms>  (662) 
nan

$$$$
CHEMBL523925
     RDKit          3D

  0  0  0  0  0  0  0  0  0  0999 V3000
M  V30 BEGIN CTAB
M  V30 COUNTS 43 46 0 0 0
M  V30 BEGIN ATOM
M  V30 1 N 0.830336 -7.632659 -0.162395 0
M  V30 2 C 1.206815 -6.539920 -0.140504 0
M  V30 3 C 1.662392 -5.159884 -0.128851 0
M  V30 4 C 1.015591 -4.195354 -0.872090 0
M  V30 5 C 1.404055 -2.867804 -0.899640 0
M  V30 6 C 2.484899 -2.499146 -0.149871 0
M  V30 7 C 3.076133 -1.159155 -0.022652 0
M  V30 8 C 4.443685 -0.892723 -0.074449 0
M  V30 9 N 4.647582 0.418434 0.073152 0
M  V30 10 C 3.436627 0.982746 0.216780 0
M  V30 11 C 3.051541 2.299111 0.401361 0
M  V30 12 C 1.704871 2.538328 0.513664 0
M  V30 13 C 0.727270 1.557949 0.454190 0
M  V30 14 N -0.652015 1.840750 0.573799 0
M  V30 15 C -1.635335 0.798036 0.507091 0
M  V30 16 C -1.473636 -0.260610 1.584681 0
M  V30 17 C -1.319469 0.519023 2.875422 0
M  V30 18 C -2.685428 1.061313 3.194746 0
M  V30 19 C -3.410419 1.699473 2.080014 0
M  V30 20 C -3.012744 1.376522 0.692905 0
M  V30 21 N 1.177460 0.288383 0.271307 0
M  V30 22 N 2.490144 0.048623 0.161037 0
M  V30 23 C 3.145895 -3.464202 0.604546 0
M  V30 24 C 2.762475 -4.782246 0.633662 0
M  V30 25 H 0.152146 -4.447258 -1.481629 0
M  V30 26 H 0.943951 -2.084885 -1.452385 0
M  V30 27 H 5.192522 -1.681170 -0.216966 0
M  V30 28 H 3.751948 3.125809 0.459141 0
M  V30 29 H 1.397339 3.581944 0.660145 0
M  V30 30 H -0.919502 2.843735 0.712786 0
M  V30 31 H -1.623409 0.310756 -0.500255 0
M  V30 32 H -2.458961 -0.792460 1.653469 0
M  V30 33 H -0.646265 -0.966897 1.391402 0
M  V30 34 H -0.655535 1.390511 2.712272 0
M  V30 35 H -1.003656 -0.123777 3.721788 0
M  V30 36 H -2.547323 1.783658 4.049389 0
M  V30 37 H -3.265168 0.219855 3.659433 0
M  V30 38 H -3.447237 2.814665 2.257192 0
M  V30 39 H -4.496175 1.403391 2.186776 0
M  V30 40 H -3.748487 0.727052 0.146988 0
M  V30 41 H -3.011846 2.334852 0.097732 0
M  V30 42 H 4.007841 -3.253587 1.223208 0
M  V30 43 H 3.274055 -5.540563 1.220401 0
M  V30 END ATOM
M  V30 BEGIN BOND
M  V30 1 3 1 2
M  V30 2 1 2 3
M  V30 3 2 3 4
M  V30 4 1 4 5
M  V30 5 2 5 6
M  V30 6 1 6 7
M  V30 7 2 7 8
M  V30 8 1 8 9
M  V30 9 2 9 10
M  V30 10 1 10 11
M  V30 11 2 11 12
M  V30 12 1 12 13
M  V30 13 1 13 14
M  V30 14 1 14 15
M  V30 15 1 15 16
M  V30 16 1 16 17
M  V30 17 1 17 18
M  V30 18 1 18 19
M  V30 19 1 19 20
M  V30 20 2 13 21
M  V30 21 1 21 22
M  V30 22 1 6 23
M  V30 23 2 23 24
M  V30 24 1 24 3
M  V30 25 1 22 7
M  V30 26 1 22 10
M  V30 27 1 20 15
M  V30 28 1 4 25
M  V30 29 1 5 26
M  V30 30 1 8 27
M  V30 31 1 11 28
M  V30 32 1 12 29
M  V30 33 1 14 30
M  V30 34 1 15 31
M  V30 35 1 16 32
M  V30 36 1 16 33
M  V30 37 1 17 34
M  V30 38 1 17 35
M  V30 39 1 18 36
M  V30 40 1 18 37
M  V30 41 1 19 38
M  V30 42 1 19 39
M  V30 43 1 20 40
M  V30 44 1 20 41
M  V30 45 1 23 42
M  V30 46 1 24 43
M  V30 END BOND
M  V30 END CTAB
M  END
>  <Dataset>  (663) 
ChEMBL_Kinases

>  <Ligand_Instance>  (663) 
nan

>  <PDB_ID>  (663) 
nan

>  <Standardized_SMILES>  (663) 
N#Cc1ccc(-c2cnc3ccc(NC4CCCCC4)nn23)cc1

>  <Name>  (663) 
nan

>  <Pocket>  (663) 
nan

>  <ATP_Site>  (663) 
nan

>  <Peripheral>  (663) 
nan

>  <Num_H_Atoms_ProtBoundConf>  (663) 
nan

>  <Num_Resolved_Atoms>  (663) 
nan

>  <Num_Not_Resolved_Atoms>  (663) 
nan

$$$$
CHEMBL3729811
     RDKit          3D

  0  0  0  0  0  0  0  0  0  0999 V3000
M  V30 BEGIN CTAB
M  V30 COUNTS 45 48 0 0 0
M  V30 BEGIN ATOM
M  V30 1 N -2.142794 -2.473027 2.524551 0
M  V30 2 C -0.747655 -2.363243 2.910328 0 CFG=2
M  V30 3 C -0.148296 -1.230401 2.119141 0
M  V30 4 N -0.773396 0.024924 2.344662 0
M  V30 5 C -0.304924 1.157628 1.666421 0
M  V30 6 N 0.737789 1.073874 0.796511 0
M  V30 7 C 1.070186 2.267158 0.219725 0
M  V30 8 C 2.197461 2.249211 -0.738546 0
M  V30 9 C 2.804449 1.032004 -0.958061 0
M  V30 10 C 3.869614 1.028424 -1.866833 0
M  V30 11 N 4.262287 2.139519 -2.474977 0
M  V30 12 C 3.667570 3.333513 -2.260241 0
M  V30 13 C 2.597216 3.410008 -1.364938 0
M  V30 14 F 1.914409 4.557123 -1.063458 0
M  V30 15 N 0.452576 3.431708 0.461293 0
M  V30 16 C -0.587482 3.519839 1.327861 0
M  V30 17 C -1.214923 4.692665 1.575829 0
M  V30 18 C -2.297550 4.562408 2.532390 0
M  V30 19 S -2.271446 2.715900 2.963338 0
M  V30 20 C -0.961327 2.340694 1.936568 0
M  V30 21 C -0.040420 -3.657379 2.727900 0
M  V30 22 C -0.051052 -4.152053 1.329264 0
M  V30 23 C 0.925635 -3.841719 0.398531 0
M  V30 24 C 0.786256 -4.373958 -0.867678 0
M  V30 25 C -0.253699 -5.183884 -1.251421 0
M  V30 26 C -1.236201 -5.500920 -0.329067 0
M  V30 27 C -1.119032 -4.975601 0.958701 0
M  V30 28 H -2.643254 -3.243453 2.976925 0
M  V30 29 H -2.284505 -2.404991 1.497879 0
M  V30 30 H -0.761782 -2.153702 4.003692 0
M  V30 31 H 0.927364 -1.178508 2.353262 0
M  V30 32 H -0.234558 -1.504252 1.047501 0
M  V30 33 H -1.565378 0.022822 3.021518 0
M  V30 34 H 2.524183 0.098893 -0.489607 0
M  V30 35 H 4.374476 0.092564 -2.068213 0
M  V30 36 H 3.908082 4.293649 -2.701376 0
M  V30 37 H -1.051698 5.683629 1.193196 0
M  V30 38 H -2.948162 5.451963 2.869662 0
M  V30 39 H -0.514362 -4.415070 3.385105 0
M  V30 40 H 1.008777 -3.590605 3.071952 0
M  V30 41 H 1.747606 -3.203888 0.695146 0
M  V30 42 H 1.537448 -4.148450 -1.621294 0
M  V30 43 H -0.354235 -5.595696 -2.244733 0
M  V30 44 H -2.084168 -6.131799 -0.557310 0
M  V30 45 H -1.892253 -5.230526 1.669045 0
M  V30 END ATOM
M  V30 BEGIN BOND
M  V30 1 1 1 2
M  V30 2 1 2 3
M  V30 3 1 3 4
M  V30 4 1 4 5
M  V30 5 2 5 6
M  V30 6 1 6 7
M  V30 7 1 7 8
M  V30 8 2 8 9
M  V30 9 1 9 10
M  V30 10 2 10 11
M  V30 11 1 11 12
M  V30 12 2 12 13
M  V30 13 1 13 14
M  V30 14 2 7 15
M  V30 15 1 15 16
M  V30 16 1 16 17
M  V30 17 2 17 18
M  V30 18 1 18 19
M  V30 19 1 19 20
M  V30 20 1 2 21
M  V30 21 1 21 22
M  V30 22 2 22 23
M  V30 23 1 23 24
M  V30 24 2 24 25
M  V30 25 1 25 26
M  V30 26 2 26 27
M  V30 27 1 20 5
M  V30 28 1 27 22
M  V30 29 1 13 8
M  V30 30 2 20 16
M  V30 31 1 1 28
M  V30 32 1 1 29
M  V30 33 1 2 30 CFG=1
M  V30 34 1 3 31
M  V30 35 1 3 32
M  V30 36 1 4 33
M  V30 37 1 9 34
M  V30 38 1 10 35
M  V30 39 1 12 36
M  V30 40 1 17 37
M  V30 41 1 18 38
M  V30 42 1 21 39
M  V30 43 1 21 40
M  V30 44 1 23 41
M  V30 45 1 24 42
M  V30 46 1 25 43
M  V30 47 1 26 44
M  V30 48 1 27 45
M  V30 END BOND
M  V30 END CTAB
M  END
>  <Dataset>  (664) 
ChEMBL_Kinases

>  <Ligand_Instance>  (664) 
nan

>  <PDB_ID>  (664) 
nan

>  <Standardized_SMILES>  (664) 
N[C@H](CNc1nc(-c2ccncc2F)nc2ccsc12)Cc1ccccc1

>  <Name>  (664) 
nan

>  <Pocket>  (664) 
nan

>  <ATP_Site>  (664) 
nan

>  <Peripheral>  (664) 
nan

>  <Num_H_Atoms_ProtBoundConf>  (664) 
nan

>  <Num_Resolved_Atoms>  (664) 
nan

>  <Num_Not_Resolved_Atoms>  (664) 
nan

$$$$
CHEMBL3729791
     RDKit          3D

  0  0  0  0  0  0  0  0  0  0999 V3000
M  V30 BEGIN CTAB
M  V30 COUNTS 54 58 0 0 0
M  V30 BEGIN ATOM
M  V30 1 C -0.508781 -3.066116 4.340916 0
M  V30 2 C -0.461692 -2.907452 2.832175 0 CFG=1
M  V30 3 N 0.914967 -2.921753 2.344048 0
M  V30 4 C 0.779658 -2.780676 0.928208 0
M  V30 5 C 0.711978 -1.538152 0.365570 0
M  V30 6 C 0.582805 -1.418021 -1.000873 0
M  V30 7 C 0.514544 -0.025578 -1.503895 0
M  V30 8 N 0.586108 1.039220 -0.676215 0
M  V30 9 C 0.513275 2.262378 -1.215616 0
M  V30 10 N 0.570794 3.466720 -0.508660 0
M  V30 11 C 0.716365 3.504210 0.908806 0 CFG=2
M  V30 12 C 1.998332 2.822257 1.404689 0
M  V30 13 C 1.690809 2.772508 2.896585 0
M  V30 14 N 0.251361 2.646738 3.022025 0
M  V30 15 C -0.310783 2.737913 1.686986 0
M  V30 16 C 0.369863 2.324422 -2.584512 0
M  V30 17 S 0.233755 3.816483 -3.688918 0
M  V30 18 C 0.082341 2.780954 -5.278651 0
M  V30 19 C 0.150068 1.490035 -4.802108 0
M  V30 20 C 0.292175 1.247038 -3.471727 0
M  V30 21 N 0.374400 0.068700 -2.837273 0
M  V30 22 C 0.519289 -2.534711 -1.826854 0
M  V30 23 C 0.593656 -3.756423 -1.192784 0
M  V30 24 N 0.719443 -3.870178 0.140051 0
M  V30 25 C -1.312287 -3.913727 2.148634 0
M  V30 26 C -0.953236 -5.226046 1.921432 0
M  V30 27 C -1.800939 -6.107307 1.273083 0
M  V30 28 C -3.043715 -5.718461 0.822949 0
M  V30 29 C -3.470365 -4.405875 1.019575 0
M  V30 30 C -2.578841 -3.582141 1.670815 0
M  V30 31 H -0.961238 -4.042636 4.645704 0
M  V30 32 H -1.121979 -2.288369 4.837343 0
M  V30 33 H 0.516388 -2.963628 4.732765 0
M  V30 34 H -0.932669 -1.902544 2.626985 0
M  V30 35 H 1.796156 -3.013006 2.890511 0
M  V30 36 H 0.762544 -0.696905 1.020981 0
M  V30 37 H 0.508555 4.388561 -1.000433 0
M  V30 38 H 0.717960 4.552981 1.301777 0
M  V30 39 H 2.095920 1.825864 0.969790 0
M  V30 40 H 2.866628 3.449300 1.200402 0
M  V30 41 H 2.215723 1.965783 3.423297 0
M  V30 42 H 1.949153 3.799936 3.287104 0
M  V30 43 H -0.028389 1.803270 3.547409 0
M  V30 44 H -1.250331 3.342118 1.696384 0
M  V30 45 H -0.479596 1.710143 1.327647 0
M  V30 46 H -0.017276 3.233418 -6.172363 0
M  V30 47 H 0.082281 0.730732 -5.562563 0
M  V30 48 H 0.417240 -2.372154 -2.897857 0
M  V30 49 H 0.545106 -4.641379 -1.837392 0
M  V30 50 H 0.017866 -5.548563 2.267345 0
M  V30 51 H -1.506534 -7.140377 1.099777 0
M  V30 52 H -3.723806 -6.379097 0.316367 0
M  V30 53 H -4.418781 -4.000315 0.708349 0
M  V30 54 H -2.885308 -2.543542 1.840908 0
M  V30 END ATOM
M  V30 BEGIN BOND
M  V30 1 1 1 2
M  V30 2 1 2 3
M  V30 3 1 3 4
M  V30 4 2 4 5
M  V30 5 1 5 6
M  V30 6 1 6 7
M  V30 7 2 7 8
M  V30 8 1 8 9
M  V30 9 1 9 10
M  V30 10 1 10 11
M  V30 11 1 11 12
M  V30 12 1 12 13
M  V30 13 1 13 14
M  V30 14 1 14 15
M  V30 15 2 9 16
M  V30 16 1 16 17
M  V30 17 1 17 18
M  V30 18 2 18 19
M  V30 19 1 19 20
M  V30 20 2 20 21
M  V30 21 2 6 22
M  V30 22 1 22 23
M  V30 23 2 23 24
M  V30 24 1 2 25
M  V30 25 2 25 26
M  V30 26 1 26 27
M  V30 27 2 27 28
M  V30 28 1 28 29
M  V30 29 2 29 30
M  V30 30 1 24 4
M  V30 31 1 30 25
M  V30 32 1 21 7
M  V30 33 1 15 11
M  V30 34 1 20 16
M  V30 35 1 1 31
M  V30 36 1 1 32
M  V30 37 1 1 33
M  V30 38 1 2 34 CFG=1
M  V30 39 1 3 35
M  V30 40 1 5 36
M  V30 41 1 10 37
M  V30 42 1 11 38 CFG=1
M  V30 43 1 12 39
M  V30 44 1 12 40
M  V30 45 1 13 41
M  V30 46 1 13 42
M  V30 47 1 14 43
M  V30 48 1 15 44
M  V30 49 1 15 45
M  V30 50 1 18 46
M  V30 51 1 19 47
M  V30 52 1 22 48
M  V30 53 1 23 49
M  V30 54 1 26 50
M  V30 55 1 27 51
M  V30 56 1 28 52
M  V30 57 1 29 53
M  V30 58 1 30 54
M  V30 END BOND
M  V30 END CTAB
M  END
>  <Dataset>  (665) 
ChEMBL_Kinases

>  <Ligand_Instance>  (665) 
nan

>  <PDB_ID>  (665) 
nan

>  <Standardized_SMILES>  (665) 
C[C@@H](Nc1cc(-c2nc(N[C@@H]3CCNC3)c3sccc3n2)ccn1)c1ccccc1

>  <Name>  (665) 
nan

>  <Pocket>  (665) 
nan

>  <ATP_Site>  (665) 
nan

>  <Peripheral>  (665) 
nan

>  <Num_H_Atoms_ProtBoundConf>  (665) 
nan

>  <Num_Resolved_Atoms>  (665) 
nan

>  <Num_Not_Resolved_Atoms>  (665) 
nan

$$$$
CHEMBL3729786
     RDKit          3D

  0  0  0  0  0  0  0  0  0  0999 V3000
M  V30 BEGIN CTAB
M  V30 COUNTS 51 55 0 0 0
M  V30 BEGIN ATOM
M  V30 1 N -0.878623 -3.720910 2.963294 0
M  V30 2 C -0.150555 -3.733981 1.711839 0 CFG=2
M  V30 3 C 0.644684 -2.462530 1.499004 0
M  V30 4 O -0.164150 -1.326989 1.474429 0
M  V30 5 C 0.262479 -0.020213 1.298280 0
M  V30 6 N 1.588923 0.117859 1.140073 0
M  V30 7 C 2.243903 1.261854 0.955207 0
M  V30 8 C 3.687151 1.358458 0.788426 0
M  V30 9 C 4.438519 0.201680 0.821484 0
M  V30 10 C 5.810421 0.363629 0.656016 0
M  V30 11 N 6.414737 1.556383 0.471767 0
M  V30 12 C 5.641909 2.654639 0.446857 0
M  V30 13 C 4.270711 2.610407 0.600558 0
M  V30 14 N 1.460073 2.352813 0.932350 0
M  V30 15 C 0.085763 2.264336 1.090847 0
M  V30 16 S -1.159127 3.457753 1.108033 0
M  V30 17 C -2.517956 2.315102 1.369362 0
M  V30 18 C -1.890348 1.099020 1.421767 0
M  V30 19 C -0.545689 1.104871 1.274685 0
M  V30 20 C -2.924025 0.044026 1.641380 0
M  V30 21 C -3.889987 0.189406 0.457758 0
M  V30 22 C -4.733147 1.420801 0.676838 0
M  V30 23 C -4.029671 2.457542 1.516445 0
M  V30 24 C -1.061428 -4.019424 0.543689 0
M  V30 25 C -0.284523 -4.021936 -0.688643 0
M  V30 26 C 0.036863 -3.053586 -1.572746 0
M  V30 27 C 0.784601 -3.283857 -2.672388 0
M  V30 28 C 1.206983 -4.688725 -2.802064 0
M  V30 29 S 0.451893 -5.482926 -1.295768 0
M  V30 30 H -0.332046 -4.249283 3.678764 0
M  V30 31 H -1.773539 -4.231527 2.805673 0
M  V30 32 H 0.591279 -4.552230 1.737966 0
M  V30 33 H 1.336373 -2.386019 2.360562 0
M  V30 34 H 1.252499 -2.609296 0.597408 0
M  V30 35 H 4.020492 -0.775594 0.964052 0
M  V30 36 H 6.503088 -0.477362 0.664113 0
M  V30 37 H 6.048545 3.662565 0.302489 0
M  V30 38 H 3.639470 3.500417 0.580902 0
M  V30 39 H -2.459789 -0.938246 1.633431 0
M  V30 40 H -3.486376 0.273065 2.567964 0
M  V30 41 H -4.479427 -0.718266 0.277259 0
M  V30 42 H -3.243124 0.349228 -0.430471 0
M  V30 43 H -5.057427 1.800592 -0.311141 0
M  V30 44 H -5.646106 1.104397 1.222906 0
M  V30 45 H -4.339708 2.461969 2.561003 0
M  V30 46 H -4.332664 3.441006 1.075328 0
M  V30 47 H -1.559316 -4.982388 0.684727 0
M  V30 48 H -1.836728 -3.233368 0.438242 0
M  V30 49 H -0.341171 -2.063825 -1.353481 0
M  V30 50 H 1.074248 -2.556729 -3.413079 0
M  V30 51 H 1.868745 -4.961316 -3.748737 0
M  V30 END ATOM
M  V30 BEGIN BOND
M  V30 1 1 1 2
M  V30 2 1 2 3
M  V30 3 1 3 4
M  V30 4 1 4 5
M  V30 5 2 5 6
M  V30 6 1 6 7
M  V30 7 1 7 8
M  V30 8 2 8 9
M  V30 9 1 9 10
M  V30 10 2 10 11
M  V30 11 1 11 12
M  V30 12 2 12 13
M  V30 13 2 7 14
M  V30 14 1 14 15
M  V30 15 1 15 16
M  V30 16 1 16 17
M  V30 17 2 17 18
M  V30 18 1 18 19
M  V30 19 1 18 20
M  V30 20 1 20 21
M  V30 21 1 21 22
M  V30 22 1 22 23
M  V30 23 1 2 24
M  V30 24 1 24 25
M  V30 25 2 25 26
M  V30 26 1 26 27
M  V30 27 2 27 28
M  V30 28 1 28 29
M  V30 29 1 19 5
M  V30 30 1 29 25
M  V30 31 1 13 8
M  V30 32 2 19 15
M  V30 33 1 23 17
M  V30 34 1 1 30
M  V30 35 1 1 31
M  V30 36 1 2 32 CFG=1
M  V30 37 1 3 33
M  V30 38 1 3 34
M  V30 39 1 9 35
M  V30 40 1 10 36
M  V30 41 1 12 37
M  V30 42 1 13 38
M  V30 43 1 20 39
M  V30 44 1 20 40
M  V30 45 1 21 41
M  V30 46 1 21 42
M  V30 47 1 22 43
M  V30 48 1 22 44
M  V30 49 1 23 45
M  V30 50 1 23 46
M  V30 51 1 24 47
M  V30 52 1 24 48
M  V30 53 1 26 49
M  V30 54 1 27 50
M  V30 55 1 28 51
M  V30 END BOND
M  V30 END CTAB
M  END
>  <Dataset>  (666) 
ChEMBL_Kinases

>  <Ligand_Instance>  (666) 
nan

>  <PDB_ID>  (666) 
nan

>  <Standardized_SMILES>  (666) 
N[C@H](COc1nc(-c2ccncc2)nc2sc3c(c12)CCCC3)Cc1cccs1

>  <Name>  (666) 
nan

>  <Pocket>  (666) 
nan

>  <ATP_Site>  (666) 
nan

>  <Peripheral>  (666) 
nan

>  <Num_H_Atoms_ProtBoundConf>  (666) 
nan

>  <Num_Resolved_Atoms>  (666) 
nan

>  <Num_Not_Resolved_Atoms>  (666) 
nan

$$$$
CHEMBL3729783
     RDKit          3D

  0  0  0  0  0  0  0  0  0  0999 V3000
M  V30 BEGIN CTAB
M  V30 COUNTS 58 61 0 0 0
M  V30 BEGIN ATOM
M  V30 1 C 5.243029 -1.315787 4.607816 0
M  V30 2 C 4.774906 -2.227713 3.493595 0
M  V30 3 C 3.800705 -3.248944 4.026347 0
M  V30 4 N 4.163827 -1.381173 2.481110 0
M  V30 5 C 4.638138 -1.198761 1.149915 0
M  V30 6 O 5.640936 -1.738836 0.677366 0
M  V30 7 C 3.820298 -0.286709 0.348231 0
M  V30 8 C 4.487733 0.775466 -0.260186 0
M  V30 9 S 3.124848 1.705535 -1.192309 0
M  V30 10 C 1.894469 0.613669 -0.678350 0
M  V30 11 C 0.513124 0.603876 -0.955919 0
M  V30 12 N 0.034317 1.630938 -1.806304 0
M  V30 13 C -1.368630 1.693464 -2.131112 0
M  V30 14 C -2.208584 2.025087 -0.924522 0 CFG=1
M  V30 15 N -1.780108 3.314372 -0.422837 0
M  V30 16 C -3.685209 2.056836 -1.265976 0
M  V30 17 C -4.147656 0.743591 -1.758933 0
M  V30 18 C -4.582340 -0.095465 -0.739867 0
M  V30 19 C -5.059617 -1.366317 -0.924633 0
M  V30 20 C -5.135562 -1.904795 -2.196912 0
M  V30 21 C -4.700311 -1.068775 -3.231585 0
M  V30 22 C -4.227207 0.200910 -3.018878 0
M  V30 23 N -0.296506 -0.360541 -0.445256 0
M  V30 24 C 0.350096 -1.282776 0.334126 0
M  V30 25 C -0.439614 -2.384824 0.936876 0
M  V30 26 C -1.773315 -2.453720 0.696894 0
M  V30 27 C -2.541804 -3.466489 1.238513 0
M  V30 28 N -1.975348 -4.416283 2.024806 0
M  V30 29 C -0.642093 -4.368987 2.279883 0
M  V30 30 C 0.096089 -3.365766 1.738378 0
M  V30 31 N 1.659396 -1.286560 0.606451 0
M  V30 32 C 2.482255 -0.317990 0.095917 0
M  V30 33 H 4.408650 -0.689952 4.967216 0
M  V30 34 H 5.642443 -1.921363 5.458857 0
M  V30 35 H 6.003349 -0.627744 4.205284 0
M  V30 36 H 5.654721 -2.714728 3.071578 0
M  V30 37 H 3.954606 -4.183804 3.468989 0
M  V30 38 H 2.759576 -2.908689 3.841141 0
M  V30 39 H 4.036043 -3.396609 5.104936 0
M  V30 40 H 3.327827 -0.948527 2.933447 0
M  V30 41 H 5.641038 1.008828 -0.186524 0
M  V30 42 H 0.662696 2.355418 -2.211402 0
M  V30 43 H -1.683797 0.735123 -2.604671 0
M  V30 44 H -1.545945 2.486594 -2.879400 0
M  V30 45 H -2.065453 1.262471 -0.139688 0
M  V30 46 H -1.719350 3.289345 0.605688 0
M  V30 47 H -2.358931 4.111345 -0.759556 0
M  V30 48 H -4.299705 2.382000 -0.415782 0
M  V30 49 H -3.817243 2.844904 -2.068611 0
M  V30 50 H -4.578567 0.192611 0.307484 0
M  V30 51 H -5.395257 -2.008524 -0.126002 0
M  V30 52 H -5.496373 -2.890973 -2.428108 0
M  V30 53 H -4.723603 -1.413521 -4.261506 0
M  V30 54 H -3.875420 0.905455 -3.773667 0
M  V30 55 H -2.280407 -1.719868 0.073967 0
M  V30 56 H -3.600660 -3.540760 1.061630 0
M  V30 57 H -0.237295 -5.152482 2.918755 0
M  V30 58 H 1.171404 -3.320938 1.940565 0
M  V30 END ATOM
M  V30 BEGIN BOND
M  V30 1 1 1 2
M  V30 2 1 2 3
M  V30 3 1 2 4
M  V30 4 1 4 5
M  V30 5 2 5 6
M  V30 6 1 5 7
M  V30 7 2 7 8
M  V30 8 1 8 9
M  V30 9 1 9 10
M  V30 10 2 10 11
M  V30 11 1 11 12
M  V30 12 1 12 13
M  V30 13 1 13 14
M  V30 14 1 14 15
M  V30 15 1 14 16
M  V30 16 1 16 17
M  V30 17 2 17 18
M  V30 18 1 18 19
M  V30 19 2 19 20
M  V30 20 1 20 21
M  V30 21 2 21 22
M  V30 22 1 11 23
M  V30 23 2 23 24
M  V30 24 1 24 25
M  V30 25 2 25 26
M  V30 26 1 26 27
M  V30 27 2 27 28
M  V30 28 1 28 29
M  V30 29 2 29 30
M  V30 30 1 24 31
M  V30 31 2 31 32
M  V30 32 1 32 7
M  V30 33 1 32 10
M  V30 34 1 22 17
M  V30 35 1 30 25
M  V30 36 1 1 33
M  V30 37 1 1 34
M  V30 38 1 1 35
M  V30 39 1 2 36
M  V30 40 1 3 37
M  V30 41 1 3 38
M  V30 42 1 3 39
M  V30 43 1 4 40
M  V30 44 1 8 41
M  V30 45 1 12 42
M  V30 46 1 13 43
M  V30 47 1 13 44
M  V30 48 1 14 45 CFG=1
M  V30 49 1 15 46
M  V30 50 1 15 47
M  V30 51 1 16 48
M  V30 52 1 16 49
M  V30 53 1 18 50
M  V30 54 1 19 51
M  V30 55 1 20 52
M  V30 56 1 21 53
M  V30 57 1 22 54
M  V30 58 1 26 55
M  V30 59 1 27 56
M  V30 60 1 29 57
M  V30 61 1 30 58
M  V30 END BOND
M  V30 END CTAB
M  END
>  <Dataset>  (667) 
ChEMBL_Kinases

>  <Ligand_Instance>  (667) 
nan

>  <PDB_ID>  (667) 
nan

>  <Standardized_SMILES>  (667) 
CC(C)NC(=O)c1csc2c(NC[C@@H](N)Cc3ccccc3)nc(-c3ccncc3)nc12

>  <Name>  (667) 
nan

>  <Pocket>  (667) 
nan

>  <ATP_Site>  (667) 
nan

>  <Peripheral>  (667) 
nan

>  <Num_H_Atoms_ProtBoundConf>  (667) 
nan

>  <Num_Resolved_Atoms>  (667) 
nan

>  <Num_Not_Resolved_Atoms>  (667) 
nan

$$$$
CHEMBL3729774
     RDKit          3D

  0  0  0  0  0  0  0  0  0  0999 V3000
M  V30 BEGIN CTAB
M  V30 COUNTS 56 60 0 0 0
M  V30 BEGIN ATOM
M  V30 1 N 3.295239 -2.434649 0.608576 0
M  V30 2 C 2.044306 -2.992603 0.118914 0 CFG=2
M  V30 3 C 1.300615 -1.985674 -0.729394 0
M  V30 4 N 0.925433 -0.766990 -0.157896 0
M  V30 5 C 0.581017 0.496773 0.448126 0
M  V30 6 N 1.437558 1.183409 1.218587 0
M  V30 7 C 1.329175 2.279737 1.897721 0
M  V30 8 C 2.419527 2.838464 2.671588 0
M  V30 9 C 3.627745 2.177776 2.688366 0
M  V30 10 C 4.688499 2.678729 3.413304 0
M  V30 11 N 4.524294 3.825141 4.105202 0
M  V30 12 C 3.347898 4.461357 4.084209 0
M  V30 13 C 2.256308 4.005380 3.377327 0
M  V30 14 N 0.112845 2.779729 1.771726 0
M  V30 15 C -0.823978 2.196855 1.037637 0
M  V30 16 S -2.481082 2.780219 0.785508 0
M  V30 17 C -2.951533 1.411821 -0.300683 0
M  V30 18 C -1.769404 0.617986 -0.370769 0
M  V30 19 C -0.683986 1.037383 0.327386 0
M  V30 20 C -2.128679 -0.486374 -1.288154 0
M  V30 21 C -2.642910 0.163013 -2.577470 0
M  V30 22 C -4.060675 0.661340 -2.386212 0
M  V30 23 C -4.268584 1.155690 -0.967688 0
M  V30 24 C 1.156617 -3.452087 1.235623 0
M  V30 25 C -0.093794 -4.034368 0.712304 0
M  V30 26 C 0.014534 -5.387702 0.427589 0
M  V30 27 C -1.022687 -6.157461 -0.057441 0
M  V30 28 C -2.252283 -5.577478 -0.283221 0
M  V30 29 C -2.358370 -4.233678 -0.000031 0
M  V30 30 O -3.588070 -3.631846 -0.220045 0
M  V30 31 C -1.322520 -3.464179 0.484347 0
M  V30 32 H 3.955079 -3.189579 0.900381 0
M  V30 33 H 3.064838 -1.890097 1.469647 0
M  V30 34 H 2.294621 -3.858335 -0.515036 0
M  V30 35 H 0.330251 -2.511073 -1.058635 0
M  V30 36 H 1.810529 -1.855240 -1.707899 0
M  V30 37 H 1.964907 -0.806384 0.080103 0
M  V30 38 H 3.723040 1.246285 2.111938 0
M  V30 39 H 5.625374 2.118238 3.394652 0
M  V30 40 H 3.215118 5.393325 4.646997 0
M  V30 41 H 1.282775 4.473211 3.321369 0
M  V30 42 H -1.289967 -1.102321 -1.575695 0
M  V30 43 H -2.966449 -1.050009 -0.823184 0
M  V30 44 H -2.542808 -0.594874 -3.369696 0
M  V30 45 H -1.967530 1.013509 -2.791715 0
M  V30 46 H -4.252387 1.508169 -3.062809 0
M  V30 47 H -4.770499 -0.140651 -2.575275 0
M  V30 48 H -4.769043 0.414034 -0.323633 0
M  V30 49 H -4.829877 2.088205 -0.978695 0
M  V30 50 H 1.748103 -4.204522 1.819425 0
M  V30 51 H 0.887031 -2.588022 1.900770 0
M  V30 52 H 0.921791 -5.971443 0.557753 0
M  V30 53 H -0.947896 -7.212334 -0.282249 0
M  V30 54 H -3.100073 -6.130733 -0.661904 0
M  V30 55 H -4.016750 -3.689428 -1.150225 0
M  V30 56 H -1.359731 -2.411511 0.721422 0
M  V30 END ATOM
M  V30 BEGIN BOND
M  V30 1 1 1 2
M  V30 2 1 2 3
M  V30 3 1 3 4
M  V30 4 1 4 5
M  V30 5 2 5 6
M  V30 6 1 6 7
M  V30 7 1 7 8
M  V30 8 2 8 9
M  V30 9 1 9 10
M  V30 10 2 10 11
M  V30 11 1 11 12
M  V30 12 2 12 13
M  V30 13 2 7 14
M  V30 14 1 14 15
M  V30 15 1 15 16
M  V30 16 1 16 17
M  V30 17 2 17 18
M  V30 18 1 18 19
M  V30 19 1 18 20
M  V30 20 1 20 21
M  V30 21 1 21 22
M  V30 22 1 22 23
M  V30 23 1 2 24
M  V30 24 1 24 25
M  V30 25 2 25 26
M  V30 26 1 26 27
M  V30 27 2 27 28
M  V30 28 1 28 29
M  V30 29 1 29 30
M  V30 30 2 29 31
M  V30 31 1 19 5
M  V30 32 1 31 25
M  V30 33 1 13 8
M  V30 34 2 19 15
M  V30 35 1 23 17
M  V30 36 1 1 32
M  V30 37 1 1 33
M  V30 38 1 2 34 CFG=3
M  V30 39 1 3 35
M  V30 40 1 3 36
M  V30 41 1 4 37
M  V30 42 1 9 38
M  V30 43 1 10 39
M  V30 44 1 12 40
M  V30 45 1 13 41
M  V30 46 1 20 42
M  V30 47 1 20 43
M  V30 48 1 21 44
M  V30 49 1 21 45
M  V30 50 1 22 46
M  V30 51 1 22 47
M  V30 52 1 23 48
M  V30 53 1 23 49
M  V30 54 1 24 50
M  V30 55 1 24 51
M  V30 56 1 26 52
M  V30 57 1 27 53
M  V30 58 1 28 54
M  V30 59 1 30 55
M  V30 60 1 31 56
M  V30 END BOND
M  V30 END CTAB
M  END
>  <Dataset>  (668) 
ChEMBL_Kinases

>  <Ligand_Instance>  (668) 
nan

>  <PDB_ID>  (668) 
nan

>  <Standardized_SMILES>  (668) 
N[C@H](CNc1nc(-c2ccncc2)nc2sc3c(c12)CCCC3)Cc1cccc(O)c1

>  <Name>  (668) 
nan

>  <Pocket>  (668) 
nan

>  <ATP_Site>  (668) 
nan

>  <Peripheral>  (668) 
nan

>  <Num_H_Atoms_ProtBoundConf>  (668) 
nan

>  <Num_Resolved_Atoms>  (668) 
nan

>  <Num_Not_Resolved_Atoms>  (668) 
nan

$$$$
CHEMBL3729747
     RDKit          3D

  0  0  0  0  0  0  0  0  0  0999 V3000
M  V30 BEGIN CTAB
M  V30 COUNTS 72 76 0 0 0
M  V30 BEGIN ATOM
M  V30 1 C 2.722936 7.296375 -0.820828 0
M  V30 2 N 2.535039 6.249705 0.159984 0
M  V30 3 C 1.712763 5.088622 0.163114 0
M  V30 4 C 1.738429 4.250872 1.259027 0
M  V30 5 C 0.917392 3.143644 1.196593 0
M  V30 6 C 0.090396 2.848393 0.105409 0
M  V30 7 C -0.687332 1.599876 0.289016 0
M  V30 8 C -1.914389 1.672743 0.858876 0
M  V30 9 C -2.747201 2.758356 1.383866 0
M  V30 10 C -4.069576 2.238613 1.916579 0
M  V30 11 C -2.988709 3.752846 0.270147 0
M  V30 12 C -1.993292 3.448081 2.480051 0
M  V30 13 S -2.514325 -0.059153 0.900109 0
M  V30 14 C -1.018542 -0.717028 0.128939 0
M  V30 15 C -0.708753 -2.039310 -0.190328 0
M  V30 16 N -1.669113 -3.030661 0.114236 0
M  V30 17 C -1.343684 -4.400834 -0.217289 0
M  V30 18 C -0.126483 -4.925662 0.494597 0 CFG=1
M  V30 19 N -0.315007 -4.881429 1.942316 0
M  V30 20 C 0.030182 -6.386659 0.128607 0
M  V30 21 C -1.142704 -7.205726 0.523199 0
M  V30 22 C -2.266884 -7.475552 -0.239343 0
M  V30 23 C -3.287997 -8.259722 0.262119 0
M  V30 24 C -3.235647 -8.806097 1.535774 0
M  V30 25 C -2.110427 -8.535277 2.297238 0
M  V30 26 C -1.082268 -7.752036 1.806323 0
M  V30 27 N 0.458414 -2.307880 -0.759616 0
M  V30 28 C 1.262304 -1.224827 -0.981350 0
M  V30 29 C 2.594291 -1.378282 -1.611090 0
M  V30 30 C 2.970960 -2.655022 -1.956258 0
M  V30 31 C 4.183018 -2.924083 -2.546787 0
M  V30 32 N 5.007836 -1.881948 -2.782562 0
M  V30 33 C 4.688471 -0.606310 -2.463752 0
M  V30 34 C 3.466337 -0.358667 -1.871590 0
M  V30 35 N 0.951936 0.043053 -0.669067 0
M  V30 36 C -0.218189 0.371582 -0.090229 0
M  V30 37 C 0.091550 3.709724 -0.972757 0
M  V30 38 C 0.907574 4.821048 -0.924420 0
M  V30 39 H 2.361031 8.282032 -0.446507 0
M  V30 40 H 2.210322 7.041448 -1.773635 0
M  V30 41 H 3.805349 7.438812 -1.062829 0
M  V30 42 H 3.151523 6.469951 0.972574 0
M  V30 43 H 2.368551 4.473627 2.092586 0
M  V30 44 H 0.969236 2.504156 2.089983 0
M  V30 45 H -4.017136 2.053608 2.992369 0
M  V30 46 H -4.803844 3.056905 1.760323 0
M  V30 47 H -4.443990 1.381934 1.340481 0
M  V30 48 H -4.041221 4.103158 0.245106 0
M  V30 49 H -2.763737 3.304551 -0.721685 0
M  V30 50 H -2.287107 4.596311 0.408897 0
M  V30 51 H -1.289819 2.818879 3.035234 0
M  V30 52 H -2.752921 3.815005 3.226027 0
M  V30 53 H -1.521365 4.394910 2.106452 0
M  V30 54 H -2.581033 -2.792384 0.560889 0
M  V30 55 H -2.194657 -5.041032 0.108641 0
M  V30 56 H -1.189169 -4.528391 -1.318397 0
M  V30 57 H 0.818322 -4.433297 0.214472 0
M  V30 58 H 0.526064 -4.452283 2.399199 0
M  V30 59 H -1.155316 -4.361445 2.238233 0
M  V30 60 H 0.106537 -6.497594 -0.991767 0
M  V30 61 H 0.951606 -6.822355 0.580842 0
M  V30 62 H -2.268264 -7.029174 -1.230691 0
M  V30 63 H -4.149542 -8.452073 -0.354220 0
M  V30 64 H -4.062223 -9.416268 1.887125 0
M  V30 65 H -2.095319 -8.975511 3.290721 0
M  V30 66 H -0.250300 -7.608450 2.495629 0
M  V30 67 H 2.322917 -3.493300 -1.773645 0
M  V30 68 H 4.453954 -3.942314 -2.808558 0
M  V30 69 H 5.373313 0.202413 -2.667340 0
M  V30 70 H 3.145844 0.646556 -1.588948 0
M  V30 71 H -0.573664 3.400824 -1.760111 0
M  V30 72 H 0.869023 5.461292 -1.795669 0
M  V30 END ATOM
M  V30 BEGIN BOND
M  V30 1 1 1 2
M  V30 2 1 2 3
M  V30 3 2 3 4
M  V30 4 1 4 5
M  V30 5 2 5 6
M  V30 6 1 6 7
M  V30 7 2 7 8
M  V30 8 1 8 9
M  V30 9 1 9 10
M  V30 10 1 9 11
M  V30 11 1 9 12
M  V30 12 1 8 13
M  V30 13 1 13 14
M  V30 14 2 14 15
M  V30 15 1 15 16
M  V30 16 1 16 17
M  V30 17 1 17 18
M  V30 18 1 18 19
M  V30 19 1 18 20
M  V30 20 1 20 21
M  V30 21 2 21 22
M  V30 22 1 22 23
M  V30 23 2 23 24
M  V30 24 1 24 25
M  V30 25 2 25 26
M  V30 26 1 15 27
M  V30 27 2 27 28
M  V30 28 1 28 29
M  V30 29 2 29 30
M  V30 30 1 30 31
M  V30 31 2 31 32
M  V30 32 1 32 33
M  V30 33 2 33 34
M  V30 34 1 28 35
M  V30 35 2 35 36
M  V30 36 1 6 37
M  V30 37 2 37 38
M  V30 38 1 38 3
M  V30 39 1 36 7
M  V30 40 1 36 14
M  V30 41 1 26 21
M  V30 42 1 34 29
M  V30 43 1 1 39
M  V30 44 1 1 40
M  V30 45 1 1 41
M  V30 46 1 2 42
M  V30 47 1 4 43
M  V30 48 1 5 44
M  V30 49 1 10 45
M  V30 50 1 10 46
M  V30 51 1 10 47
M  V30 52 1 11 48
M  V30 53 1 11 49
M  V30 54 1 11 50
M  V30 55 1 12 51
M  V30 56 1 12 52
M  V30 57 1 12 53
M  V30 58 1 16 54
M  V30 59 1 17 55
M  V30 60 1 17 56
M  V30 61 1 18 57 CFG=1
M  V30 62 1 19 58
M  V30 63 1 19 59
M  V30 64 1 20 60
M  V30 65 1 20 61
M  V30 66 1 22 62
M  V30 67 1 23 63
M  V30 68 1 24 64
M  V30 69 1 25 65
M  V30 70 1 26 66
M  V30 71 1 30 67
M  V30 72 1 31 68
M  V30 73 1 33 69
M  V30 74 1 34 70
M  V30 75 1 37 71
M  V30 76 1 38 72
M  V30 END BOND
M  V30 END CTAB
M  END
>  <Dataset>  (669) 
ChEMBL_Kinases

>  <Ligand_Instance>  (669) 
nan

>  <PDB_ID>  (669) 
nan

>  <Standardized_SMILES>  (669) 
CNc1ccc(-c2c(C(C)(C)C)sc3c(NC[C@@H](N)Cc4ccccc4)nc(-c4ccncc4)nc23)cc1

>  <Name>  (669) 
nan

>  <Pocket>  (669) 
nan

>  <ATP_Site>  (669) 
nan

>  <Peripheral>  (669) 
nan

>  <Num_H_Atoms_ProtBoundConf>  (669) 
nan

>  <Num_Resolved_Atoms>  (669) 
nan

>  <Num_Not_Resolved_Atoms>  (669) 
nan

$$$$
CHEMBL3729746
     RDKit          3D

  0  0  0  0  0  0  0  0  0  0999 V3000
M  V30 BEGIN CTAB
M  V30 COUNTS 57 60 0 0 0
M  V30 BEGIN ATOM
M  V30 1 C 2.569715 -2.944536 5.689533 0
M  V30 2 C 3.308713 -3.818489 4.724706 0 CFG=2
M  V30 3 O 3.979390 -4.788610 5.441219 0
M  V30 4 C 4.244709 -3.025088 3.830559 0
M  V30 5 C 3.516053 -2.036205 3.039114 0
M  V30 6 C 2.922438 -1.205052 2.384366 0
M  V30 7 C 2.229057 -0.235844 1.590763 0
M  V30 8 C 2.346182 1.118340 1.975197 0
M  V30 9 S 1.312216 2.058881 0.702509 0
M  V30 10 C 0.854388 0.636536 -0.162771 0
M  V30 11 C 0.045329 0.421915 -1.328114 0
M  V30 12 N -0.459434 1.658934 -1.794929 0
M  V30 13 C -0.961409 2.888235 -2.259350 0
M  V30 14 C -2.427817 3.066980 -2.430702 0 CFG=1
M  V30 15 N -3.004792 2.124400 -3.374491 0
M  V30 16 C -3.210879 3.173916 -1.168811 0
M  V30 17 C -3.128243 2.006425 -0.278748 0
M  V30 18 C -2.276791 1.729996 0.770474 0
M  V30 19 C -2.403347 0.555422 1.443934 0
M  V30 20 C -3.330588 -0.402291 1.160620 0
M  V30 21 C -4.203418 -0.144849 0.103078 0
M  V30 22 C -4.098648 1.048255 -0.605259 0
M  V30 23 N -0.136700 -0.823940 -1.798829 0
M  V30 24 C 0.469744 -1.806370 -1.123565 0
M  V30 25 C 0.271016 -3.155931 -1.644253 0
M  V30 26 C -0.475054 -3.391014 -2.772102 0
M  V30 27 C -0.572826 -4.714229 -3.149610 0
M  V30 28 N -0.017263 -5.787948 -2.531637 0
M  V30 29 C 0.711817 -5.490544 -1.416554 0
M  V30 30 C 0.863741 -4.194126 -0.965058 0
M  V30 31 N 1.206616 -1.567760 -0.053919 0
M  V30 32 C 1.451892 -0.375787 0.494939 0
M  V30 33 H 2.975395 -3.077978 6.727565 0
M  V30 34 H 2.524096 -1.876479 5.410857 0
M  V30 35 H 1.520890 -3.298131 5.747840 0
M  V30 36 H 2.582238 -4.340667 4.067181 0
M  V30 37 H 3.309273 -5.236826 6.019675 0
M  V30 38 H 4.946905 -2.490439 4.520190 0
M  V30 39 H 4.765231 -3.690107 3.139667 0
M  V30 40 H 2.940565 1.573084 2.872017 0
M  V30 41 H -0.979951 1.292626 -2.655321 0
M  V30 42 H -0.379081 3.345905 -3.126835 0
M  V30 43 H -0.687964 3.649332 -1.428739 0
M  V30 44 H -2.548707 4.071654 -2.945724 0
M  V30 45 H -2.448702 2.208461 -4.260057 0
M  V30 46 H -3.073585 1.158006 -3.031649 0
M  V30 47 H -2.815994 4.069859 -0.595701 0
M  V30 48 H -4.284535 3.454502 -1.357234 0
M  V30 49 H -1.598802 2.560350 0.899069 0
M  V30 50 H -1.674827 0.439676 2.259019 0
M  V30 51 H -3.389024 -1.313346 1.723897 0
M  V30 52 H -4.941666 -0.902075 -0.124845 0
M  V30 53 H -4.840527 1.124306 -1.405545 0
M  V30 54 H -0.943388 -2.607286 -3.316760 0
M  V30 55 H -1.146110 -4.966359 -4.030813 0
M  V30 56 H 1.207928 -6.254520 -0.829623 0
M  V30 57 H 1.446551 -3.986923 -0.079349 0
M  V30 END ATOM
M  V30 BEGIN BOND
M  V30 1 1 1 2
M  V30 2 1 2 3
M  V30 3 1 2 4
M  V30 4 1 4 5
M  V30 5 3 5 6
M  V30 6 1 6 7
M  V30 7 2 7 8
M  V30 8 1 8 9
M  V30 9 1 9 10
M  V30 10 2 10 11
M  V30 11 1 11 12
M  V30 12 1 12 13
M  V30 13 1 13 14
M  V30 14 1 14 15
M  V30 15 1 14 16
M  V30 16 1 16 17
M  V30 17 2 17 18
M  V30 18 1 18 19
M  V30 19 2 19 20
M  V30 20 1 20 21
M  V30 21 2 21 22
M  V30 22 1 11 23
M  V30 23 2 23 24
M  V30 24 1 24 25
M  V30 25 2 25 26
M  V30 26 1 26 27
M  V30 27 2 27 28
M  V30 28 1 28 29
M  V30 29 2 29 30
M  V30 30 1 24 31
M  V30 31 2 31 32
M  V30 32 1 32 7
M  V30 33 1 32 10
M  V30 34 1 22 17
M  V30 35 1 30 25
M  V30 36 1 1 33
M  V30 37 1 1 34
M  V30 38 1 1 35
M  V30 39 1 2 36 CFG=3
M  V30 40 1 3 37
M  V30 41 1 4 38
M  V30 42 1 4 39
M  V30 43 1 8 40
M  V30 44 1 12 41
M  V30 45 1 13 42
M  V30 46 1 13 43
M  V30 47 1 14 44 CFG=3
M  V30 48 1 15 45
M  V30 49 1 15 46
M  V30 50 1 16 47
M  V30 51 1 16 48
M  V30 52 1 18 49
M  V30 53 1 19 50
M  V30 54 1 20 51
M  V30 55 1 21 52
M  V30 56 1 22 53
M  V30 57 1 26 54
M  V30 58 1 27 55
M  V30 59 1 29 56
M  V30 60 1 30 57
M  V30 END BOND
M  V30 END CTAB
M  END
>  <Dataset>  (670) 
ChEMBL_Kinases

>  <Ligand_Instance>  (670) 
nan

>  <PDB_ID>  (670) 
nan

>  <Standardized_SMILES>  (670) 
C[C@H](O)CC#Cc1csc2c(NC[C@@H](N)Cc3ccccc3)nc(-c3ccncc3)nc12

>  <Name>  (670) 
nan

>  <Pocket>  (670) 
nan

>  <ATP_Site>  (670) 
nan

>  <Peripheral>  (670) 
nan

>  <Num_H_Atoms_ProtBoundConf>  (670) 
nan

>  <Num_Resolved_Atoms>  (670) 
nan

>  <Num_Not_Resolved_Atoms>  (670) 
nan

$$$$
CHEMBL3729847
     RDKit          3D

  0  0  0  0  0  0  0  0  0  0999 V3000
M  V30 BEGIN CTAB
M  V30 COUNTS 46 49 0 0 0
M  V30 BEGIN ATOM
M  V30 1 C 1.411679 -3.545260 2.869812 0
M  V30 2 N 0.260133 -3.180652 2.066675 0
M  V30 3 C 0.314391 -2.159998 1.191979 0
M  V30 4 N 1.511939 -1.394458 1.020564 0
M  V30 5 C 2.446742 -1.859613 0.014814 0
M  V30 6 C 3.533763 -0.810171 -0.104794 0
M  V30 7 O 2.883313 0.421997 -0.207927 0
M  V30 8 C 2.600595 0.818468 1.118424 0 CFG=1
M  V30 9 C 2.049121 2.184207 1.102055 0
M  V30 10 C 1.206672 2.662877 0.113919 0
M  V30 11 F 0.866117 1.848205 -0.889450 0
M  V30 12 C 0.705928 3.954636 0.129970 0
M  V30 13 C 1.089855 4.769913 1.199365 0
M  V30 14 C 1.920786 4.343816 2.201569 0
M  V30 15 C 2.390476 3.056377 2.141108 0
M  V30 16 Cl 3.462329 2.500363 3.430064 0
M  V30 17 C 1.766864 -0.195930 1.833649 0
M  V30 18 N -0.755346 -1.798606 0.426002 0
M  V30 19 C -1.944587 -2.438173 0.490066 0
M  V30 20 C -2.986440 -1.947566 -0.377892 0
M  V30 21 C -2.709411 -0.879675 -1.201028 0
M  V30 22 C -3.671367 -0.355683 -2.064822 0
M  V30 23 N -4.918040 -0.885497 -2.121087 0
M  V30 24 C -5.245926 -1.937427 -1.333291 0
M  V30 25 C -4.270022 -2.417684 -0.502119 0
M  V30 26 F -4.643420 -3.466174 0.263612 0
M  V30 27 C -1.971448 -3.467111 1.383525 0
M  V30 28 C -0.903484 -3.847506 2.165468 0
M  V30 29 O -1.009476 -4.801506 2.959879 0
M  V30 30 H 1.134932 -4.399465 3.521384 0
M  V30 31 H 1.651981 -2.715351 3.590615 0
M  V30 32 H 2.286239 -3.863733 2.285246 0
M  V30 33 H 2.834276 -2.864243 0.173501 0
M  V30 34 H 1.875403 -1.806792 -0.958041 0
M  V30 35 H 4.257052 -0.841908 0.719957 0
M  V30 36 H 4.074815 -1.061738 -1.053248 0
M  V30 37 H 3.611372 0.871859 1.594802 0
M  V30 38 H 0.046337 4.349701 -0.631552 0
M  V30 39 H 0.696568 5.768484 1.202398 0
M  V30 40 H 2.215531 4.975362 3.025928 0
M  V30 41 H 2.295193 -0.566577 2.737052 0
M  V30 42 H 0.793173 0.204612 2.185989 0
M  V30 43 H -1.741561 -0.382955 -1.232457 0
M  V30 44 H -3.432125 0.478644 -2.698374 0
M  V30 45 H -6.230659 -2.350389 -1.382619 0
M  V30 46 H -2.871962 -4.014147 1.487214 0
M  V30 END ATOM
M  V30 BEGIN BOND
M  V30 1 1 1 2
M  V30 2 1 2 3
M  V30 3 1 3 4
M  V30 4 1 4 5
M  V30 5 1 5 6
M  V30 6 1 6 7
M  V30 7 1 7 8
M  V30 8 1 8 9
M  V30 9 2 9 10
M  V30 10 1 10 11
M  V30 11 1 10 12
M  V30 12 2 12 13
M  V30 13 1 13 14
M  V30 14 2 14 15
M  V30 15 1 15 16
M  V30 16 1 8 17
M  V30 17 2 3 18
M  V30 18 1 18 19
M  V30 19 1 19 20
M  V30 20 2 20 21
M  V30 21 1 21 22
M  V30 22 2 22 23
M  V30 23 1 23 24
M  V30 24 2 24 25
M  V30 25 1 25 26
M  V30 26 2 19 27
M  V30 27 1 27 28
M  V30 28 2 28 29
M  V30 29 1 28 2
M  V30 30 1 17 4
M  V30 31 1 25 20
M  V30 32 1 15 9
M  V30 33 1 1 30
M  V30 34 1 1 31
M  V30 35 1 1 32
M  V30 36 1 5 33
M  V30 37 1 5 34
M  V30 38 1 6 35
M  V30 39 1 6 36
M  V30 40 1 8 37 CFG=1
M  V30 41 1 12 38
M  V30 42 1 13 39
M  V30 43 1 14 40
M  V30 44 1 17 41
M  V30 45 1 17 42
M  V30 46 1 21 43
M  V30 47 1 22 44
M  V30 48 1 24 45
M  V30 49 1 27 46
M  V30 END BOND
M  V30 END CTAB
M  END
>  <Dataset>  (671) 
ChEMBL_Kinases

>  <Ligand_Instance>  (671) 
nan

>  <PDB_ID>  (671) 
nan

>  <Standardized_SMILES>  (671) 
Cn1c(N2CCO[C@@H](c3c(F)cccc3Cl)C2)nc(-c2ccncc2F)cc1=O

>  <Name>  (671) 
nan

>  <Pocket>  (671) 
nan

>  <ATP_Site>  (671) 
nan

>  <Peripheral>  (671) 
nan

>  <Num_H_Atoms_ProtBoundConf>  (671) 
nan

>  <Num_Resolved_Atoms>  (671) 
nan

>  <Num_Not_Resolved_Atoms>  (671) 
nan

$$$$
CHEMBL3730147
     RDKit          3D

  0  0  0  0  0  0  0  0  0  0999 V3000
M  V30 BEGIN CTAB
M  V30 COUNTS 48 52 0 0 0
M  V30 BEGIN ATOM
M  V30 1 N 4.013122 -2.381862 4.087540 0
M  V30 2 C 2.814018 -2.582477 3.322858 0
M  V30 3 C 2.569103 -1.352699 2.504908 0
M  V30 4 N 1.389827 -1.386063 1.667591 0
M  V30 5 C 1.043241 -0.278218 0.839227 0
M  V30 6 N 1.889107 0.757575 0.906546 0
M  V30 7 C 1.808462 1.905278 0.244761 0
M  V30 8 C 2.791915 2.959548 0.402004 0
M  V30 9 C 3.844762 2.756515 1.269835 0
M  V30 10 C 4.775100 3.773530 1.408191 0
M  V30 11 N 4.681916 4.933424 0.731497 0
M  V30 12 C 3.638450 5.107433 -0.114329 0
M  V30 13 C 2.674185 4.139989 -0.303245 0
M  V30 14 N 0.751235 2.007630 -0.573935 0
M  V30 15 C -0.114917 0.947391 -0.643002 0
M  V30 16 S -1.543245 0.878617 -1.639668 0
M  V30 17 C -2.014113 -0.776298 -1.109610 0
M  V30 18 C -1.047489 -1.109777 -0.235170 0
M  V30 19 C -0.054760 -0.210310 0.009349 0
M  V30 20 C -1.237236 -2.465228 0.343431 0
M  V30 21 C -2.451979 -3.165968 -0.050983 0
M  V30 22 C -3.617509 -2.418604 -0.556600 0
M  V30 23 C -3.234335 -1.437387 -1.646257 0
M  V30 24 O -4.191985 -1.708585 0.476368 0
M  V30 25 C -5.430039 -2.286991 0.736352 0
M  V30 26 C -5.792771 -2.849751 -0.634910 0
M  V30 27 O -4.562096 -3.271326 -1.093174 0
M  V30 28 H 4.536168 -3.255946 4.254129 0
M  V30 29 H 3.853001 -1.819822 4.962795 0
M  V30 30 H 2.945537 -3.461836 2.660564 0
M  V30 31 H 1.916029 -2.725650 3.983141 0
M  V30 32 H 3.488176 -1.134789 1.896216 0
M  V30 33 H 2.532392 -0.503197 3.233907 0
M  V30 34 H 0.980691 -2.315293 1.853853 0
M  V30 35 H 3.918822 1.819500 1.815623 0
M  V30 36 H 5.588687 3.555852 2.110756 0
M  V30 37 H 3.642196 6.066492 -0.615443 0
M  V30 38 H 1.859012 4.324449 -0.989457 0
M  V30 39 H -1.272840 -2.381172 1.470927 0
M  V30 40 H -0.328687 -3.101088 0.137398 0
M  V30 41 H -2.831193 -3.843244 0.771605 0
M  V30 42 H -2.178230 -3.911584 -0.857203 0
M  V30 43 H -4.059065 -0.741906 -1.781865 0
M  V30 44 H -3.035515 -1.983687 -2.588237 0
M  V30 45 H -6.128905 -1.482500 1.011240 0
M  V30 46 H -5.329838 -3.078967 1.505294 0
M  V30 47 H -6.514505 -3.679157 -0.490527 0
M  V30 48 H -6.229878 -1.999053 -1.199567 0
M  V30 END ATOM
M  V30 BEGIN BOND
M  V30 1 1 1 2
M  V30 2 1 2 3
M  V30 3 1 3 4
M  V30 4 1 4 5
M  V30 5 2 5 6
M  V30 6 1 6 7
M  V30 7 1 7 8
M  V30 8 2 8 9
M  V30 9 1 9 10
M  V30 10 2 10 11
M  V30 11 1 11 12
M  V30 12 2 12 13
M  V30 13 2 7 14
M  V30 14 1 14 15
M  V30 15 1 15 16
M  V30 16 1 16 17
M  V30 17 2 17 18
M  V30 18 1 18 19
M  V30 19 1 18 20
M  V30 20 1 20 21
M  V30 21 1 21 22
M  V30 22 1 22 23
M  V30 23 1 22 24
M  V30 24 1 24 25
M  V30 25 1 25 26
M  V30 26 1 26 27
M  V30 27 1 19 5
M  V30 28 1 27 22
M  V30 29 1 13 8
M  V30 30 2 19 15
M  V30 31 1 23 17
M  V30 32 1 1 28
M  V30 33 1 1 29
M  V30 34 1 2 30
M  V30 35 1 2 31
M  V30 36 1 3 32
M  V30 37 1 3 33
M  V30 38 1 4 34
M  V30 39 1 9 35
M  V30 40 1 10 36
M  V30 41 1 12 37
M  V30 42 1 13 38
M  V30 43 1 20 39
M  V30 44 1 20 40
M  V30 45 1 21 41
M  V30 46 1 21 42
M  V30 47 1 23 43
M  V30 48 1 23 44
M  V30 49 1 25 45
M  V30 50 1 25 46
M  V30 51 1 26 47
M  V30 52 1 26 48
M  V30 END BOND
M  V30 END CTAB
M  END
>  <Dataset>  (672) 
ChEMBL_Kinases

>  <Ligand_Instance>  (672) 
nan

>  <PDB_ID>  (672) 
nan

>  <Standardized_SMILES>  (672) 
NCCNc1nc(-c2ccncc2)nc2sc3c(c12)CCC1(C3)OCCO1

>  <Name>  (672) 
nan

>  <Pocket>  (672) 
nan

>  <ATP_Site>  (672) 
nan

>  <Peripheral>  (672) 
nan

>  <Num_H_Atoms_ProtBoundConf>  (672) 
nan

>  <Num_Resolved_Atoms>  (672) 
nan

>  <Num_Not_Resolved_Atoms>  (672) 
nan

$$$$
CHEMBL3730128
     RDKit          3D

  0  0  0  0  0  0  0  0  0  0999 V3000
M  V30 BEGIN CTAB
M  V30 COUNTS 58 62 0 0 0
M  V30 BEGIN ATOM
M  V30 1 C 1.128433 -1.527158 6.127450 0
M  V30 2 C 1.758627 -1.256555 4.787652 0
M  V30 3 C 2.961956 -0.600799 4.611677 0
M  V30 4 C 3.482508 -0.385776 3.359805 0
M  V30 5 C 2.827723 -0.814378 2.226228 0
M  V30 6 C 3.275550 -0.647319 0.842377 0
M  V30 7 C 2.794529 0.622543 0.204180 0 CFG=2
M  V30 8 N 3.298711 1.740882 0.975243 0
M  V30 9 C 1.320813 0.703112 0.052555 0
M  V30 10 N 0.708256 -0.310244 -0.741037 0
M  V30 11 C -0.707288 -0.316093 -0.945776 0
M  V30 12 N -1.381461 0.674727 -0.351498 0
M  V30 13 C -2.678731 0.911104 -0.371705 0
M  V30 14 C -3.280496 2.025514 0.319076 0
M  V30 15 C -2.487225 2.886823 1.032500 0
M  V30 16 C -3.105497 3.941524 1.679338 0
M  V30 17 N -4.448625 4.149237 1.632492 0
M  V30 18 C -5.219305 3.287796 0.922199 0
M  V30 19 C -4.652222 2.227630 0.264250 0
M  V30 20 N -3.374892 0.019900 -1.091899 0
M  V30 21 C -2.738715 -1.003483 -1.714262 0
M  V30 22 S -3.442046 -2.271765 -2.698310 0
M  V30 23 C -1.876833 -3.089086 -3.044639 0
M  V30 24 C -0.903299 -2.308350 -2.361804 0
M  V30 25 C -1.410556 -1.235828 -1.686816 0
M  V30 26 C 0.349313 -3.015681 -2.675682 0
M  V30 27 C 0.172745 -4.451336 -2.120246 0
M  V30 28 C -0.656323 -5.243569 -3.114242 0
M  V30 29 C -1.603547 -4.325107 -3.866249 0
M  V30 30 C 1.623610 -1.469521 2.420070 0
M  V30 31 C 1.083890 -1.695349 3.668688 0
M  V30 32 H 0.813684 -2.581378 6.217607 0
M  V30 33 H 1.877792 -1.304584 6.910493 0
M  V30 34 H 0.256906 -0.813746 6.159548 0
M  V30 35 H 3.469744 -0.267443 5.507534 0
M  V30 36 H 4.415833 0.121961 3.208635 0
M  V30 37 H 3.022433 -1.515955 0.195671 0
M  V30 38 H 4.390094 -0.621398 0.857362 0
M  V30 39 H 3.260241 0.689777 -0.815895 0
M  V30 40 H 2.597295 2.502766 1.069293 0
M  V30 41 H 4.228330 2.050404 0.661094 0
M  V30 42 H 0.791453 0.777101 1.037994 0
M  V30 43 H 1.081589 1.681628 -0.462613 0
M  V30 44 H 1.499629 -0.879426 -1.026197 0
M  V30 45 H -1.411025 2.746524 1.088263 0
M  V30 46 H -2.495429 4.637295 2.251261 0
M  V30 47 H -6.279494 3.464339 0.893986 0
M  V30 48 H -5.306530 1.558683 -0.295302 0
M  V30 49 H 1.264261 -2.628070 -2.259275 0
M  V30 50 H 0.461922 -3.148346 -3.798882 0
M  V30 51 H -0.328531 -4.316840 -1.141295 0
M  V30 52 H 1.153602 -4.918192 -1.936055 0
M  V30 53 H -1.273724 -5.928137 -2.508831 0
M  V30 54 H 0.011596 -5.701815 -3.838475 0
M  V30 55 H -1.193434 -3.943238 -4.806005 0
M  V30 56 H -2.556204 -4.867621 -4.005125 0
M  V30 57 H 1.035190 -1.843826 1.587371 0
M  V30 58 H 0.137781 -2.211709 3.793490 0
M  V30 END ATOM
M  V30 BEGIN BOND
M  V30 1 1 1 2
M  V30 2 2 2 3
M  V30 3 1 3 4
M  V30 4 2 4 5
M  V30 5 1 5 6
M  V30 6 1 6 7
M  V30 7 1 7 8
M  V30 8 1 7 9
M  V30 9 1 9 10
M  V30 10 1 10 11
M  V30 11 2 11 12
M  V30 12 1 12 13
M  V30 13 1 13 14
M  V30 14 2 14 15
M  V30 15 1 15 16
M  V30 16 2 16 17
M  V30 17 1 17 18
M  V30 18 2 18 19
M  V30 19 2 13 20
M  V30 20 1 20 21
M  V30 21 1 21 22
M  V30 22 1 22 23
M  V30 23 2 23 24
M  V30 24 1 24 25
M  V30 25 1 24 26
M  V30 26 1 26 27
M  V30 27 1 27 28
M  V30 28 1 28 29
M  V30 29 1 5 30
M  V30 30 2 30 31
M  V30 31 1 31 2
M  V30 32 1 25 11
M  V30 33 1 19 14
M  V30 34 2 25 21
M  V30 35 1 29 23
M  V30 36 1 1 32
M  V30 37 1 1 33
M  V30 38 1 1 34
M  V30 39 1 3 35
M  V30 40 1 4 36
M  V30 41 1 6 37
M  V30 42 1 6 38
M  V30 43 1 7 39 CFG=3
M  V30 44 1 8 40
M  V30 45 1 8 41
M  V30 46 1 9 42
M  V30 47 1 9 43
M  V30 48 1 10 44
M  V30 49 1 15 45
M  V30 50 1 16 46
M  V30 51 1 18 47
M  V30 52 1 19 48
M  V30 53 1 26 49
M  V30 54 1 26 50
M  V30 55 1 27 51
M  V30 56 1 27 52
M  V30 57 1 28 53
M  V30 58 1 28 54
M  V30 59 1 29 55
M  V30 60 1 29 56
M  V30 61 1 30 57
M  V30 62 1 31 58
M  V30 END BOND
M  V30 END CTAB
M  END
>  <Dataset>  (673) 
ChEMBL_Kinases

>  <Ligand_Instance>  (673) 
nan

>  <PDB_ID>  (673) 
nan

>  <Standardized_SMILES>  (673) 
Cc1ccc(C[C@H](N)CNc2nc(-c3ccncc3)nc3sc4c(c23)CCCC4)cc1

>  <Name>  (673) 
nan

>  <Pocket>  (673) 
nan

>  <ATP_Site>  (673) 
nan

>  <Peripheral>  (673) 
nan

>  <Num_H_Atoms_ProtBoundConf>  (673) 
nan

>  <Num_Resolved_Atoms>  (673) 
nan

>  <Num_Not_Resolved_Atoms>  (673) 
nan

$$$$
CHEMBL3730120
     RDKit          3D

  0  0  0  0  0  0  0  0  0  0999 V3000
M  V30 BEGIN CTAB
M  V30 COUNTS 48 52 0 0 0
M  V30 BEGIN ATOM
M  V30 1 F 1.775937 -4.836855 -0.784947 0
M  V30 2 C 1.379888 -4.193477 -1.912808 0
M  V30 3 C 1.085268 -4.929084 -3.031079 0
M  V30 4 C 0.684564 -4.265907 -4.169550 0
M  V30 5 C 0.583573 -2.896470 -4.179689 0
M  V30 6 C 0.869678 -2.109025 -3.076804 0
M  V30 7 N 0.762487 -0.691403 -3.101013 0
M  V30 8 C 1.012557 0.149755 -1.984793 0
M  V30 9 C 2.040022 1.067400 -2.182008 0
M  V30 10 S 2.103387 2.010076 -0.530778 0
M  V30 11 C 0.799830 1.089419 0.176502 0
M  V30 12 C 0.222975 1.180160 1.422777 0
M  V30 13 N 0.732280 2.162634 2.312071 0
M  V30 14 C 0.141582 2.267773 3.616830 0 CFG=2
M  V30 15 C 0.769632 3.361174 4.451572 0
M  V30 16 C 1.785639 2.645474 5.315098 0
M  V30 17 N 1.912550 1.310856 4.745147 0
M  V30 18 C 0.517218 1.027809 4.437064 0
M  V30 19 N -0.800181 0.353475 1.780476 0
M  V30 20 C -1.166611 -0.532185 0.802475 0
M  V30 21 C -2.273465 -1.450719 1.143368 0
M  V30 22 C -2.837542 -1.345999 2.389357 0
M  V30 23 C -3.874112 -2.202921 2.715212 0
M  V30 24 N -4.298076 -3.109285 1.808216 0
M  V30 25 C -3.743599 -3.209174 0.589150 0
M  V30 26 C -2.713796 -2.379253 0.225357 0
M  V30 27 F -2.116251 -2.441166 -1.002529 0
M  V30 28 N -0.606291 -0.612920 -0.394114 0
M  V30 29 C 0.406912 0.193629 -0.770919 0
M  V30 30 C 1.262472 -2.812614 -1.973520 0
M  V30 31 H 1.158886 -6.008782 -3.042168 0
M  V30 32 H 0.443323 -4.829270 -5.076401 0
M  V30 33 H 0.263240 -2.425456 -5.103209 0
M  V30 34 H 0.474452 -0.258332 -4.027106 0
M  V30 35 H 2.714939 1.287548 -3.029710 0
M  V30 36 H 1.508905 2.799317 2.051181 0
M  V30 37 H -0.945664 2.340476 3.555163 0
M  V30 38 H -0.001747 3.776059 5.101849 0
M  V30 39 H 1.246121 4.138795 3.824527 0
M  V30 40 H 2.735893 3.182741 5.371214 0
M  V30 41 H 1.429007 2.516072 6.355905 0
M  V30 42 H 2.431131 1.374832 3.819012 0
M  V30 43 H 0.392565 0.139099 3.823035 0
M  V30 44 H -0.048644 1.047712 5.373969 0
M  V30 45 H -2.538429 -0.641093 3.151710 0
M  V30 46 H -4.335870 -2.147307 3.678852 0
M  V30 47 H -4.114154 -3.951312 -0.109994 0
M  V30 48 H 1.511546 -2.309490 -1.059225 0
M  V30 END ATOM
M  V30 BEGIN BOND
M  V30 1 1 1 2
M  V30 2 2 2 3
M  V30 3 1 3 4
M  V30 4 2 4 5
M  V30 5 1 5 6
M  V30 6 1 6 7
M  V30 7 1 7 8
M  V30 8 2 8 9
M  V30 9 1 9 10
M  V30 10 1 10 11
M  V30 11 2 11 12
M  V30 12 1 12 13
M  V30 13 1 13 14
M  V30 14 1 14 15
M  V30 15 1 15 16
M  V30 16 1 16 17
M  V30 17 1 17 18
M  V30 18 1 12 19
M  V30 19 2 19 20
M  V30 20 1 20 21
M  V30 21 2 21 22
M  V30 22 1 22 23
M  V30 23 2 23 24
M  V30 24 1 24 25
M  V30 25 2 25 26
M  V30 26 1 26 27
M  V30 27 1 20 28
M  V30 28 2 28 29
M  V30 29 2 6 30
M  V30 30 1 30 2
M  V30 31 1 29 8
M  V30 32 1 29 11
M  V30 33 1 18 14
M  V30 34 1 26 21
M  V30 35 1 3 31
M  V30 36 1 4 32
M  V30 37 1 5 33
M  V30 38 1 7 34
M  V30 39 1 9 35
M  V30 40 1 13 36
M  V30 41 1 14 37 CFG=3
M  V30 42 1 15 38
M  V30 43 1 15 39
M  V30 44 1 16 40
M  V30 45 1 16 41
M  V30 46 1 17 42
M  V30 47 1 18 43
M  V30 48 1 18 44
M  V30 49 1 22 45
M  V30 50 1 23 46
M  V30 51 1 25 47
M  V30 52 1 30 48
M  V30 END BOND
M  V30 END CTAB
M  END
>  <Dataset>  (674) 
ChEMBL_Kinases

>  <Ligand_Instance>  (674) 
nan

>  <PDB_ID>  (674) 
nan

>  <Standardized_SMILES>  (674) 
Fc1cccc(Nc2csc3c(N[C@@H]4CCNC4)nc(-c4ccncc4F)nc23)c1

>  <Name>  (674) 
nan

>  <Pocket>  (674) 
nan

>  <ATP_Site>  (674) 
nan

>  <Peripheral>  (674) 
nan

>  <Num_H_Atoms_ProtBoundConf>  (674) 
nan

>  <Num_Resolved_Atoms>  (674) 
nan

>  <Num_Not_Resolved_Atoms>  (674) 
nan

$$$$
CHEMBL3730108
     RDKit          3D

  0  0  0  0  0  0  0  0  0  0999 V3000
M  V30 BEGIN CTAB
M  V30 COUNTS 55 59 0 0 0
M  V30 BEGIN ATOM
M  V30 1 N 3.469081 -2.911971 -0.192157 0
M  V30 2 C 2.082777 -3.279817 0.195396 0 CFG=2
M  V30 3 C 1.960645 -2.757844 1.618923 0
M  V30 4 N 2.171183 -1.320755 1.625834 0
M  V30 5 C 1.034780 -0.682345 1.216186 0
M  V30 6 N 1.739918 0.550330 1.241264 0
M  V30 7 C 1.160848 1.716568 0.913061 0
M  V30 8 C 1.822443 3.082798 0.892830 0
M  V30 9 C 3.148960 2.971403 1.253586 0
M  V30 10 C 3.937582 4.090800 1.293402 0
M  V30 11 N 3.377924 5.284906 0.971542 0
M  V30 12 C 2.074019 5.372296 0.619909 0
M  V30 13 C 1.238311 4.276730 0.565232 0
M  V30 14 N -0.118885 1.877033 0.530381 0
M  V30 15 C -0.982529 0.877832 0.428755 0
M  V30 16 C -2.187943 0.412400 0.169208 0
M  V30 17 C -3.067160 1.518394 -0.229697 0
M  V30 18 C -2.772514 2.514833 -1.138686 0
M  V30 19 C -3.678819 3.518453 -1.444164 0
M  V30 20 C -4.898769 3.496555 -0.809834 0
M  V30 21 Br -6.223228 4.810060 -1.139195 0
M  V30 22 C -5.228274 2.509285 0.109540 0
M  V30 23 C -4.312409 1.498190 0.416704 0
M  V30 24 C -2.671535 -0.933799 0.238683 0
M  V30 25 S -1.042024 -1.710874 0.799841 0
M  V30 26 C -0.065635 -0.063954 0.819499 0
M  V30 27 C 1.975714 -4.779652 0.150404 0
M  V30 28 C 0.634439 -5.304616 0.492924 0
M  V30 29 C 0.167684 -5.601097 1.751785 0
M  V30 30 C -1.119182 -6.110736 1.922112 0
M  V30 31 C -1.965327 -6.335029 0.857994 0
M  V30 32 C -1.497272 -6.038674 -0.383319 0
M  V30 33 C -0.225640 -5.531590 -0.587721 0
M  V30 34 H 4.101447 -3.047079 0.653335 0
M  V30 35 H 3.815081 -3.549930 -0.939562 0
M  V30 36 H 1.383060 -2.788561 -0.437871 0
M  V30 37 H 2.682550 -3.312258 2.232483 0
M  V30 38 H 0.950431 -3.030828 2.042916 0
M  V30 39 H 3.118942 -1.187060 1.938916 0
M  V30 40 H 3.679407 2.069496 1.522910 0
M  V30 41 H 4.995466 4.090488 1.566848 0
M  V30 42 H 1.570583 6.309218 0.351175 0
M  V30 43 H 0.197344 4.223211 0.306486 0
M  V30 44 H -1.792217 2.449654 -1.585469 0
M  V30 45 H -3.418099 4.283832 -2.158497 0
M  V30 46 H -6.197669 2.479878 0.624575 0
M  V30 47 H -4.618009 0.752930 1.142218 0
M  V30 48 H -3.595153 -1.223394 0.029289 0
M  V30 49 H 2.752257 -5.250752 0.822971 0
M  V30 50 H 2.225657 -5.129017 -0.872043 0
M  V30 51 H 0.844725 -5.416624 2.572143 0
M  V30 52 H -1.482665 -6.339838 2.917941 0
M  V30 53 H -2.970060 -6.743492 1.032565 0
M  V30 54 H -2.208639 -6.240196 -1.194600 0
M  V30 55 H -0.028518 -5.356724 -1.631702 0
M  V30 END ATOM
M  V30 BEGIN BOND
M  V30 1 1 1 2
M  V30 2 1 2 3
M  V30 3 1 3 4
M  V30 4 1 4 5
M  V30 5 2 5 6
M  V30 6 1 6 7
M  V30 7 1 7 8
M  V30 8 2 8 9
M  V30 9 1 9 10
M  V30 10 2 10 11
M  V30 11 1 11 12
M  V30 12 2 12 13
M  V30 13 2 7 14
M  V30 14 1 14 15
M  V30 15 1 15 16
M  V30 16 1 16 17
M  V30 17 2 17 18
M  V30 18 1 18 19
M  V30 19 2 19 20
M  V30 20 1 20 21
M  V30 21 1 20 22
M  V30 22 2 22 23
M  V30 23 2 16 24
M  V30 24 1 24 25
M  V30 25 1 25 26
M  V30 26 1 2 27
M  V30 27 1 27 28
M  V30 28 2 28 29
M  V30 29 1 29 30
M  V30 30 2 30 31
M  V30 31 1 31 32
M  V30 32 2 32 33
M  V30 33 1 26 5
M  V30 34 1 33 28
M  V30 35 1 13 8
M  V30 36 2 26 15
M  V30 37 1 23 17
M  V30 38 1 1 34
M  V30 39 1 1 35
M  V30 40 1 2 36 CFG=3
M  V30 41 1 3 37
M  V30 42 1 3 38
M  V30 43 1 4 39
M  V30 44 1 9 40
M  V30 45 1 10 41
M  V30 46 1 12 42
M  V30 47 1 13 43
M  V30 48 1 18 44
M  V30 49 1 19 45
M  V30 50 1 22 46
M  V30 51 1 23 47
M  V30 52 1 24 48
M  V30 53 1 27 49
M  V30 54 1 27 50
M  V30 55 1 29 51
M  V30 56 1 30 52
M  V30 57 1 31 53
M  V30 58 1 32 54
M  V30 59 1 33 55
M  V30 END BOND
M  V30 END CTAB
M  END
>  <Dataset>  (675) 
ChEMBL_Kinases

>  <Ligand_Instance>  (675) 
nan

>  <PDB_ID>  (675) 
nan

>  <Standardized_SMILES>  (675) 
N[C@H](CNc1nc(-c2ccncc2)nc2c(-c3ccc(Br)cc3)csc12)Cc1ccccc1

>  <Name>  (675) 
nan

>  <Pocket>  (675) 
nan

>  <ATP_Site>  (675) 
nan

>  <Peripheral>  (675) 
nan

>  <Num_H_Atoms_ProtBoundConf>  (675) 
nan

>  <Num_Resolved_Atoms>  (675) 
nan

>  <Num_Not_Resolved_Atoms>  (675) 
nan

$$$$
CHEMBL3730064
     RDKit          3D

  0  0  0  0  0  0  0  0  0  0999 V3000
M  V30 BEGIN CTAB
M  V30 COUNTS 47 50 0 0 0
M  V30 BEGIN ATOM
M  V30 1 C -1.003306 -5.320600 3.135616 0
M  V30 2 C 0.160929 -4.414766 2.767217 0
M  V30 3 C 0.259769 -4.368285 1.262479 0
M  V30 4 N -0.000835 -3.095446 3.351856 0
M  V30 5 C -1.134348 -2.575745 2.663263 0
M  V30 6 C -0.876679 -1.512574 1.806093 0
M  V30 7 C -1.817152 -0.878901 1.045040 0
M  V30 8 C -1.397225 0.256810 0.194386 0
M  V30 9 N -0.089455 0.593762 0.120469 0
M  V30 10 C 0.256599 1.627119 -0.644362 0
M  V30 11 N 1.542894 2.160837 -0.883993 0
M  V30 12 C 2.531525 1.443430 -0.107786 0 CFG=2
M  V30 13 C 2.393300 1.705557 1.364246 0
M  V30 14 C 3.792643 1.489785 1.878951 0
M  V30 15 N 4.672728 1.317698 0.754439 0
M  V30 16 C 3.944388 1.766757 -0.416248 0
M  V30 17 C -0.788399 2.236991 -1.276037 0
M  V30 18 S -0.737334 3.740957 -2.426612 0
M  V30 19 C -2.620810 3.748315 -2.698358 0
M  V30 20 C -3.067072 2.651633 -1.918436 0
M  V30 21 C -2.160476 1.941623 -1.243136 0
M  V30 22 N -2.398173 0.886872 -0.448167 0
M  V30 23 C -3.112519 -1.311230 1.119132 0
M  V30 24 C -3.366197 -2.376983 1.978487 0
M  V30 25 N -2.416100 -2.975098 2.712321 0
M  V30 26 H -1.799329 -5.289186 2.373085 0
M  V30 27 H -0.656055 -6.395640 3.163365 0
M  V30 28 H -1.382227 -5.079147 4.171150 0
M  V30 29 H 1.100862 -4.831499 3.167600 0
M  V30 30 H 0.175792 -5.407203 0.897095 0
M  V30 31 H 1.213462 -3.957976 0.907365 0
M  V30 32 H -0.604980 -3.820055 0.813394 0
M  V30 33 H 0.363713 -2.403361 4.040403 0
M  V30 34 H 0.151536 -1.145128 1.726138 0
M  V30 35 H 1.733342 2.940786 -1.514256 0
M  V30 36 H 2.398993 0.342297 -0.239252 0
M  V30 37 H 2.139458 2.793578 1.527924 0
M  V30 38 H 1.640057 1.072541 1.877585 0
M  V30 39 H 3.775853 0.503660 2.432678 0
M  V30 40 H 4.121516 2.306756 2.558012 0
M  V30 41 H 4.972578 0.311402 0.640076 0
M  V30 42 H 4.255289 1.201270 -1.329292 0
M  V30 43 H 4.112054 2.850654 -0.527554 0
M  V30 44 H -3.315243 4.437404 -3.324042 0
M  V30 45 H -4.128446 2.485946 -1.939405 0
M  V30 46 H -3.874263 -0.845734 0.540310 0
M  V30 47 H -4.372569 -2.754153 2.068358 0
M  V30 END ATOM
M  V30 BEGIN BOND
M  V30 1 1 1 2
M  V30 2 1 2 3
M  V30 3 1 2 4
M  V30 4 1 4 5
M  V30 5 2 5 6
M  V30 6 1 6 7
M  V30 7 1 7 8
M  V30 8 2 8 9
M  V30 9 1 9 10
M  V30 10 1 10 11
M  V30 11 1 11 12
M  V30 12 1 12 13
M  V30 13 1 13 14
M  V30 14 1 14 15
M  V30 15 1 15 16
M  V30 16 2 10 17
M  V30 17 1 17 18
M  V30 18 1 18 19
M  V30 19 2 19 20
M  V30 20 1 20 21
M  V30 21 2 21 22
M  V30 22 2 7 23
M  V30 23 1 23 24
M  V30 24 2 24 25
M  V30 25 1 25 5
M  V30 26 1 22 8
M  V30 27 1 16 12
M  V30 28 1 21 17
M  V30 29 1 1 26
M  V30 30 1 1 27
M  V30 31 1 1 28
M  V30 32 1 2 29
M  V30 33 1 3 30
M  V30 34 1 3 31
M  V30 35 1 3 32
M  V30 36 1 4 33
M  V30 37 1 6 34
M  V30 38 1 11 35
M  V30 39 1 12 36 CFG=1
M  V30 40 1 13 37
M  V30 41 1 13 38
M  V30 42 1 14 39
M  V30 43 1 14 40
M  V30 44 1 15 41
M  V30 45 1 16 42
M  V30 46 1 16 43
M  V30 47 1 19 44
M  V30 48 1 20 45
M  V30 49 1 23 46
M  V30 50 1 24 47
M  V30 END BOND
M  V30 END CTAB
M  END
>  <Dataset>  (676) 
ChEMBL_Kinases

>  <Ligand_Instance>  (676) 
nan

>  <PDB_ID>  (676) 
nan

>  <Standardized_SMILES>  (676) 
CC(C)Nc1cc(-c2nc(N[C@@H]3CCNC3)c3sccc3n2)ccn1

>  <Name>  (676) 
nan

>  <Pocket>  (676) 
nan

>  <ATP_Site>  (676) 
nan

>  <Peripheral>  (676) 
nan

>  <Num_H_Atoms_ProtBoundConf>  (676) 
nan

>  <Num_Resolved_Atoms>  (676) 
nan

>  <Num_Not_Resolved_Atoms>  (676) 
nan

$$$$
CHEMBL3704389
     RDKit          3D

  0  0  0  0  0  0  0  0  0  0999 V3000
M  V30 BEGIN CTAB
M  V30 COUNTS 61 64 0 0 0
M  V30 BEGIN ATOM
M  V30 1 C -0.040096 -0.099998 6.482492 0
M  V30 2 C -0.144891 -0.149612 4.975295 0 CFG=1
M  V30 3 N 1.193161 -0.142380 4.364903 0
M  V30 4 C 1.654708 0.952115 3.548162 0
M  V30 5 O 0.844642 1.919549 3.379038 0
M  V30 6 N 2.961266 0.922842 2.971225 0
M  V30 7 C 3.393956 2.026037 2.162337 0
M  V30 8 C 3.160669 2.021407 0.788924 0
M  V30 9 C 3.536484 3.031593 -0.073973 0
M  V30 10 C 4.196174 4.132852 0.472257 0
M  V30 11 C 4.420664 4.128588 1.820987 0
M  V30 12 C 5.102985 5.251957 2.434719 0
M  V30 13 N 5.652308 6.148844 2.947206 0
M  V30 14 C 4.049952 3.125625 2.692009 0
M  V30 15 C -0.932036 -1.312183 4.486954 0
M  V30 16 C -1.698244 -2.149331 5.271566 0
M  V30 17 C -2.386919 -3.200868 4.702263 0
M  V30 18 C -2.328846 -3.441893 3.345344 0
M  V30 19 C -1.566162 -2.611579 2.551636 0
M  V30 20 C -1.434765 -2.778693 1.088559 0
M  V30 21 O -0.732715 -2.020213 0.375185 0
M  V30 22 N -2.074219 -3.789334 0.362035 0
M  V30 23 C -1.719024 -3.645065 -1.029205 0
M  V30 24 C -0.604774 -4.294846 -1.531963 0
M  V30 25 C -0.271653 -4.149200 -2.866747 0
M  V30 26 C -1.094177 -3.336529 -3.656127 0
M  V30 27 C -2.196332 -2.709099 -3.105554 0
M  V30 28 C -2.539716 -2.840426 -1.795277 0
M  V30 29 C -2.987091 -1.873076 -4.054682 0
M  V30 30 N -2.140794 -0.963036 -4.793002 0
M  V30 31 C -2.877420 -0.352087 -5.854543 0
M  V30 32 C -0.922701 -1.570296 -5.260841 0
M  V30 33 C -0.880786 -3.072141 -5.106885 0
M  V30 34 C -0.866195 -1.544921 3.121138 0
M  V30 35 H 0.859732 0.508328 6.771421 0
M  V30 36 H 0.013930 -1.111114 6.949061 0
M  V30 37 H -0.888314 0.427237 6.968845 0
M  V30 38 H -0.618951 0.811541 4.658278 0
M  V30 39 H 1.816322 -0.983079 4.549236 0
M  V30 40 H 3.537013 0.077867 3.178683 0
M  V30 41 H 2.641581 1.148069 0.380303 0
M  V30 42 H 3.339463 2.992574 -1.126033 0
M  V30 43 H 4.501435 4.938386 -0.183743 0
M  V30 44 H 4.234631 3.140068 3.746598 0
M  V30 45 H -1.732112 -1.948754 6.316774 0
M  V30 46 H -2.986639 -3.849928 5.343114 0
M  V30 47 H -2.858785 -4.255331 2.889945 0
M  V30 48 H -2.694738 -4.487801 0.870772 0
M  V30 49 H 0.026002 -4.920284 -0.919078 0
M  V30 50 H 0.569018 -4.606660 -3.360053 0
M  V30 51 H -3.402760 -2.340371 -1.394540 0
M  V30 52 H -3.547135 -2.518303 -4.790748 0
M  V30 53 H -3.750693 -1.263311 -3.526971 0
M  V30 54 H -2.188882 -0.275160 -6.743337 0
M  V30 55 H -3.294781 0.648439 -5.567807 0
M  V30 56 H -3.737018 -1.001014 -6.132508 0
M  V30 57 H -0.007027 -1.193430 -4.727200 0
M  V30 58 H -0.753062 -1.337864 -6.331158 0
M  V30 59 H -1.693290 -3.580738 -5.662577 0
M  V30 60 H 0.134139 -3.386745 -5.410418 0
M  V30 61 H -0.274306 -0.907840 2.473136 0
M  V30 END ATOM
M  V30 BEGIN BOND
M  V30 1 1 1 2
M  V30 2 1 2 3
M  V30 3 1 3 4
M  V30 4 2 4 5
M  V30 5 1 4 6
M  V30 6 1 6 7
M  V30 7 2 7 8
M  V30 8 1 8 9
M  V30 9 2 9 10
M  V30 10 1 10 11
M  V30 11 1 11 12
M  V30 12 3 12 13
M  V30 13 2 11 14
M  V30 14 1 2 15
M  V30 15 2 15 16
M  V30 16 1 16 17
M  V30 17 2 17 18
M  V30 18 1 18 19
M  V30 19 1 19 20
M  V30 20 2 20 21
M  V30 21 1 20 22
M  V30 22 1 22 23
M  V30 23 2 23 24
M  V30 24 1 24 25
M  V30 25 2 25 26
M  V30 26 1 26 27
M  V30 27 2 27 28
M  V30 28 1 27 29
M  V30 29 1 29 30
M  V30 30 1 30 31
M  V30 31 1 30 32
M  V30 32 1 32 33
M  V30 33 2 19 34
M  V30 34 1 14 7
M  V30 35 1 34 15
M  V30 36 1 28 23
M  V30 37 1 33 26
M  V30 38 1 1 35
M  V30 39 1 1 36
M  V30 40 1 1 37
M  V30 41 1 2 38 CFG=3
M  V30 42 1 3 39
M  V30 43 1 6 40
M  V30 44 1 8 41
M  V30 45 1 9 42
M  V30 46 1 10 43
M  V30 47 1 14 44
M  V30 48 1 16 45
M  V30 49 1 17 46
M  V30 50 1 18 47
M  V30 51 1 22 48
M  V30 52 1 24 49
M  V30 53 1 25 50
M  V30 54 1 28 51
M  V30 55 1 29 52
M  V30 56 1 29 53
M  V30 57 1 31 54
M  V30 58 1 31 55
M  V30 59 1 31 56
M  V30 60 1 32 57
M  V30 61 1 32 58
M  V30 62 1 33 59
M  V30 63 1 33 60
M  V30 64 1 34 61
M  V30 END BOND
M  V30 END CTAB
M  END
>  <Dataset>  (677) 
ChEMBL_Kinases

>  <Ligand_Instance>  (677) 
nan

>  <PDB_ID>  (677) 
nan

>  <Standardized_SMILES>  (677) 
C[C@@H](NC(=O)Nc1cccc(C#N)c1)c1cccc(C(=O)Nc2ccc3c(c2)CN(C)CC3)c1

>  <Name>  (677) 
nan

>  <Pocket>  (677) 
nan

>  <ATP_Site>  (677) 
nan

>  <Peripheral>  (677) 
nan

>  <Num_H_Atoms_ProtBoundConf>  (677) 
nan

>  <Num_Resolved_Atoms>  (677) 
nan

>  <Num_Not_Resolved_Atoms>  (677) 
nan

$$$$
CHEMBL3730062
     RDKit          3D

  0  0  0  0  0  0  0  0  0  0999 V3000
M  V30 BEGIN CTAB
M  V30 COUNTS 33 34 0 0 0
M  V30 BEGIN ATOM
M  V30 1 O -1.096438 -1.011675 3.352282 0
M  V30 2 C 0.024761 -0.879060 2.748347 0
M  V30 3 C 1.025610 -1.732621 3.390623 0
M  V30 4 N 2.336870 -1.697563 2.803070 0
M  V30 5 C 2.592406 -2.149098 1.481581 0
M  V30 6 C 1.653238 -2.673449 0.622596 0
M  V30 7 C 1.943995 -3.101090 -0.655548 0
M  V30 8 C 3.233054 -3.016149 -1.137833 0
M  V30 9 C 4.218353 -2.499611 -0.324519 0
M  V30 10 C 3.857607 -2.092088 0.939227 0
M  V30 11 N 0.062320 0.007155 1.657475 0
M  V30 12 N -1.090955 0.699837 1.267336 0
M  V30 13 C -1.513975 0.697581 0.041448 0
M  V30 14 C -2.698248 1.367104 -0.535630 0
M  V30 15 C -2.984355 1.239247 -1.897643 0
M  V30 16 Cl -1.927922 0.279239 -2.914176 0
M  V30 17 C -4.109114 1.901603 -2.334001 0
M  V30 18 N -4.888183 2.626368 -1.513384 0
M  V30 19 C -4.604695 2.743284 -0.205086 0
M  V30 20 C -3.483220 2.103915 0.318875 0
M  V30 21 Cl -3.113262 2.256823 2.027547 0
M  V30 22 H 1.063761 -1.470612 4.475042 0
M  V30 23 H 0.636240 -2.792591 3.394211 0
M  V30 24 H 3.137024 -1.328586 3.359816 0
M  V30 25 H 0.618187 -2.748471 0.992007 0
M  V30 26 H 1.127336 -3.492629 -1.233854 0
M  V30 27 H 3.412036 -3.363357 -2.144345 0
M  V30 28 H 5.234826 -2.425737 -0.686769 0
M  V30 29 H 4.680454 -1.694003 1.531347 0
M  V30 30 H 1.014035 0.055638 1.233425 0
M  V30 31 H -0.881247 0.105847 -0.638827 0
M  V30 32 H -4.286485 1.767205 -3.411138 0
M  V30 33 H -5.253035 3.335474 0.431606 0
M  V30 END ATOM
M  V30 BEGIN BOND
M  V30 1 2 1 2
M  V30 2 1 2 3
M  V30 3 1 3 4
M  V30 4 1 4 5
M  V30 5 2 5 6
M  V30 6 1 6 7
M  V30 7 2 7 8
M  V30 8 1 8 9
M  V30 9 2 9 10
M  V30 10 1 2 11
M  V30 11 1 11 12
M  V30 12 2 12 13
M  V30 13 1 13 14
M  V30 14 2 14 15
M  V30 15 1 15 16
M  V30 16 1 15 17
M  V30 17 2 17 18
M  V30 18 1 18 19
M  V30 19 2 19 20
M  V30 20 1 20 21
M  V30 21 1 10 5
M  V30 22 1 20 14
M  V30 23 1 3 22
M  V30 24 1 3 23
M  V30 25 1 4 24
M  V30 26 1 6 25
M  V30 27 1 7 26
M  V30 28 1 8 27
M  V30 29 1 9 28
M  V30 30 1 10 29
M  V30 31 1 11 30
M  V30 32 1 13 31
M  V30 33 1 17 32
M  V30 34 1 19 33
M  V30 END BOND
M  V30 END CTAB
M  END
>  <Dataset>  (678) 
ChEMBL_Kinases

>  <Ligand_Instance>  (678) 
nan

>  <PDB_ID>  (678) 
nan

>  <Standardized_SMILES>  (678) 
O=C(CNc1ccccc1)N/N=C/c1c(Cl)cncc1Cl

>  <Name>  (678) 
nan

>  <Pocket>  (678) 
nan

>  <ATP_Site>  (678) 
nan

>  <Peripheral>  (678) 
nan

>  <Num_H_Atoms_ProtBoundConf>  (678) 
nan

>  <Num_Resolved_Atoms>  (678) 
nan

>  <Num_Not_Resolved_Atoms>  (678) 
nan

$$$$
CHEMBL3730059
     RDKit          3D

  0  0  0  0  0  0  0  0  0  0999 V3000
M  V30 BEGIN CTAB
M  V30 COUNTS 37 38 0 0 0
M  V30 BEGIN ATOM
M  V30 1 C -1.496307 -1.244468 4.111391 0
M  V30 2 O -2.223677 -1.636686 3.091123 0
M  V30 3 C -2.997689 -2.075533 2.173923 0
M  V30 4 C -4.113375 -2.900454 2.355898 0
M  V30 5 C -4.940762 -3.368213 1.369791 0
M  V30 6 C -4.579725 -2.949293 0.128338 0
M  V30 7 C -3.527256 -2.149790 -0.209634 0
M  V30 8 C -2.716352 -1.703264 0.849472 0
M  V30 9 N -1.584965 -0.853001 0.560405 0
M  V30 10 C -1.338648 -0.497226 -0.820846 0
M  V30 11 C -0.186919 0.363747 -1.049364 0
M  V30 12 O -0.086977 0.596728 -2.302582 0
M  V30 13 N 0.706906 0.884248 -0.082471 0
M  V30 14 N 1.825006 1.678451 0.000404 0
M  V30 15 C 3.022441 1.330165 -0.156054 0
M  V30 16 C 4.438832 1.054941 -0.313005 0
M  V30 17 C 4.736186 -0.255690 -0.607344 0
M  V30 18 C 6.060396 -0.583761 -0.769564 0
M  V30 19 N 6.970897 0.360387 -0.637174 0
M  V30 20 C 6.650182 1.624932 -0.350340 0
M  V30 21 C 5.382797 2.080770 -0.165650 0
M  V30 22 H -0.408848 -1.495681 3.952656 0
M  V30 23 H -1.732224 -1.714979 5.124536 0
M  V30 24 H -1.492415 -0.114581 4.293883 0
M  V30 25 H -4.286260 -3.160076 3.408929 0
M  V30 26 H -5.784227 -3.998365 1.561218 0
M  V30 27 H -5.158020 -3.251613 -0.739980 0
M  V30 28 H -3.275042 -1.839197 -1.218058 0
M  V30 29 H -1.013206 -0.549161 1.378158 0
M  V30 30 H -1.185426 -1.441123 -1.393973 0
M  V30 31 H -2.260552 0.027583 -1.182554 0
M  V30 32 H 0.539250 0.636874 0.915638 0
M  V30 33 H 2.691756 2.357627 0.076797 0
M  V30 34 H 3.982017 -1.021875 -0.714574 0
M  V30 35 H 6.410618 -1.584375 -1.003256 0
M  V30 36 H 7.478958 2.341832 -0.260242 0
M  V30 37 H 5.090277 3.093696 0.067077 0
M  V30 END ATOM
M  V30 BEGIN BOND
M  V30 1 1 1 2
M  V30 2 1 2 3
M  V30 3 2 3 4
M  V30 4 1 4 5
M  V30 5 2 5 6
M  V30 6 1 6 7
M  V30 7 2 7 8
M  V30 8 1 8 9
M  V30 9 1 9 10
M  V30 10 1 10 11
M  V30 11 2 11 12
M  V30 12 1 11 13
M  V30 13 1 13 14
M  V30 14 2 14 15
M  V30 15 1 15 16
M  V30 16 2 16 17
M  V30 17 1 17 18
M  V30 18 2 18 19
M  V30 19 1 19 20
M  V30 20 2 20 21
M  V30 21 1 8 3
M  V30 22 1 21 16
M  V30 23 1 1 22
M  V30 24 1 1 23
M  V30 25 1 1 24
M  V30 26 1 4 25
M  V30 27 1 5 26
M  V30 28 1 6 27
M  V30 29 1 7 28
M  V30 30 1 9 29
M  V30 31 1 10 30
M  V30 32 1 10 31
M  V30 33 1 13 32
M  V30 34 1 15 33
M  V30 35 1 17 34
M  V30 36 1 18 35
M  V30 37 1 20 36
M  V30 38 1 21 37
M  V30 END BOND
M  V30 END CTAB
M  END
>  <Dataset>  (679) 
ChEMBL_Kinases

>  <Ligand_Instance>  (679) 
nan

>  <PDB_ID>  (679) 
nan

>  <Standardized_SMILES>  (679) 
COc1ccccc1NCC(=O)N/N=C/c1ccncc1

>  <Name>  (679) 
nan

>  <Pocket>  (679) 
nan

>  <ATP_Site>  (679) 
nan

>  <Peripheral>  (679) 
nan

>  <Num_H_Atoms_ProtBoundConf>  (679) 
nan

>  <Num_Resolved_Atoms>  (679) 
nan

>  <Num_Not_Resolved_Atoms>  (679) 
nan

$$$$
CHEMBL3730055
     RDKit          3D

  0  0  0  0  0  0  0  0  0  0999 V3000
M  V30 BEGIN CTAB
M  V30 COUNTS 55 59 0 0 0
M  V30 BEGIN ATOM
M  V30 1 N -1.068540 -3.845004 0.639012 0
M  V30 2 C 0.138686 -3.395650 1.271112 0 CFG=2
M  V30 3 C 0.460365 -1.967698 1.016697 0
M  V30 4 N -0.516677 -1.003095 1.454199 0
M  V30 5 C -0.285003 0.384960 1.251197 0
M  V30 6 N 0.858589 0.705208 0.636427 0
M  V30 7 C 1.309150 1.903197 0.321632 0
M  V30 8 C 2.579435 2.106670 -0.350897 0
M  V30 9 C 3.338640 1.006924 -0.670033 0
M  V30 10 C 4.531546 1.208437 -1.302305 0
M  V30 11 N 4.953921 2.449023 -1.605452 0
M  V30 12 C 4.225268 3.549645 -1.302218 0
M  V30 13 C 2.996413 3.384424 -0.653766 0
M  V30 14 N 0.489516 2.904359 0.678865 0
M  V30 15 C -0.691622 2.630868 1.310103 0
M  V30 16 S -1.867317 3.783400 1.839746 0
M  V30 17 C -3.022323 2.459029 2.528430 0
M  V30 18 C -2.343915 1.307658 2.256282 0
M  V30 19 C -1.135080 1.399224 1.623757 0
M  V30 20 C -3.282851 0.317294 2.813727 0
M  V30 21 C -4.566430 0.440695 1.991862 0
M  V30 22 C -5.334423 1.583101 2.641445 0
M  V30 23 C -4.337014 2.577448 3.194169 0
M  V30 24 C 1.251948 -4.331721 0.925261 0
M  V30 25 C 1.474249 -4.385960 -0.546977 0
M  V30 26 C 0.775464 -5.325333 -1.282488 0
M  V30 27 C 0.898776 -5.468773 -2.646745 0
M  V30 28 C 1.762030 -4.640384 -3.342676 0
M  V30 29 F 1.912922 -4.746908 -4.678626 0
M  V30 30 C 2.474087 -3.688581 -2.619340 0
M  V30 31 C 2.318090 -3.585177 -1.270632 0
M  V30 32 H -1.907800 -3.712831 1.226074 0
M  V30 33 H -1.145705 -3.374242 -0.298283 0
M  V30 34 H -0.028804 -3.494890 2.385321 0
M  V30 35 H 0.697939 -1.752018 -0.052189 0
M  V30 36 H 1.411594 -1.686865 1.556731 0
M  V30 37 H -1.238556 -1.609784 1.855459 0
M  V30 38 H 2.958504 0.010839 -0.405370 0
M  V30 39 H 5.100086 0.311005 -1.536287 0
M  V30 40 H 4.617867 4.529778 -1.572275 0
M  V30 41 H 2.408318 4.267249 -0.408660 0
M  V30 42 H -2.941045 -0.723633 2.825802 0
M  V30 43 H -3.556162 0.516997 3.888590 0
M  V30 44 H -5.113379 -0.498172 2.057901 0
M  V30 45 H -4.313971 0.725897 0.971319 0
M  V30 46 H -6.031915 1.207079 3.418868 0
M  V30 47 H -5.966218 2.023647 1.842024 0
M  V30 48 H -4.777109 3.585484 3.069348 0
M  V30 49 H -4.186548 2.415733 4.277158 0
M  V30 50 H 2.168784 -3.934653 1.409590 0
M  V30 51 H 1.061612 -5.361068 1.267121 0
M  V30 52 H 0.090442 -5.987837 -0.755116 0
M  V30 53 H 0.321782 -6.227030 -3.170013 0
M  V30 54 H 3.141010 -3.051760 -3.172304 0
M  V30 55 H 2.876453 -2.837141 -0.695325 0
M  V30 END ATOM
M  V30 BEGIN BOND
M  V30 1 1 1 2
M  V30 2 1 2 3
M  V30 3 1 3 4
M  V30 4 1 4 5
M  V30 5 2 5 6
M  V30 6 1 6 7
M  V30 7 1 7 8
M  V30 8 2 8 9
M  V30 9 1 9 10
M  V30 10 2 10 11
M  V30 11 1 11 12
M  V30 12 2 12 13
M  V30 13 2 7 14
M  V30 14 1 14 15
M  V30 15 1 15 16
M  V30 16 1 16 17
M  V30 17 2 17 18
M  V30 18 1 18 19
M  V30 19 1 18 20
M  V30 20 1 20 21
M  V30 21 1 21 22
M  V30 22 1 22 23
M  V30 23 1 2 24
M  V30 24 1 24 25
M  V30 25 2 25 26
M  V30 26 1 26 27
M  V30 27 2 27 28
M  V30 28 1 28 29
M  V30 29 1 28 30
M  V30 30 2 30 31
M  V30 31 1 19 5
M  V30 32 1 31 25
M  V30 33 1 13 8
M  V30 34 2 19 15
M  V30 35 1 23 17
M  V30 36 1 1 32
M  V30 37 1 1 33
M  V30 38 1 2 34 CFG=1
M  V30 39 1 3 35
M  V30 40 1 3 36
M  V30 41 1 4 37
M  V30 42 1 9 38
M  V30 43 1 10 39
M  V30 44 1 12 40
M  V30 45 1 13 41
M  V30 46 1 20 42
M  V30 47 1 20 43
M  V30 48 1 21 44
M  V30 49 1 21 45
M  V30 50 1 22 46
M  V30 51 1 22 47
M  V30 52 1 23 48
M  V30 53 1 23 49
M  V30 54 1 24 50
M  V30 55 1 24 51
M  V30 56 1 26 52
M  V30 57 1 27 53
M  V30 58 1 30 54
M  V30 59 1 31 55
M  V30 END BOND
M  V30 END CTAB
M  END
>  <Dataset>  (680) 
ChEMBL_Kinases

>  <Ligand_Instance>  (680) 
nan

>  <PDB_ID>  (680) 
nan

>  <Standardized_SMILES>  (680) 
N[C@H](CNc1nc(-c2ccncc2)nc2sc3c(c12)CCCC3)Cc1ccc(F)cc1

>  <Name>  (680) 
nan

>  <Pocket>  (680) 
nan

>  <ATP_Site>  (680) 
nan

>  <Peripheral>  (680) 
nan

>  <Num_H_Atoms_ProtBoundConf>  (680) 
nan

>  <Num_Resolved_Atoms>  (680) 
nan

>  <Num_Not_Resolved_Atoms>  (680) 
nan

$$$$
CHEMBL3730052
     RDKit          3D

  0  0  0  0  0  0  0  0  0  0999 V3000
M  V30 BEGIN CTAB
M  V30 COUNTS 52 56 0 0 0
M  V30 BEGIN ATOM
M  V30 1 N 0.140114 -2.435319 0.669289 0
M  V30 2 C -0.827048 -3.186755 1.374996 0 CFG=2
M  V30 3 C -1.345207 -2.413077 2.557520 0
M  V30 4 N -1.953395 -1.197127 2.109436 0
M  V30 5 C -1.275733 -0.069137 1.602218 0
M  V30 6 N 0.052039 0.054273 1.489781 0
M  V30 7 C 0.574076 1.174892 1.015042 0
M  V30 8 C 2.023494 1.153247 0.962227 0
M  V30 9 C 2.699115 0.036283 1.460138 0
M  V30 10 C 4.069578 -0.083150 1.450186 0
M  V30 11 N 4.832010 0.882236 0.954295 0
M  V30 12 C 4.281487 1.993127 0.453054 0
M  V30 13 C 2.914498 2.076661 0.479776 0
M  V30 14 F 2.396924 3.200190 -0.037377 0
M  V30 15 N -0.175561 2.210700 0.634901 0
M  V30 16 C -1.515877 2.177646 0.711903 0
M  V30 17 C -2.306423 3.199661 0.336301 0
M  V30 18 C -1.981365 4.503950 -0.185673 0
M  V30 19 C -0.720246 5.003228 -0.379746 0
M  V30 20 C -0.739485 6.273722 -0.888893 0
M  V30 21 C -2.087983 6.517879 -0.992902 0
M  V30 22 O -2.749240 5.475075 -0.578162 0
M  V30 23 C -3.741095 2.924423 0.510363 0
M  V30 24 S -3.749543 1.176777 1.213676 0
M  V30 25 C -1.993174 0.998977 1.207438 0
M  V30 26 C -0.330112 -4.540394 1.837720 0
M  V30 27 C 0.092868 -5.390760 0.720917 0
M  V30 28 C 1.362931 -5.441509 0.212438 0
M  V30 29 C 1.661503 -6.278743 -0.848237 0
M  V30 30 C 0.739341 -7.102394 -1.460253 0
M  V30 31 C -0.540447 -7.057877 -0.955386 0
M  V30 32 C -0.830674 -6.222862 0.099795 0
M  V30 33 H -0.118443 -2.161615 -0.300825 0
M  V30 34 H 1.127150 -2.662836 0.802511 0
M  V30 35 H -1.694659 -3.409270 0.693913 0
M  V30 36 H -0.449596 -2.142340 3.199318 0
M  V30 37 H -2.016481 -3.037988 3.199241 0
M  V30 38 H -2.972977 -1.228505 2.195608 0
M  V30 39 H 2.209850 -0.827855 1.895821 0
M  V30 40 H 4.579661 -0.943655 1.834282 0
M  V30 41 H 4.888936 2.785384 0.046836 0
M  V30 42 H 0.171008 4.448411 -0.149304 0
M  V30 43 H 0.023345 6.963165 -1.161658 0
M  V30 44 H -2.654036 7.374693 -1.338798 0
M  V30 45 H -4.614200 3.668916 0.250106 0
M  V30 46 H 0.433176 -4.499610 2.618449 0
M  V30 47 H -1.219692 -5.031723 2.319090 0
M  V30 48 H 2.130597 -4.828746 0.640571 0
M  V30 49 H 2.686972 -6.289191 -1.223954 0
M  V30 50 H 1.029502 -7.723873 -2.271959 0
M  V30 51 H -1.274021 -7.693615 -1.420103 0
M  V30 52 H -1.879124 -6.270132 0.417764 0
M  V30 END ATOM
M  V30 BEGIN BOND
M  V30 1 1 1 2
M  V30 2 1 2 3
M  V30 3 1 3 4
M  V30 4 1 4 5
M  V30 5 2 5 6
M  V30 6 1 6 7
M  V30 7 1 7 8
M  V30 8 2 8 9
M  V30 9 1 9 10
M  V30 10 2 10 11
M  V30 11 1 11 12
M  V30 12 2 12 13
M  V30 13 1 13 14
M  V30 14 2 7 15
M  V30 15 1 15 16
M  V30 16 1 16 17
M  V30 17 1 17 18
M  V30 18 2 18 19
M  V30 19 1 19 20
M  V30 20 2 20 21
M  V30 21 1 21 22
M  V30 22 2 17 23
M  V30 23 1 23 24
M  V30 24 1 24 25
M  V30 25 1 2 26
M  V30 26 1 26 27
M  V30 27 2 27 28
M  V30 28 1 28 29
M  V30 29 2 29 30
M  V30 30 1 30 31
M  V30 31 2 31 32
M  V30 32 1 25 5
M  V30 33 1 32 27
M  V30 34 1 13 8
M  V30 35 2 25 16
M  V30 36 1 22 18
M  V30 37 1 1 33
M  V30 38 1 1 34
M  V30 39 1 2 35 CFG=3
M  V30 40 1 3 36
M  V30 41 1 3 37
M  V30 42 1 4 38
M  V30 43 1 9 39
M  V30 44 1 10 40
M  V30 45 1 12 41
M  V30 46 1 19 42
M  V30 47 1 20 43
M  V30 48 1 21 44
M  V30 49 1 23 45
M  V30 50 1 26 46
M  V30 51 1 26 47
M  V30 52 1 28 48
M  V30 53 1 29 49
M  V30 54 1 30 50
M  V30 55 1 31 51
M  V30 56 1 32 52
M  V30 END BOND
M  V30 END CTAB
M  END
>  <Dataset>  (681) 
ChEMBL_Kinases

>  <Ligand_Instance>  (681) 
nan

>  <PDB_ID>  (681) 
nan

>  <Standardized_SMILES>  (681) 
N[C@H](CNc1nc(-c2ccncc2F)nc2c(-c3ccco3)csc12)Cc1ccccc1

>  <Name>  (681) 
nan

>  <Pocket>  (681) 
nan

>  <ATP_Site>  (681) 
nan

>  <Peripheral>  (681) 
nan

>  <Num_H_Atoms_ProtBoundConf>  (681) 
nan

>  <Num_Resolved_Atoms>  (681) 
nan

>  <Num_Not_Resolved_Atoms>  (681) 
nan

$$$$
CHEMBL3730046
     RDKit          3D

  0  0  0  0  0  0  0  0  0  0999 V3000
M  V30 BEGIN CTAB
M  V30 COUNTS 46 50 0 0 0
M  V30 BEGIN ATOM
M  V30 1 C 0.308255 -7.441056 0.797202 0
M  V30 2 C 0.127498 -6.650258 1.937474 0
M  V30 3 C 0.142983 -5.261115 1.865598 0
M  V30 4 C 0.347580 -4.771545 0.599487 0
M  V30 5 C 0.384529 -3.295334 0.395518 0
M  V30 6 C 0.557792 -2.470726 -0.669621 0
M  V30 7 C 0.516629 -1.134086 -0.389393 0
M  V30 8 N 0.670420 -0.155709 -1.330543 0
M  V30 9 C 0.620288 1.131410 -0.995381 0
M  V30 10 C 0.794247 2.130440 -2.062060 0
M  V30 11 C 1.003254 1.754203 -3.371314 0
M  V30 12 C 1.174140 2.640070 -4.421005 0
M  V30 13 N 1.129493 3.955197 -4.119833 0
M  V30 14 C 0.926244 4.347519 -2.846168 0
M  V30 15 C 0.756389 3.458154 -1.802971 0
M  V30 16 N 0.418515 1.609685 0.270546 0
M  V30 17 C 0.262489 0.642577 1.225830 0
M  V30 18 N 0.042229 0.920036 2.603453 0
M  V30 19 C -1.159167 0.458293 3.276515 0
M  V30 20 C -1.971960 1.667995 3.638258 0
M  V30 21 N -1.194350 2.824182 3.986715 0
M  V30 22 C 0.134897 2.512656 4.465784 0
M  V30 23 C 0.918185 1.663295 3.520972 0
M  V30 24 C 0.311733 -0.674227 0.895671 0
M  V30 25 S 0.153783 -2.150220 1.853841 0
M  V30 26 C 0.533580 -5.461772 -0.571665 0
M  V30 27 C 0.510700 -6.856611 -0.453827 0
M  V30 28 H 0.284957 -8.522847 0.923142 0
M  V30 29 H -0.027147 -7.138034 2.892396 0
M  V30 30 H 0.007685 -4.630984 2.719773 0
M  V30 31 H 0.707477 -2.968241 -1.611305 0
M  V30 32 H 1.032190 0.673867 -3.570456 0
M  V30 33 H 1.334798 2.288237 -5.428507 0
M  V30 34 H 0.883186 5.401347 -2.559418 0
M  V30 35 H 0.593735 3.777952 -0.783585 0
M  V30 36 H -1.792266 -0.166376 2.619790 0
M  V30 37 H -0.837060 -0.067907 4.191874 0
M  V30 38 H -2.582155 1.942450 2.740472 0
M  V30 39 H -2.716477 1.396917 4.413478 0
M  V30 40 H -1.702571 3.293993 4.774611 0
M  V30 41 H 0.133876 2.087548 5.479033 0
M  V30 42 H 0.657353 3.504701 4.547345 0
M  V30 43 H 1.503507 0.930046 4.110651 0
M  V30 44 H 1.655356 2.267873 2.947859 0
M  V30 45 H 0.689183 -5.002793 -1.533031 0
M  V30 46 H 0.642294 -7.507268 -1.285304 0
M  V30 END ATOM
M  V30 BEGIN BOND
M  V30 1 2 1 2
M  V30 2 1 2 3
M  V30 3 2 3 4
M  V30 4 1 4 5
M  V30 5 2 5 6
M  V30 6 1 6 7
M  V30 7 2 7 8
M  V30 8 1 8 9
M  V30 9 1 9 10
M  V30 10 2 10 11
M  V30 11 1 11 12
M  V30 12 2 12 13
M  V30 13 1 13 14
M  V30 14 2 14 15
M  V30 15 2 9 16
M  V30 16 1 16 17
M  V30 17 1 17 18
M  V30 18 1 18 19
M  V30 19 1 19 20
M  V30 20 1 20 21
M  V30 21 1 21 22
M  V30 22 1 22 23
M  V30 23 2 17 24
M  V30 24 1 24 25
M  V30 25 1 4 26
M  V30 26 2 26 27
M  V30 27 1 27 1
M  V30 28 1 25 5
M  V30 29 1 24 7
M  V30 30 1 15 10
M  V30 31 1 23 18
M  V30 32 1 1 28
M  V30 33 1 2 29
M  V30 34 1 3 30
M  V30 35 1 6 31
M  V30 36 1 11 32
M  V30 37 1 12 33
M  V30 38 1 14 34
M  V30 39 1 15 35
M  V30 40 1 19 36
M  V30 41 1 19 37
M  V30 42 1 20 38
M  V30 43 1 20 39
M  V30 44 1 21 40
M  V30 45 1 22 41
M  V30 46 1 22 42
M  V30 47 1 23 43
M  V30 48 1 23 44
M  V30 49 1 26 45
M  V30 50 1 27 46
M  V30 END BOND
M  V30 END CTAB
M  END
>  <Dataset>  (682) 
ChEMBL_Kinases

>  <Ligand_Instance>  (682) 
nan

>  <PDB_ID>  (682) 
nan

>  <Standardized_SMILES>  (682) 
c1ccc(-c2cc3nc(-c4ccncc4)nc(N4CCNCC4)c3s2)cc1

>  <Name>  (682) 
nan

>  <Pocket>  (682) 
nan

>  <ATP_Site>  (682) 
nan

>  <Peripheral>  (682) 
nan

>  <Num_H_Atoms_ProtBoundConf>  (682) 
nan

>  <Num_Resolved_Atoms>  (682) 
nan

>  <Num_Not_Resolved_Atoms>  (682) 
nan

$$$$
CHEMBL3729908
     RDKit          3D

  0  0  0  0  0  0  0  0  0  0999 V3000
M  V30 BEGIN CTAB
M  V30 COUNTS 46 50 0 0 0
M  V30 BEGIN ATOM
M  V30 1 C -2.278729 -3.221325 -1.033930 0
M  V30 2 C -0.951070 -2.519434 -0.920694 0
M  V30 3 C 0.007874 -2.759079 -1.860540 0
M  V30 4 C 0.148692 -3.551641 -3.034720 0
M  V30 5 C -0.750863 -4.407783 -3.631277 0
M  V30 6 C -0.256030 -5.008180 -4.768572 0
M  V30 7 N 0.978427 -4.485717 -4.842333 0
M  V30 8 N 1.230680 -3.649650 -3.859819 0
M  V30 9 S 1.396374 -1.722462 -1.328037 0
M  V30 10 C 0.597201 -1.047018 0.106221 0
M  V30 11 C 1.071204 -0.146202 1.036458 0
M  V30 12 N 2.388527 0.343596 0.867766 0
M  V30 13 C 2.872306 1.275713 1.831635 0 CFG=2
M  V30 14 C 1.997572 2.498911 1.825837 0
M  V30 15 C 2.922121 3.603642 2.212400 0
M  V30 16 N 4.275182 3.158948 2.083002 0
M  V30 17 C 4.235269 1.818553 1.534344 0
M  V30 18 N 0.256535 0.211469 2.045762 0
M  V30 19 C -0.983339 -0.369037 2.042567 0
M  V30 20 C -1.964379 -0.051096 3.103679 0
M  V30 21 C -1.566477 0.843322 4.073741 0
M  V30 22 C -2.445690 1.172364 5.085069 0
M  V30 23 N -3.684355 0.661819 5.176831 0
M  V30 24 C -4.061887 -0.220484 4.210350 0
M  V30 25 C -3.221467 -0.586627 3.173006 0
M  V30 26 N -1.414737 -1.242033 1.123212 0
M  V30 27 C -0.662686 -1.648909 0.086531 0
M  V30 28 H -2.974763 -2.934173 -0.213718 0
M  V30 29 H -2.770543 -2.939832 -1.963570 0
M  V30 30 H -2.188138 -4.305777 -0.977860 0
M  V30 31 H -1.751949 -4.623826 -3.287358 0
M  V30 32 H -0.734489 -5.706957 -5.418823 0
M  V30 33 H 2.146671 -3.156977 -3.770933 0
M  V30 34 H 2.992555 0.060467 0.098064 0
M  V30 35 H 2.920075 0.805679 2.852100 0
M  V30 36 H 1.176106 2.339428 2.552784 0
M  V30 37 H 1.611888 2.602369 0.778233 0
M  V30 38 H 2.762428 4.447020 1.510917 0
M  V30 39 H 2.666416 3.889603 3.273627 0
M  V30 40 H 4.724846 3.195771 3.014187 0
M  V30 41 H 5.015932 1.218569 2.037857 0
M  V30 42 H 4.468602 1.861726 0.455184 0
M  V30 43 H -0.586365 1.301229 4.074937 0
M  V30 44 H -2.149217 1.871118 5.852100 0
M  V30 45 H -5.057457 -0.634282 4.279384 0
M  V30 46 H -3.520555 -1.289287 2.402303 0
M  V30 END ATOM
M  V30 BEGIN BOND
M  V30 1 1 1 2
M  V30 2 2 2 3
M  V30 3 1 3 4
M  V30 4 2 4 5
M  V30 5 1 5 6
M  V30 6 2 6 7
M  V30 7 1 7 8
M  V30 8 1 3 9
M  V30 9 1 9 10
M  V30 10 2 10 11
M  V30 11 1 11 12
M  V30 12 1 12 13
M  V30 13 1 13 14
M  V30 14 1 14 15
M  V30 15 1 15 16
M  V30 16 1 16 17
M  V30 17 1 11 18
M  V30 18 2 18 19
M  V30 19 1 19 20
M  V30 20 2 20 21
M  V30 21 1 21 22
M  V30 22 2 22 23
M  V30 23 1 23 24
M  V30 24 2 24 25
M  V30 25 1 19 26
M  V30 26 2 26 27
M  V30 27 1 27 2
M  V30 28 1 8 4
M  V30 29 1 27 10
M  V30 30 1 17 13
M  V30 31 1 25 20
M  V30 32 1 1 28
M  V30 33 1 1 29
M  V30 34 1 1 30
M  V30 35 1 5 31
M  V30 36 1 6 32
M  V30 37 1 8 33
M  V30 38 1 12 34
M  V30 39 1 13 35 CFG=1
M  V30 40 1 14 36
M  V30 41 1 14 37
M  V30 42 1 15 38
M  V30 43 1 15 39
M  V30 44 1 16 40
M  V30 45 1 17 41
M  V30 46 1 17 42
M  V30 47 1 21 43
M  V30 48 1 22 44
M  V30 49 1 24 45
M  V30 50 1 25 46
M  V30 END BOND
M  V30 END CTAB
M  END
>  <Dataset>  (683) 
ChEMBL_Kinases

>  <Ligand_Instance>  (683) 
nan

>  <PDB_ID>  (683) 
nan

>  <Standardized_SMILES>  (683) 
Cc1c(-c2ccn[nH]2)sc2c(N[C@@H]3CCNC3)nc(-c3ccncc3)nc12

>  <Name>  (683) 
nan

>  <Pocket>  (683) 
nan

>  <ATP_Site>  (683) 
nan

>  <Peripheral>  (683) 
nan

>  <Num_H_Atoms_ProtBoundConf>  (683) 
nan

>  <Num_Resolved_Atoms>  (683) 
nan

>  <Num_Not_Resolved_Atoms>  (683) 
nan

$$$$
CHEMBL3704390
     RDKit          3D

  0  0  0  0  0  0  0  0  0  0999 V3000
M  V30 BEGIN CTAB
M  V30 COUNTS 62 67 0 0 0
M  V30 BEGIN ATOM
M  V30 1 C 5.134599 0.169598 7.040510 0
M  V30 2 N 4.417514 -0.041913 5.821353 0
M  V30 3 C 5.048192 0.587616 4.683268 0
M  V30 4 C 4.341934 0.300548 3.395753 0
M  V30 5 C 2.989386 0.957321 3.532517 0
M  V30 6 N 2.254400 1.567326 2.641113 0
M  V30 7 C 1.232727 2.069974 2.723792 0
M  V30 8 N 0.460018 2.741680 1.678205 0
M  V30 9 C -0.391985 1.837508 1.021588 0
M  V30 10 O -0.335859 0.652166 1.445729 0
M  V30 11 C -1.276283 2.243242 -0.071865 0
M  V30 12 C -1.280974 3.541339 -0.536079 0
M  V30 13 C -2.142638 3.846531 -1.575450 0
M  V30 14 C -2.970510 2.898433 -2.134508 0
M  V30 15 C -2.980037 1.597787 -1.684224 0
M  V30 16 C -3.776316 0.429304 -2.141100 0 CFG=1
M  V30 17 C -4.369102 0.603424 -3.510599 0
M  V30 18 C -3.294041 -0.005867 -4.390233 0
M  V30 19 C -2.202557 -0.453189 -3.412002 0
M  V30 20 N -2.965219 -0.771841 -2.207712 0
M  V30 21 C -3.032579 -1.850384 -1.270519 0
M  V30 22 O -3.845131 -1.803907 -0.293822 0
M  V30 23 C -2.262973 -3.076829 -1.259646 0
M  V30 24 C -0.911297 -3.338984 -1.163169 0
M  V30 25 N -0.751292 -4.678051 -1.200551 0
M  V30 26 C 0.345412 -5.454417 -1.141279 0
M  V30 27 C 0.278891 -6.839545 -1.196266 0
M  V30 28 C -0.943452 -7.447831 -1.315239 0
M  V30 29 C -1.124226 -8.869670 -1.379000 0
M  V30 30 N -1.266388 -10.023977 -1.434895 0
M  V30 31 C -2.071533 -6.657340 -1.376504 0
M  V30 32 C -1.947631 -5.282078 -1.317255 0
M  V30 33 N -2.856695 -4.288226 -1.351748 0
M  V30 34 C -2.121573 1.282776 -0.645320 0
M  V30 35 S 0.924684 1.744722 4.573491 0
M  V30 36 C 2.431038 0.911427 4.805023 0
M  V30 37 C 3.042787 0.286969 5.995099 0
M  V30 38 H 4.539501 -0.186912 7.894569 0
M  V30 39 H 6.100234 -0.389843 7.078974 0
M  V30 40 H 5.305914 1.247484 7.187051 0
M  V30 41 H 5.068855 1.677020 4.864634 0
M  V30 42 H 6.088027 0.207935 4.619770 0
M  V30 43 H 4.173889 -0.793086 3.350156 0
M  V30 44 H 4.927601 0.696464 2.565405 0
M  V30 45 H 0.509278 3.750562 1.430603 0
M  V30 46 H -0.649736 4.314882 -0.128266 0
M  V30 47 H -2.226495 4.834213 -2.015297 0
M  V30 48 H -3.654993 3.098116 -2.943483 0
M  V30 49 H -4.552783 0.268146 -1.370373 0
M  V30 50 H -5.297543 -0.038702 -3.539955 0
M  V30 51 H -4.680125 1.601927 -3.778228 0
M  V30 52 H -2.932834 0.794719 -5.062403 0
M  V30 53 H -3.697550 -0.890724 -4.926295 0
M  V30 54 H -1.600792 -1.278637 -3.787693 0
M  V30 55 H -1.551151 0.434917 -3.244467 0
M  V30 56 H -0.175102 -2.556477 -1.075983 0
M  V30 57 H 1.332327 -4.990063 -1.045948 0
M  V30 58 H 1.156698 -7.484930 -1.149469 0
M  V30 59 H -3.068515 -7.076826 -1.471214 0
M  V30 60 H -2.045188 0.282425 -0.209068 0
M  V30 61 H 2.845311 0.934496 6.884639 0
M  V30 62 H 2.502699 -0.664992 6.207594 0
M  V30 END ATOM
M  V30 BEGIN BOND
M  V30 1 1 1 2
M  V30 2 1 2 3
M  V30 3 1 3 4
M  V30 4 1 4 5
M  V30 5 1 5 6
M  V30 6 2 6 7
M  V30 7 1 7 8
M  V30 8 1 8 9
M  V30 9 2 9 10
M  V30 10 1 9 11
M  V30 11 2 11 12
M  V30 12 1 12 13
M  V30 13 2 13 14
M  V30 14 1 14 15
M  V30 15 1 15 16
M  V30 16 1 16 17
M  V30 17 1 17 18
M  V30 18 1 18 19
M  V30 19 1 19 20
M  V30 20 1 20 21
M  V30 21 2 21 22
M  V30 22 1 21 23
M  V30 23 2 23 24
M  V30 24 1 24 25
M  V30 25 1 25 26
M  V30 26 2 26 27
M  V30 27 1 27 28
M  V30 28 1 28 29
M  V30 29 3 29 30
M  V30 30 2 28 31
M  V30 31 1 31 32
M  V30 32 2 32 33
M  V30 33 2 15 34
M  V30 34 1 7 35
M  V30 35 1 35 36
M  V30 36 1 36 37
M  V30 37 1 37 2
M  V30 38 2 36 5
M  V30 39 1 34 11
M  V30 40 1 20 16
M  V30 41 1 33 23
M  V30 42 1 32 25
M  V30 43 1 1 38
M  V30 44 1 1 39
M  V30 45 1 1 40
M  V30 46 1 3 41
M  V30 47 1 3 42
M  V30 48 1 4 43
M  V30 49 1 4 44
M  V30 50 1 8 45
M  V30 51 1 12 46
M  V30 52 1 13 47
M  V30 53 1 14 48
M  V30 54 1 16 49 CFG=1
M  V30 55 1 17 50
M  V30 56 1 17 51
M  V30 57 1 18 52
M  V30 58 1 18 53
M  V30 59 1 19 54
M  V30 60 1 19 55
M  V30 61 1 24 56
M  V30 62 1 26 57
M  V30 63 1 27 58
M  V30 64 1 31 59
M  V30 65 1 34 60
M  V30 66 1 37 61
M  V30 67 1 37 62
M  V30 END BOND
M  V30 END CTAB
M  END
>  <Dataset>  (684) 
ChEMBL_Kinases

>  <Ligand_Instance>  (684) 
nan

>  <PDB_ID>  (684) 
nan

>  <Standardized_SMILES>  (684) 
CN1CCc2nc(NC(=O)c3cccc([C@H]4CCCN4C(=O)c4cn5ccc(C#N)cc5n4)c3)sc2C1

>  <Name>  (684) 
nan

>  <Pocket>  (684) 
nan

>  <ATP_Site>  (684) 
nan

>  <Peripheral>  (684) 
nan

>  <Num_H_Atoms_ProtBoundConf>  (684) 
nan

>  <Num_Resolved_Atoms>  (684) 
nan

>  <Num_Not_Resolved_Atoms>  (684) 
nan

$$$$
CHEMBL373001
     RDKit          3D

  0  0  0  0  0  0  0  0  0  0999 V3000
M  V30 BEGIN CTAB
M  V30 COUNTS 32 34 0 0 0
M  V30 BEGIN ATOM
M  V30 1 C -2.088623 -5.109401 2.132344 0
M  V30 2 C -0.637457 -5.006016 1.833685 0
M  V30 3 N 0.263038 -5.955377 2.133198 0
M  V30 4 N 1.473251 -5.652165 1.780585 0
M  V30 5 C 1.355315 -4.422786 1.212981 0
M  V30 6 S 2.284693 -3.031393 0.388211 0
M  V30 7 C 0.844307 -2.033871 0.158353 0
M  V30 8 C 0.912887 -0.729856 -0.476535 0
M  V30 9 O 2.042088 -0.331146 -0.860794 0
M  V30 10 N -0.256512 0.044394 -0.645775 0
M  V30 11 C -0.326544 1.372731 -1.268088 0
M  V30 12 C 0.179725 2.413006 -0.344005 0
M  V30 13 C 1.475662 2.863407 -0.238041 0
M  V30 14 C 1.801460 3.838730 0.671214 0
M  V30 15 C 0.880374 4.424180 1.522970 0
M  V30 16 C -0.445467 3.986029 1.437773 0
M  V30 17 C -0.732383 3.004111 0.511163 0
M  V30 18 C -0.203666 -2.725806 0.669008 0
M  V30 19 C 0.005004 -3.957617 1.222168 0
M  V30 20 H -2.616087 -4.964543 1.144721 0
M  V30 21 H -2.431225 -4.354039 2.870035 0
M  V30 22 H -2.362251 -6.103036 2.481295 0
M  V30 23 H 2.398971 -6.114666 1.842823 0
M  V30 24 H -1.153258 -0.383575 -0.287601 0
M  V30 25 H -1.356309 1.566396 -1.561605 0
M  V30 26 H 0.358745 1.407562 -2.155422 0
M  V30 27 H 2.195594 2.408439 -0.902217 0
M  V30 28 H 2.843592 4.181489 0.736481 0
M  V30 29 H 1.160703 5.189254 2.229449 0
M  V30 30 H -1.210366 4.404800 2.076222 0
M  V30 31 H -1.779511 2.690765 0.477392 0
M  V30 32 H -1.177865 -2.264299 0.615387 0
M  V30 END ATOM
M  V30 BEGIN BOND
M  V30 1 1 1 2
M  V30 2 2 2 3
M  V30 3 1 3 4
M  V30 4 1 4 5
M  V30 5 1 5 6
M  V30 6 1 6 7
M  V30 7 1 7 8
M  V30 8 2 8 9
M  V30 9 1 8 10
M  V30 10 1 10 11
M  V30 11 1 11 12
M  V30 12 2 12 13
M  V30 13 1 13 14
M  V30 14 2 14 15
M  V30 15 1 15 16
M  V30 16 2 16 17
M  V30 17 2 7 18
M  V30 18 1 18 19
M  V30 19 1 19 2
M  V30 20 2 19 5
M  V30 21 1 17 12
M  V30 22 1 1 20
M  V30 23 1 1 21
M  V30 24 1 1 22
M  V30 25 1 4 23
M  V30 26 1 10 24
M  V30 27 1 11 25
M  V30 28 1 11 26
M  V30 29 1 13 27
M  V30 30 1 14 28
M  V30 31 1 15 29
M  V30 32 1 16 30
M  V30 33 1 17 31
M  V30 34 1 18 32
M  V30 END BOND
M  V30 END CTAB
M  END
>  <Dataset>  (685) 
ChEMBL_Kinases

>  <Ligand_Instance>  (685) 
nan

>  <PDB_ID>  (685) 
nan

>  <Standardized_SMILES>  (685) 
Cc1n[nH]c2sc(C(=O)NCc3ccccc3)cc12

>  <Name>  (685) 
nan

>  <Pocket>  (685) 
nan

>  <ATP_Site>  (685) 
nan

>  <Peripheral>  (685) 
nan

>  <Num_H_Atoms_ProtBoundConf>  (685) 
nan

>  <Num_Resolved_Atoms>  (685) 
nan

>  <Num_Not_Resolved_Atoms>  (685) 
nan

$$$$
CHEMBL3729990
     RDKit          3D

  0  0  0  0  0  0  0  0  0  0999 V3000
M  V30 BEGIN CTAB
M  V30 COUNTS 31 33 0 0 0
M  V30 BEGIN ATOM
M  V30 1 N -1.117002 -4.238196 3.887917 0
M  V30 2 C 0.259027 -3.833990 3.749891 0
M  V30 3 O 0.332559 -4.721988 4.620779 0
M  V30 4 C 0.546628 -2.760392 2.765994 0
M  V30 5 N -0.654541 -2.305767 2.106644 0
M  V30 6 C -0.498246 -1.282804 1.145368 0
M  V30 7 N 0.682182 -0.726905 0.822829 0
M  V30 8 C 0.637387 0.253814 -0.134593 0
M  V30 9 C 1.889842 0.925487 -0.556077 0
M  V30 10 C 3.049950 0.511946 0.056110 0
M  V30 11 C 4.247197 1.122740 -0.316523 0
M  V30 12 N 4.275287 2.087585 -1.245417 0
M  V30 13 C 3.129774 2.479256 -1.833780 0
M  V30 14 C 1.892002 1.913929 -1.512557 0
M  V30 15 N -0.499739 0.646637 -0.722417 0
M  V30 16 C -1.696246 0.110180 -0.421630 0
M  V30 17 C -2.837381 0.526528 -1.032980 0
M  V30 18 Br -3.134633 1.852041 -2.370241 0
M  V30 19 C -4.015799 -0.180796 -0.563513 0
M  V30 20 S -3.324682 -1.384795 0.728041 0
M  V30 21 C -1.674595 -0.866215 0.527386 0
M  V30 22 H -2.155117 -4.342487 4.093633 0
M  V30 23 H -2.153929 -4.328006 4.100714 0
M  V30 24 H 1.159334 -1.938630 3.166909 0
M  V30 25 H 1.159461 -3.247229 1.953936 0
M  V30 26 H -1.562880 -2.741607 2.362425 0
M  V30 27 H 3.047135 -0.269995 0.812540 0
M  V30 28 H 5.154947 0.769527 0.191187 0
M  V30 29 H 3.143597 3.253468 -2.580754 0
M  V30 30 H 0.977081 2.213334 -1.969492 0
M  V30 31 H -5.103965 -0.020985 -0.916864 0
M  V30 END ATOM
M  V30 BEGIN BOND
M  V30 1 1 1 2
M  V30 2 2 2 3
M  V30 3 1 2 4
M  V30 4 1 4 5
M  V30 5 1 5 6
M  V30 6 2 6 7
M  V30 7 1 7 8
M  V30 8 1 8 9
M  V30 9 2 9 10
M  V30 10 1 10 11
M  V30 11 2 11 12
M  V30 12 1 12 13
M  V30 13 2 13 14
M  V30 14 2 8 15
M  V30 15 1 15 16
M  V30 16 1 16 17
M  V30 17 1 17 18
M  V30 18 2 17 19
M  V30 19 1 19 20
M  V30 20 1 20 21
M  V30 21 1 21 6
M  V30 22 1 14 9
M  V30 23 2 21 16
M  V30 24 1 1 22
M  V30 25 1 1 23
M  V30 26 1 4 24
M  V30 27 1 4 25
M  V30 28 1 5 26
M  V30 29 1 10 27
M  V30 30 1 11 28
M  V30 31 1 13 29
M  V30 32 1 14 30
M  V30 33 1 19 31
M  V30 END BOND
M  V30 END CTAB
M  END
>  <Dataset>  (686) 
ChEMBL_Kinases

>  <Ligand_Instance>  (686) 
nan

>  <PDB_ID>  (686) 
nan

>  <Standardized_SMILES>  (686) 
NC(=O)CNc1nc(-c2ccncc2)nc2c(Br)csc12

>  <Name>  (686) 
nan

>  <Pocket>  (686) 
nan

>  <ATP_Site>  (686) 
nan

>  <Peripheral>  (686) 
nan

>  <Num_H_Atoms_ProtBoundConf>  (686) 
nan

>  <Num_Resolved_Atoms>  (686) 
nan

>  <Num_Not_Resolved_Atoms>  (686) 
nan

$$$$
CHEMBL523921
     RDKit          3D

  0  0  0  0  0  0  0  0  0  0999 V3000
M  V30 BEGIN CTAB
M  V30 COUNTS 28 30 0 0 0
M  V30 BEGIN ATOM
M  V30 1 O -0.671442 0.384092 4.610606 0
M  V30 2 C 0.185657 -0.535979 4.637313 0
M  V30 3 O 0.781482 -0.830600 5.853384 0
M  V30 4 C 0.596508 -1.318180 3.465853 0
M  V30 5 C 0.209620 -1.267950 2.186680 0
M  V30 6 C 0.728350 -2.098343 1.253286 0
M  V30 7 C 0.476697 -2.217394 -0.099610 0
M  V30 8 O -0.435824 -1.426664 -0.780953 0
M  V30 9 C -0.389024 -0.066458 -0.897009 0
M  V30 10 C 0.510763 0.869087 -0.432956 0
M  V30 11 C 0.324592 2.206084 -0.692104 0
M  V30 12 C -0.743511 2.682940 -1.412237 0
M  V30 13 I -0.913089 4.753472 -1.739151 0
M  V30 14 C -1.673136 1.756902 -1.896090 0
M  V30 15 C -1.486147 0.394673 -1.633698 0
M  V30 16 C 1.170796 -3.174052 -0.806829 0
M  V30 17 N 2.106688 -4.052269 -0.338688 0
M  V30 18 C 2.375085 -3.960732 0.981507 0
M  V30 19 C 1.696227 -3.005517 1.741054 0
M  V30 20 S 1.808988 -2.625436 3.483727 0
M  V30 21 H 0.409899 -0.542519 6.744822 0
M  V30 22 H -0.552489 -0.514436 1.938846 0
M  V30 23 H 1.313540 0.419462 0.116280 0
M  V30 24 H 1.111750 2.826622 -0.264973 0
M  V30 25 H -2.496741 2.148393 -2.453942 0
M  V30 26 H -2.291295 -0.212352 -2.073544 0
M  V30 27 H 0.971859 -3.269407 -1.880302 0
M  V30 28 H 3.079802 -4.576426 1.491338 0
M  V30 END ATOM
M  V30 BEGIN BOND
M  V30 1 2 1 2
M  V30 2 1 2 3
M  V30 3 1 2 4
M  V30 4 2 4 5
M  V30 5 1 5 6
M  V30 6 2 6 7
M  V30 7 1 7 8
M  V30 8 1 8 9
M  V30 9 2 9 10
M  V30 10 1 10 11
M  V30 11 2 11 12
M  V30 12 1 12 13
M  V30 13 1 12 14
M  V30 14 2 14 15
M  V30 15 1 7 16
M  V30 16 2 16 17
M  V30 17 1 17 18
M  V30 18 2 18 19
M  V30 19 1 19 20
M  V30 20 1 20 4
M  V30 21 1 19 6
M  V30 22 1 15 9
M  V30 23 1 3 21
M  V30 24 1 5 22
M  V30 25 1 10 23
M  V30 26 1 11 24
M  V30 27 1 14 25
M  V30 28 1 15 26
M  V30 29 1 16 27
M  V30 30 1 18 28
M  V30 END BOND
M  V30 END CTAB
M  END
>  <Dataset>  (687) 
ChEMBL_Kinases

>  <Ligand_Instance>  (687) 
nan

>  <PDB_ID>  (687) 
nan

>  <Standardized_SMILES>  (687) 
O=C(O)c1cc2c(Oc3ccc(I)cc3)cncc2s1

>  <Name>  (687) 
nan

>  <Pocket>  (687) 
nan

>  <ATP_Site>  (687) 
nan

>  <Peripheral>  (687) 
nan

>  <Num_H_Atoms_ProtBoundConf>  (687) 
nan

>  <Num_Resolved_Atoms>  (687) 
nan

>  <Num_Not_Resolved_Atoms>  (687) 
nan

$$$$
CHEMBL3729958
     RDKit          3D

  0  0  0  0  0  0  0  0  0  0999 V3000
M  V30 BEGIN CTAB
M  V30 COUNTS 45 49 0 0 0
M  V30 BEGIN ATOM
M  V30 1 C 0.308648 -6.130658 -1.881362 0
M  V30 2 C 0.137464 -5.223661 -0.855180 0
M  V30 3 C 0.432180 -3.898717 -1.097025 0
M  V30 4 C 0.263175 -2.916710 -0.037768 0
M  V30 5 N 0.517469 -1.610605 -0.159762 0
M  V30 6 C 0.375307 -0.680829 0.786428 0
M  V30 7 O 0.682245 0.616928 0.491744 0
M  V30 8 C 1.143489 1.095374 -0.730435 0 CFG=1
M  V30 9 C 0.233766 2.208240 -1.218877 0
M  V30 10 C 1.166118 2.938138 -2.160140 0
M  V30 11 N 2.473992 2.895167 -1.542074 0
M  V30 12 C 2.460430 1.814865 -0.574922 0
M  V30 13 C -0.076223 -1.058130 2.030133 0
M  V30 14 C -0.293171 -0.280394 3.135010 0
M  V30 15 C -0.753725 -0.878076 4.291170 0
M  V30 16 S -0.906744 -2.573778 3.883445 0
M  V30 17 C -0.351349 -2.426977 2.185509 0
M  V30 18 N -0.178785 -3.301864 1.171176 0
M  V30 19 C -1.011191 -0.097716 5.524884 0
M  V30 20 C -1.926132 1.032732 5.106968 0
M  V30 21 C -1.389382 1.789064 3.922643 0
M  V30 22 C -0.125583 1.179610 3.367095 0
M  V30 23 C 0.888835 -3.463834 -2.326557 0
M  V30 24 C 1.031900 -4.447174 -3.303197 0
M  V30 25 N 0.756712 -5.755871 -3.115187 0
M  V30 26 H 0.079960 -7.172680 -1.701017 0
M  V30 27 H -0.220946 -5.587826 0.097690 0
M  V30 28 H 1.243889 0.287813 -1.480664 0
M  V30 29 H -0.018405 2.817235 -0.330273 0
M  V30 30 H -0.650895 1.802099 -1.748392 0
M  V30 31 H 0.831554 3.957597 -2.362555 0
M  V30 32 H 1.206549 2.348689 -3.100843 0
M  V30 33 H 3.229233 2.776277 -2.263156 0
M  V30 34 H 2.595919 2.265558 0.433242 0
M  V30 35 H 3.333779 1.156600 -0.794870 0
M  V30 36 H -1.653915 -0.755899 6.180525 0
M  V30 37 H -0.126282 0.291434 6.024358 0
M  V30 38 H -2.051711 1.708480 5.974542 0
M  V30 39 H -2.940221 0.669768 4.851362 0
M  V30 40 H -1.109818 2.805211 4.266682 0
M  V30 41 H -2.149489 1.893183 3.128711 0
M  V30 42 H 0.736898 1.348936 4.046514 0
M  V30 43 H 0.108530 1.751819 2.452027 0
M  V30 44 H 1.131297 -2.447539 -2.564403 0
M  V30 45 H 1.393462 -4.114884 -4.283048 0
M  V30 END ATOM
M  V30 BEGIN BOND
M  V30 1 2 1 2
M  V30 2 1 2 3
M  V30 3 1 3 4
M  V30 4 2 4 5
M  V30 5 1 5 6
M  V30 6 1 6 7
M  V30 7 1 7 8
M  V30 8 1 8 9
M  V30 9 1 9 10
M  V30 10 1 10 11
M  V30 11 1 11 12
M  V30 12 2 6 13
M  V30 13 1 13 14
M  V30 14 2 14 15
M  V30 15 1 15 16
M  V30 16 1 16 17
M  V30 17 2 17 18
M  V30 18 1 15 19
M  V30 19 1 19 20
M  V30 20 1 20 21
M  V30 21 1 21 22
M  V30 22 2 3 23
M  V30 23 1 23 24
M  V30 24 2 24 25
M  V30 25 1 25 1
M  V30 26 1 18 4
M  V30 27 1 12 8
M  V30 28 1 17 13
M  V30 29 1 22 14
M  V30 30 1 1 26
M  V30 31 1 2 27
M  V30 32 1 8 28 CFG=3
M  V30 33 1 9 29
M  V30 34 1 9 30
M  V30 35 1 10 31
M  V30 36 1 10 32
M  V30 37 1 11 33
M  V30 38 1 12 34
M  V30 39 1 12 35
M  V30 40 1 19 36
M  V30 41 1 19 37
M  V30 42 1 20 38
M  V30 43 1 20 39
M  V30 44 1 21 40
M  V30 45 1 21 41
M  V30 46 1 22 42
M  V30 47 1 22 43
M  V30 48 1 23 44
M  V30 49 1 24 45
M  V30 END BOND
M  V30 END CTAB
M  END
>  <Dataset>  (688) 
ChEMBL_Kinases

>  <Ligand_Instance>  (688) 
nan

>  <PDB_ID>  (688) 
nan

>  <Standardized_SMILES>  (688) 
c1cc(-c2nc(O[C@H]3CCNC3)c3c4c(sc3n2)CCCC4)ccn1

>  <Name>  (688) 
nan

>  <Pocket>  (688) 
nan

>  <ATP_Site>  (688) 
nan

>  <Peripheral>  (688) 
nan

>  <Num_H_Atoms_ProtBoundConf>  (688) 
nan

>  <Num_Resolved_Atoms>  (688) 
nan

>  <Num_Not_Resolved_Atoms>  (688) 
nan

$$$$
CHEMBL3704391
     RDKit          3D

  0  0  0  0  0  0  0  0  0  0999 V3000
M  V30 BEGIN CTAB
M  V30 COUNTS 61 64 0 0 0
M  V30 BEGIN ATOM
M  V30 1 C 0.494163 -1.591583 5.575275 0
M  V30 2 C 0.173666 -0.317552 4.864598 0 CFG=1
M  V30 3 N 1.258791 0.125576 4.018781 0
M  V30 4 C 2.016339 1.325809 4.075779 0
M  V30 5 O 1.803204 2.215271 4.955564 0
M  V30 6 N 3.035259 1.486145 3.091016 0
M  V30 7 C 3.826768 2.660314 3.092193 0
M  V30 8 C 3.237553 3.647262 2.301639 0
M  V30 9 C 3.817992 4.901752 2.135368 0
M  V30 10 C 5.018047 5.177157 2.775370 0
M  V30 11 C 5.645399 6.440057 2.635074 0
M  V30 12 N 6.167724 7.486863 2.520328 0
M  V30 13 C 5.580644 4.187207 3.550435 0
M  V30 14 C 5.018373 2.942612 3.723947 0
M  V30 15 C -1.119206 -0.388922 4.095547 0
M  V30 16 C -2.318856 0.115687 4.607748 0
M  V30 17 C -3.476499 0.027493 3.864711 0
M  V30 18 C -3.442919 -0.568329 2.598836 0
M  V30 19 C -2.289710 -1.075944 2.058230 0
M  V30 20 C -2.340997 -1.677041 0.736257 0
M  V30 21 O -3.462428 -1.678646 0.172265 0
M  V30 22 N -1.249587 -2.247447 0.052079 0
M  V30 23 C -1.182790 -2.853708 -1.224137 0
M  V30 24 C 0.029910 -3.344467 -1.652582 0
M  V30 25 C 0.171863 -3.945356 -2.882932 0
M  V30 26 C -0.894722 -4.085677 -3.748084 0
M  V30 27 C -2.108594 -3.605618 -3.343541 0
M  V30 28 C -2.219262 -3.009646 -2.107503 0
M  V30 29 C -3.217922 -3.772433 -4.292378 0
M  V30 30 N -2.843125 -3.423328 -5.645040 0
M  V30 31 C -3.914107 -3.593690 -6.571961 0
M  V30 32 C -1.562828 -3.875139 -6.062900 0
M  V30 33 C -0.810213 -4.723793 -5.091868 0
M  V30 34 C -1.164974 -0.959822 2.845963 0
M  V30 35 H 1.534190 -1.957090 5.349654 0
M  V30 36 H -0.197477 -2.401843 5.221784 0
M  V30 37 H 0.377880 -1.516550 6.666264 0
M  V30 38 H -0.014906 0.474889 5.640803 0
M  V30 39 H 1.463600 -0.591290 3.278239 0
M  V30 40 H 3.233915 0.767717 2.351569 0
M  V30 41 H 2.306339 3.572079 1.745864 0
M  V30 42 H 3.412614 5.694447 1.543640 0
M  V30 43 H 6.524142 4.337126 4.081967 0
M  V30 44 H 5.376346 2.110737 4.302807 0
M  V30 45 H -2.245699 0.556226 5.590291 0
M  V30 46 H -4.394819 0.423369 4.277994 0
M  V30 47 H -4.415017 -0.584232 2.099770 0
M  V30 48 H -0.380898 -2.183934 0.625365 0
M  V30 49 H 0.905714 -3.265658 -1.020855 0
M  V30 50 H 1.138055 -4.317023 -3.181676 0
M  V30 51 H -3.195900 -2.656272 -1.852363 0
M  V30 52 H -3.639452 -4.811919 -4.262013 0
M  V30 53 H -4.046605 -3.098108 -3.992815 0
M  V30 54 H -3.583976 -3.752902 -7.613879 0
M  V30 55 H -4.566338 -2.674469 -6.512218 0
M  V30 56 H -4.562791 -4.422400 -6.210170 0
M  V30 57 H -1.683918 -4.465859 -7.013579 0
M  V30 58 H -0.920560 -3.007540 -6.335711 0
M  V30 59 H 0.258419 -4.762387 -5.436839 0
M  V30 60 H -1.153967 -5.780409 -5.091382 0
M  V30 61 H -0.233662 -1.348387 2.458843 0
M  V30 END ATOM
M  V30 BEGIN BOND
M  V30 1 1 1 2
M  V30 2 1 2 3
M  V30 3 1 3 4
M  V30 4 2 4 5
M  V30 5 1 4 6
M  V30 6 1 6 7
M  V30 7 2 7 8
M  V30 8 1 8 9
M  V30 9 2 9 10
M  V30 10 1 10 11
M  V30 11 3 11 12
M  V30 12 1 10 13
M  V30 13 2 13 14
M  V30 14 1 2 15
M  V30 15 2 15 16
M  V30 16 1 16 17
M  V30 17 2 17 18
M  V30 18 1 18 19
M  V30 19 1 19 20
M  V30 20 2 20 21
M  V30 21 1 20 22
M  V30 22 1 22 23
M  V30 23 2 23 24
M  V30 24 1 24 25
M  V30 25 2 25 26
M  V30 26 1 26 27
M  V30 27 2 27 28
M  V30 28 1 27 29
M  V30 29 1 29 30
M  V30 30 1 30 31
M  V30 31 1 30 32
M  V30 32 1 32 33
M  V30 33 2 19 34
M  V30 34 1 14 7
M  V30 35 1 34 15
M  V30 36 1 28 23
M  V30 37 1 33 26
M  V30 38 1 1 35
M  V30 39 1 1 36
M  V30 40 1 1 37
M  V30 41 1 2 38 CFG=1
M  V30 42 1 3 39
M  V30 43 1 6 40
M  V30 44 1 8 41
M  V30 45 1 9 42
M  V30 46 1 13 43
M  V30 47 1 14 44
M  V30 48 1 16 45
M  V30 49 1 17 46
M  V30 50 1 18 47
M  V30 51 1 22 48
M  V30 52 1 24 49
M  V30 53 1 25 50
M  V30 54 1 28 51
M  V30 55 1 29 52
M  V30 56 1 29 53
M  V30 57 1 31 54
M  V30 58 1 31 55
M  V30 59 1 31 56
M  V30 60 1 32 57
M  V30 61 1 32 58
M  V30 62 1 33 59
M  V30 63 1 33 60
M  V30 64 1 34 61
M  V30 END BOND
M  V30 END CTAB
M  END
>  <Dataset>  (689) 
ChEMBL_Kinases

>  <Ligand_Instance>  (689) 
nan

>  <PDB_ID>  (689) 
nan

>  <Standardized_SMILES>  (689) 
C[C@@H](NC(=O)Nc1ccc(C#N)cc1)c1cccc(C(=O)Nc2ccc3c(c2)CN(C)CC3)c1

>  <Name>  (689) 
nan

>  <Pocket>  (689) 
nan

>  <ATP_Site>  (689) 
nan

>  <Peripheral>  (689) 
nan

>  <Num_H_Atoms_ProtBoundConf>  (689) 
nan

>  <Num_Resolved_Atoms>  (689) 
nan

>  <Num_Not_Resolved_Atoms>  (689) 
nan

$$$$
CHEMBL3729940
     RDKit          3D

  0  0  0  0  0  0  0  0  0  0999 V3000
M  V30 BEGIN CTAB
M  V30 COUNTS 47 51 0 0 0
M  V30 BEGIN ATOM
M  V30 1 O -4.336252 -2.420069 3.679100 0
M  V30 2 C -3.711741 -3.420770 3.244039 0
M  V30 3 N -2.550015 -3.357864 2.428765 0
M  V30 4 C -2.028539 -2.063897 2.058884 0
M  V30 5 C -0.907455 -1.924777 1.271912 0
M  V30 6 C -0.435639 -0.674825 0.937012 0
M  V30 7 C 0.753562 -0.476792 0.102112 0
M  V30 8 N 1.140288 0.800330 -0.172926 0
M  V30 9 C 2.233395 0.940179 -0.940319 0
M  V30 10 N 2.798681 2.174900 -1.340488 0
M  V30 11 C 2.054436 3.297360 -0.821310 0 CFG=2
M  V30 12 C 2.652304 4.618467 -1.245207 0
M  V30 13 C 2.485145 5.514587 -0.065493 0
M  V30 14 N 2.170868 4.727444 1.079473 0
M  V30 15 C 2.058936 3.340813 0.685898 0
M  V30 16 C 2.866867 -0.168055 -1.381603 0
M  V30 17 S 4.339651 -0.391764 -2.414366 0
M  V30 18 C 4.312314 -2.292349 -2.389703 0
M  V30 19 C 3.185275 -2.566778 -1.598103 0
M  V30 20 C 2.474561 -1.534132 -1.102394 0
M  V30 21 N 1.375821 -1.581026 -0.331316 0
M  V30 22 C -1.068657 0.466680 1.377585 0
M  V30 23 C -2.204105 0.296440 2.174732 0
M  V30 24 N -2.638214 -0.942130 2.483143 0
M  V30 25 C -4.170551 -4.716946 3.569963 0
M  V30 26 C -3.750719 -5.969558 3.279294 0
M  V30 27 C -4.407235 -7.073751 3.743339 0
M  V30 28 C -5.577091 -6.794618 4.563254 0
M  V30 29 S -5.672132 -4.909244 4.624083 0
M  V30 30 H -2.053155 -4.202270 2.082778 0
M  V30 31 H -0.400524 -2.794098 0.918961 0
M  V30 32 H 3.630900 2.288278 -1.924858 0
M  V30 33 H 1.032281 3.247117 -1.250024 0
M  V30 34 H 2.187185 5.014880 -2.167046 0
M  V30 35 H 3.741717 4.497214 -1.449899 0
M  V30 36 H 1.623935 6.206388 -0.279881 0
M  V30 37 H 3.356454 6.175529 0.134771 0
M  V30 38 H 2.822439 4.786246 1.868794 0
M  V30 39 H 2.882418 2.716950 1.045683 0
M  V30 40 H 1.056908 3.013074 1.031671 0
M  V30 41 H 4.987347 -3.036550 -2.861215 0
M  V30 42 H 2.957446 -3.605232 -1.435243 0
M  V30 43 H -0.769690 1.462400 1.164721 0
M  V30 44 H -2.720014 1.172514 2.533968 0
M  V30 45 H -2.869860 -6.047081 2.661519 0
M  V30 46 H -4.128621 -8.092636 3.551025 0
M  V30 47 H -6.190839 -7.644851 4.996508 0
M  V30 END ATOM
M  V30 BEGIN BOND
M  V30 1 2 1 2
M  V30 2 1 2 3
M  V30 3 1 3 4
M  V30 4 2 4 5
M  V30 5 1 5 6
M  V30 6 1 6 7
M  V30 7 2 7 8
M  V30 8 1 8 9
M  V30 9 1 9 10
M  V30 10 1 10 11
M  V30 11 1 11 12
M  V30 12 1 12 13
M  V30 13 1 13 14
M  V30 14 1 14 15
M  V30 15 2 9 16
M  V30 16 1 16 17
M  V30 17 1 17 18
M  V30 18 2 18 19
M  V30 19 1 19 20
M  V30 20 2 20 21
M  V30 21 2 6 22
M  V30 22 1 22 23
M  V30 23 2 23 24
M  V30 24 1 2 25
M  V30 25 2 25 26
M  V30 26 1 26 27
M  V30 27 2 27 28
M  V30 28 1 28 29
M  V30 29 1 24 4
M  V30 30 1 29 25
M  V30 31 1 21 7
M  V30 32 1 15 11
M  V30 33 1 20 16
M  V30 34 1 3 30
M  V30 35 1 5 31
M  V30 36 1 10 32
M  V30 37 1 11 33 CFG=3
M  V30 38 1 12 34
M  V30 39 1 12 35
M  V30 40 1 13 36
M  V30 41 1 13 37
M  V30 42 1 14 38
M  V30 43 1 15 39
M  V30 44 1 15 40
M  V30 45 1 18 41
M  V30 46 1 19 42
M  V30 47 1 22 43
M  V30 48 1 23 44
M  V30 49 1 26 45
M  V30 50 1 27 46
M  V30 51 1 28 47
M  V30 END BOND
M  V30 END CTAB
M  END
>  <Dataset>  (690) 
ChEMBL_Kinases

>  <Ligand_Instance>  (690) 
nan

>  <PDB_ID>  (690) 
nan

>  <Standardized_SMILES>  (690) 
O=C(Nc1cc(-c2nc(N[C@@H]3CCNC3)c3sccc3n2)ccn1)c1cccs1

>  <Name>  (690) 
nan

>  <Pocket>  (690) 
nan

>  <ATP_Site>  (690) 
nan

>  <Peripheral>  (690) 
nan

>  <Num_H_Atoms_ProtBoundConf>  (690) 
nan

>  <Num_Resolved_Atoms>  (690) 
nan

>  <Num_Not_Resolved_Atoms>  (690) 
nan

$$$$
CHEMBL3729934
     RDKit          3D

  0  0  0  0  0  0  0  0  0  0999 V3000
M  V30 BEGIN CTAB
M  V30 COUNTS 59 64 0 0 0
M  V30 BEGIN ATOM
M  V30 1 Br 3.380375 -6.175446 1.104931 0
M  V30 2 C 3.674466 -4.536635 2.005402 0
M  V30 3 C 3.790239 -4.444163 3.397294 0
M  V30 4 C 4.003701 -3.252030 4.045750 0
M  V30 5 C 4.110316 -2.091748 3.306245 0
M  V30 6 C 4.008078 -2.097683 1.932548 0
M  V30 7 C 4.100153 -0.933085 1.051255 0
M  V30 8 N 2.896869 -0.267681 0.736205 0
M  V30 9 C 2.116688 0.276482 1.766536 0
M  V30 10 C 0.642425 0.310104 1.591902 0
M  V30 11 N 0.218297 0.371807 0.194930 0
M  V30 12 C -1.169039 0.390834 -0.110018 0
M  V30 13 N -1.520040 1.642121 -0.452420 0
M  V30 14 C -2.751848 2.056676 -0.761089 0
M  V30 15 C -3.157427 3.404932 -1.136391 0
M  V30 16 C -2.188225 4.410046 -1.195511 0
M  V30 17 C -2.562507 5.696124 -1.552017 0
M  V30 18 N -3.837128 5.999745 -1.842466 0
M  V30 19 C -4.780233 5.025813 -1.785783 0
M  V30 20 C -4.481878 3.704404 -1.434535 0
M  V30 21 N -3.693463 1.098932 -0.710586 0
M  V30 22 C -3.417193 -0.184774 -0.374778 0
M  V30 23 S -4.354590 -1.614955 -0.223888 0
M  V30 24 C -2.956222 -2.733536 0.265633 0
M  V30 25 C -1.908390 -1.885545 0.261450 0
M  V30 26 C -2.146189 -0.577051 -0.065393 0
M  V30 27 C -0.761494 -2.755806 0.616220 0
M  V30 28 C -0.803257 -3.917022 -0.362335 0
M  V30 29 C -1.828787 -4.885578 0.111365 0
M  V30 30 C -3.040401 -4.159853 0.575474 0
M  V30 31 C 1.186435 0.414819 -0.883286 0
M  V30 32 C 2.327699 -0.478607 -0.538391 0
M  V30 33 C 3.791080 -3.330092 1.315931 0
M  V30 34 H 3.694675 -5.402109 3.909685 0
M  V30 35 H 4.083100 -3.256956 5.128796 0
M  V30 36 H 4.277107 -1.161868 3.788964 0
M  V30 37 H 4.806910 -0.175220 1.486530 0
M  V30 38 H 4.587452 -1.204141 0.069264 0
M  V30 39 H 2.511836 1.315599 1.977084 0
M  V30 40 H 2.338690 -0.281179 2.707354 0
M  V30 41 H 0.074911 -0.454864 2.162787 0
M  V30 42 H 0.267804 1.286052 2.025207 0
M  V30 43 H -1.141899 4.243862 -0.975613 0
M  V30 44 H -1.882630 6.548783 -1.627043 0
M  V30 45 H -5.815917 5.266551 -2.020568 0
M  V30 46 H -5.245350 2.941363 -1.394282 0
M  V30 47 H -0.876181 -3.169063 1.640835 0
M  V30 48 H 0.208818 -2.253816 0.601027 0
M  V30 49 H -0.991070 -3.574593 -1.397729 0
M  V30 50 H 0.211685 -4.388056 -0.322910 0
M  V30 51 H -1.405934 -5.599728 0.850645 0
M  V30 52 H -2.143913 -5.510867 -0.772271 0
M  V30 53 H -3.108905 -4.355504 1.686528 0
M  V30 54 H -3.975450 -4.585622 0.172757 0
M  V30 55 H 0.754069 0.068929 -1.842708 0
M  V30 56 H 1.588992 1.454677 -0.964259 0
M  V30 57 H 2.120534 -1.563892 -0.661415 0
M  V30 58 H 3.140208 -0.279537 -1.300258 0
M  V30 59 H 3.700820 -3.405282 0.230958 0
M  V30 END ATOM
M  V30 BEGIN BOND
M  V30 1 1 1 2
M  V30 2 2 2 3
M  V30 3 1 3 4
M  V30 4 2 4 5
M  V30 5 1 5 6
M  V30 6 1 6 7
M  V30 7 1 7 8
M  V30 8 1 8 9
M  V30 9 1 9 10
M  V30 10 1 10 11
M  V30 11 1 11 12
M  V30 12 2 12 13
M  V30 13 1 13 14
M  V30 14 1 14 15
M  V30 15 2 15 16
M  V30 16 1 16 17
M  V30 17 2 17 18
M  V30 18 1 18 19
M  V30 19 2 19 20
M  V30 20 2 14 21
M  V30 21 1 21 22
M  V30 22 1 22 23
M  V30 23 1 23 24
M  V30 24 2 24 25
M  V30 25 1 25 26
M  V30 26 1 25 27
M  V30 27 1 27 28
M  V30 28 1 28 29
M  V30 29 1 29 30
M  V30 30 1 11 31
M  V30 31 1 31 32
M  V30 32 2 6 33
M  V30 33 1 33 2
M  V30 34 1 32 8
M  V30 35 1 26 12
M  V30 36 1 20 15
M  V30 37 2 26 22
M  V30 38 1 30 24
M  V30 39 1 3 34
M  V30 40 1 4 35
M  V30 41 1 5 36
M  V30 42 1 7 37
M  V30 43 1 7 38
M  V30 44 1 9 39
M  V30 45 1 9 40
M  V30 46 1 10 41
M  V30 47 1 10 42
M  V30 48 1 16 43
M  V30 49 1 17 44
M  V30 50 1 19 45
M  V30 51 1 20 46
M  V30 52 1 27 47
M  V30 53 1 27 48
M  V30 54 1 28 49
M  V30 55 1 28 50
M  V30 56 1 29 51
M  V30 57 1 29 52
M  V30 58 1 30 53
M  V30 59 1 30 54
M  V30 60 1 31 55
M  V30 61 1 31 56
M  V30 62 1 32 57
M  V30 63 1 32 58
M  V30 64 1 33 59
M  V30 END BOND
M  V30 END CTAB
M  END
>  <Dataset>  (691) 
ChEMBL_Kinases

>  <Ligand_Instance>  (691) 
nan

>  <PDB_ID>  (691) 
nan

>  <Standardized_SMILES>  (691) 
Brc1cccc(CN2CCN(c3nc(-c4ccncc4)nc4sc5c(c34)CCCC5)CC2)c1

>  <Name>  (691) 
nan

>  <Pocket>  (691) 
nan

>  <ATP_Site>  (691) 
nan

>  <Peripheral>  (691) 
nan

>  <Num_H_Atoms_ProtBoundConf>  (691) 
nan

>  <Num_Resolved_Atoms>  (691) 
nan

>  <Num_Not_Resolved_Atoms>  (691) 
nan

$$$$
CHEMBL3729930
     RDKit          3D

  0  0  0  0  0  0  0  0  0  0999 V3000
M  V30 BEGIN CTAB
M  V30 COUNTS 44 47 0 0 0
M  V30 BEGIN ATOM
M  V30 1 C -2.368341 -3.109348 1.516546 0
M  V30 2 C -1.687294 -3.354669 0.187089 0 CFG=1
M  V30 3 N -2.670860 -3.962705 -0.702627 0
M  V30 4 C -1.142435 -2.059342 -0.396523 0
M  V30 5 O -0.208622 -1.542043 0.515787 0
M  V30 6 C 0.495909 -0.376891 0.333747 0
M  V30 7 N 0.306949 0.341233 -0.775140 0
M  V30 8 C 0.901717 1.481303 -1.104555 0
M  V30 9 C 0.669456 2.238801 -2.327048 0
M  V30 10 C -0.252531 1.710945 -3.209203 0
M  V30 11 C -0.481645 2.414884 -4.366559 0
M  V30 12 N 0.135430 3.586563 -4.695493 0
M  V30 13 C 1.022003 4.045723 -3.792825 0
M  V30 14 C 1.331523 3.419213 -2.593809 0
M  V30 15 N 1.788334 1.944915 -0.207323 0
M  V30 16 C 2.045350 1.282758 0.947544 0
M  V30 17 S 3.146592 1.629915 2.318897 0
M  V30 18 C 2.671685 0.112024 3.264336 0
M  V30 19 C 1.744203 -0.485107 2.451680 0
M  V30 20 C 1.403015 0.093545 1.256074 0
M  V30 21 C 1.308882 -1.725444 3.146178 0
M  V30 22 C 0.741272 -1.288843 4.503195 0
M  V30 23 C 1.863772 -0.766691 5.387258 0
M  V30 24 C 3.077838 -0.438111 4.531896 0
M  V30 25 H -1.821959 -3.608714 2.368466 0
M  V30 26 H -2.407070 -2.016664 1.756745 0
M  V30 27 H -3.399385 -3.538570 1.543398 0
M  V30 28 H -0.864143 -4.057917 0.354653 0
M  V30 29 H -2.732702 -4.977302 -0.413828 0
M  V30 30 H -2.284952 -3.904174 -1.666860 0
M  V30 31 H -0.597471 -2.324337 -1.325476 0
M  V30 32 H -1.937001 -1.352774 -0.647760 0
M  V30 33 H -0.781956 0.797183 -3.029777 0
M  V30 34 H -1.215107 1.999579 -5.073547 0
M  V30 35 H 1.546648 4.983182 -4.006508 0
M  V30 36 H 2.050601 3.825519 -1.899734 0
M  V30 37 H 2.179198 -2.387132 3.377471 0
M  V30 38 H 0.501453 -2.245638 2.634478 0
M  V30 39 H 0.215504 -2.087278 5.025852 0
M  V30 40 H 0.026349 -0.463860 4.312946 0
M  V30 41 H 1.518104 0.139793 5.882507 0
M  V30 42 H 2.137771 -1.583204 6.090897 0
M  V30 43 H 3.746014 0.297453 5.035314 0
M  V30 44 H 3.675786 -1.358593 4.369230 0
M  V30 END ATOM
M  V30 BEGIN BOND
M  V30 1 1 1 2
M  V30 2 1 2 3
M  V30 3 1 2 4
M  V30 4 1 4 5
M  V30 5 1 5 6
M  V30 6 2 6 7
M  V30 7 1 7 8
M  V30 8 1 8 9
M  V30 9 2 9 10
M  V30 10 1 10 11
M  V30 11 2 11 12
M  V30 12 1 12 13
M  V30 13 2 13 14
M  V30 14 2 8 15
M  V30 15 1 15 16
M  V30 16 1 16 17
M  V30 17 1 17 18
M  V30 18 2 18 19
M  V30 19 1 19 20
M  V30 20 1 19 21
M  V30 21 1 21 22
M  V30 22 1 22 23
M  V30 23 1 23 24
M  V30 24 1 20 6
M  V30 25 1 14 9
M  V30 26 2 20 16
M  V30 27 1 24 18
M  V30 28 1 1 25
M  V30 29 1 1 26
M  V30 30 1 1 27
M  V30 31 1 2 28 CFG=1
M  V30 32 1 3 29
M  V30 33 1 3 30
M  V30 34 1 4 31
M  V30 35 1 4 32
M  V30 36 1 10 33
M  V30 37 1 11 34
M  V30 38 1 13 35
M  V30 39 1 14 36
M  V30 40 1 21 37
M  V30 41 1 21 38
M  V30 42 1 22 39
M  V30 43 1 22 40
M  V30 44 1 23 41
M  V30 45 1 23 42
M  V30 46 1 24 43
M  V30 47 1 24 44
M  V30 END BOND
M  V30 END CTAB
M  END
>  <Dataset>  (692) 
ChEMBL_Kinases

>  <Ligand_Instance>  (692) 
nan

>  <PDB_ID>  (692) 
nan

>  <Standardized_SMILES>  (692) 
C[C@@H](N)COc1nc(-c2ccncc2)nc2sc3c(c12)CCCC3

>  <Name>  (692) 
nan

>  <Pocket>  (692) 
nan

>  <ATP_Site>  (692) 
nan

>  <Peripheral>  (692) 
nan

>  <Num_H_Atoms_ProtBoundConf>  (692) 
nan

>  <Num_Resolved_Atoms>  (692) 
nan

>  <Num_Not_Resolved_Atoms>  (692) 
nan

$$$$
CHEMBL3729926
     RDKit          3D

  0  0  0  0  0  0  0  0  0  0999 V3000
M  V30 BEGIN CTAB
M  V30 COUNTS 59 63 0 0 0
M  V30 BEGIN ATOM
M  V30 1 C 5.544454 -1.653888 1.720916 0
M  V30 2 N 4.316508 -2.319567 1.471720 0
M  V30 3 C 3.131215 -1.714730 1.711337 0
M  V30 4 N 2.993980 -0.417006 2.224105 0
M  V30 5 C 3.814715 0.611182 2.673624 0
M  V30 6 C 3.696937 1.758403 1.655225 0
M  V30 7 O 2.692960 1.475977 0.699191 0
M  V30 8 C 1.534725 1.309250 1.452163 0 CFG=1
M  V30 9 C 0.305535 1.218398 0.623407 0
M  V30 10 C 0.330679 0.397045 -0.490740 0
M  V30 11 C -0.796704 0.291875 -1.281033 0
M  V30 12 C -1.982381 0.988823 -1.003363 0
M  V30 13 N -3.102700 0.829971 -1.861075 0
M  V30 14 C -4.358976 1.496806 -1.674746 0 CFG=2
M  V30 15 C -5.054358 1.212419 -0.387092 0
M  V30 16 C -6.375650 0.614327 -0.826798 0
M  V30 17 O -6.256673 0.276394 -2.158452 0
M  V30 18 C -5.361802 1.165138 -2.735603 0
M  V30 19 C -2.021640 1.811312 0.103715 0
M  V30 20 C -0.875237 1.887701 0.865583 0
M  V30 21 C 1.606006 0.096692 2.346645 0
M  V30 22 N 2.027646 -2.432439 1.436915 0
M  V30 23 C 1.970841 -3.665732 0.958372 0
M  V30 24 C 0.663118 -4.252912 0.737033 0
M  V30 25 C -0.450407 -3.516275 1.040636 0
M  V30 26 C -1.721678 -4.028018 0.848161 0
M  V30 27 N -1.941429 -5.278456 0.351664 0
M  V30 28 C -0.873413 -6.018587 0.046858 0
M  V30 29 C 0.371535 -5.495942 0.243942 0
M  V30 30 F 1.403456 -6.301997 -0.087373 0
M  V30 31 C 3.185872 -4.253999 0.725301 0
M  V30 32 C 4.359612 -3.585071 0.980443 0
M  V30 33 O 5.463779 -4.173946 0.747699 0
M  V30 34 H 5.846214 -1.645473 2.809833 0
M  V30 35 H 5.746074 -0.730872 1.174436 0
M  V30 36 H 6.382435 -2.319309 1.319060 0
M  V30 37 H 4.846064 0.439995 2.969036 0
M  V30 38 H 3.397993 1.072089 3.632000 0
M  V30 39 H 4.661267 1.890721 1.122579 0
M  V30 40 H 3.449957 2.716543 2.101011 0
M  V30 41 H 1.478342 2.212916 2.103895 0
M  V30 42 H 1.214339 -0.163870 -0.755254 0
M  V30 43 H -0.738630 -0.363963 -2.148799 0
M  V30 44 H -3.030171 0.194176 -2.682522 0
M  V30 45 H -4.141992 2.602764 -1.731478 0
M  V30 46 H -4.519994 0.590324 0.327704 0
M  V30 47 H -5.307640 2.173027 0.147242 0
M  V30 48 H -6.566401 -0.344070 -0.277927 0
M  V30 49 H -7.240128 1.266762 -0.597672 0
M  V30 50 H -4.796950 0.703752 -3.577228 0
M  V30 51 H -5.848674 2.073767 -3.112481 0
M  V30 52 H -2.913081 2.370317 0.360208 0
M  V30 53 H -0.906555 2.535720 1.737363 0
M  V30 54 H 0.866624 -0.659661 2.013085 0
M  V30 55 H 1.428865 0.324847 3.424161 0
M  V30 56 H -0.474729 -2.532749 1.433534 0
M  V30 57 H -2.631982 -3.492988 1.070033 0
M  V30 58 H -1.024207 -7.011938 -0.348872 0
M  V30 59 H 3.251305 -5.250913 0.338223 0
M  V30 END ATOM
M  V30 BEGIN BOND
M  V30 1 1 1 2
M  V30 2 1 2 3
M  V30 3 1 3 4
M  V30 4 1 4 5
M  V30 5 1 5 6
M  V30 6 1 6 7
M  V30 7 1 7 8
M  V30 8 1 8 9
M  V30 9 2 9 10
M  V30 10 1 10 11
M  V30 11 2 11 12
M  V30 12 1 12 13
M  V30 13 1 13 14
M  V30 14 1 14 15
M  V30 15 1 15 16
M  V30 16 1 16 17
M  V30 17 1 17 18
M  V30 18 1 12 19
M  V30 19 2 19 20
M  V30 20 1 8 21
M  V30 21 2 3 22
M  V30 22 1 22 23
M  V30 23 1 23 24
M  V30 24 2 24 25
M  V30 25 1 25 26
M  V30 26 2 26 27
M  V30 27 1 27 28
M  V30 28 2 28 29
M  V30 29 1 29 30
M  V30 30 2 23 31
M  V30 31 1 31 32
M  V30 32 2 32 33
M  V30 33 1 32 2
M  V30 34 1 21 4
M  V30 35 1 29 24
M  V30 36 1 20 9
M  V30 37 1 18 14
M  V30 38 1 1 34
M  V30 39 1 1 35
M  V30 40 1 1 36
M  V30 41 1 5 37
M  V30 42 1 5 38
M  V30 43 1 6 39
M  V30 44 1 6 40
M  V30 45 1 8 41 CFG=1
M  V30 46 1 10 42
M  V30 47 1 11 43
M  V30 48 1 13 44
M  V30 49 1 14 45 CFG=1
M  V30 50 1 15 46
M  V30 51 1 15 47
M  V30 52 1 16 48
M  V30 53 1 16 49
M  V30 54 1 18 50
M  V30 55 1 18 51
M  V30 56 1 19 52
M  V30 57 1 20 53
M  V30 58 1 21 54
M  V30 59 1 21 55
M  V30 60 1 25 56
M  V30 61 1 26 57
M  V30 62 1 28 58
M  V30 63 1 31 59
M  V30 END BOND
M  V30 END CTAB
M  END
>  <Dataset>  (693) 
ChEMBL_Kinases

>  <Ligand_Instance>  (693) 
nan

>  <PDB_ID>  (693) 
nan

>  <Standardized_SMILES>  (693) 
Cn1c(N2CCO[C@@H](c3ccc(N[C@@H]4CCOC4)cc3)C2)nc(-c2ccncc2F)cc1=O

>  <Name>  (693) 
nan

>  <Pocket>  (693) 
nan

>  <ATP_Site>  (693) 
nan

>  <Peripheral>  (693) 
nan

>  <Num_H_Atoms_ProtBoundConf>  (693) 
nan

>  <Num_Resolved_Atoms>  (693) 
nan

>  <Num_Not_Resolved_Atoms>  (693) 
nan

$$$$
CHEMBL3729925
     RDKit          3D

  0  0  0  0  0  0  0  0  0  0999 V3000
M  V30 BEGIN CTAB
M  V30 COUNTS 52 56 0 0 0
M  V30 BEGIN ATOM
M  V30 1 C 0.154624 -5.358591 1.030567 0
M  V30 2 C 1.555940 -5.009268 0.674745 0
M  V30 3 N 1.876950 -3.642704 0.549954 0
M  V30 4 C 1.871036 -2.846110 1.709596 0
M  V30 5 C 0.970880 -1.669234 1.740794 0
M  V30 6 N 0.927359 -0.962327 0.449492 0
M  V30 7 C 0.221863 0.268074 0.352970 0
M  V30 8 N 1.081962 1.299562 0.353048 0
M  V30 9 C 0.779721 2.590667 0.320772 0
M  V30 10 C 1.743742 3.683763 0.322384 0
M  V30 11 C 1.274173 4.987753 0.288388 0
M  V30 12 C 2.220783 5.967084 0.292832 0
M  V30 13 N 3.551801 5.755131 0.327058 0
M  V30 14 C 3.995787 4.481807 0.359788 0
M  V30 15 C 3.090963 3.422057 0.358019 0
M  V30 16 N -0.540262 2.836723 0.284917 0
M  V30 17 C -1.464382 1.856814 0.281354 0
M  V30 18 S -3.187252 1.873835 0.230629 0
M  V30 19 C -3.436929 0.100010 0.251881 0
M  V30 20 C -2.081406 -0.429164 0.300252 0
M  V30 21 C -1.123332 0.543030 0.314274 0
M  V30 22 C -2.206846 -1.903211 0.292041 0
M  V30 23 C -3.006281 -2.255380 1.557391 0
M  V30 24 C -4.460765 -1.887756 1.329456 0
M  V30 25 C -4.596710 -0.849370 0.237489 0
M  V30 26 C 1.603859 -1.535440 -0.696158 0
M  V30 27 C 1.579933 -3.032434 -0.693105 0
M  V30 28 H -0.001990 -5.415683 2.142719 0
M  V30 29 H -0.624736 -4.742895 0.553751 0
M  V30 30 H -0.028454 -6.414815 0.683374 0
M  V30 31 H 1.916290 -5.570974 -0.227026 0
M  V30 32 H 2.201680 -5.426873 1.504565 0
M  V30 33 H 1.631222 -3.477467 2.598222 0
M  V30 34 H 2.943023 -2.537045 1.897183 0
M  V30 35 H 1.454184 -0.903311 2.422032 0
M  V30 36 H -0.025560 -1.819245 2.177233 0
M  V30 37 H 0.213117 5.140296 0.261170 0
M  V30 38 H 1.822897 6.987435 0.265922 0
M  V30 39 H 5.064195 4.249848 0.388019 0
M  V30 40 H 3.493433 2.431448 0.384875 0
M  V30 41 H -2.917548 -2.222397 -0.541297 0
M  V30 42 H -1.284373 -2.461812 0.255746 0
M  V30 43 H -2.606812 -1.589830 2.348531 0
M  V30 44 H -2.873747 -3.292927 1.865429 0
M  V30 45 H -4.972181 -2.806752 0.972432 0
M  V30 46 H -4.975664 -1.563303 2.249439 0
M  V30 47 H -4.698110 -1.263392 -0.770565 0
M  V30 48 H -5.494443 -0.253271 0.486871 0
M  V30 49 H 2.694775 -1.246182 -0.639316 0
M  V30 50 H 1.245599 -1.144441 -1.647672 0
M  V30 51 H 2.243348 -3.473030 -1.464390 0
M  V30 52 H 0.546984 -3.365244 -1.004387 0
M  V30 END ATOM
M  V30 BEGIN BOND
M  V30 1 1 1 2
M  V30 2 1 2 3
M  V30 3 1 3 4
M  V30 4 1 4 5
M  V30 5 1 5 6
M  V30 6 1 6 7
M  V30 7 2 7 8
M  V30 8 1 8 9
M  V30 9 1 9 10
M  V30 10 2 10 11
M  V30 11 1 11 12
M  V30 12 2 12 13
M  V30 13 1 13 14
M  V30 14 2 14 15
M  V30 15 2 9 16
M  V30 16 1 16 17
M  V30 17 1 17 18
M  V30 18 1 18 19
M  V30 19 2 19 20
M  V30 20 1 20 21
M  V30 21 1 20 22
M  V30 22 1 22 23
M  V30 23 1 23 24
M  V30 24 1 24 25
M  V30 25 1 6 26
M  V30 26 1 26 27
M  V30 27 1 27 3
M  V30 28 1 21 7
M  V30 29 1 15 10
M  V30 30 2 21 17
M  V30 31 1 25 19
M  V30 32 1 1 28
M  V30 33 1 1 29
M  V30 34 1 1 30
M  V30 35 1 2 31
M  V30 36 1 2 32
M  V30 37 1 4 33
M  V30 38 1 4 34
M  V30 39 1 5 35
M  V30 40 1 5 36
M  V30 41 1 11 37
M  V30 42 1 12 38
M  V30 43 1 14 39
M  V30 44 1 15 40
M  V30 45 1 22 41
M  V30 46 1 22 42
M  V30 47 1 23 43
M  V30 48 1 23 44
M  V30 49 1 24 45
M  V30 50 1 24 46
M  V30 51 1 25 47
M  V30 52 1 25 48
M  V30 53 1 26 49
M  V30 54 1 26 50
M  V30 55 1 27 51
M  V30 56 1 27 52
M  V30 END BOND
M  V30 END CTAB
M  END
>  <Dataset>  (694) 
ChEMBL_Kinases

>  <Ligand_Instance>  (694) 
nan

>  <PDB_ID>  (694) 
nan

>  <Standardized_SMILES>  (694) 
CCN1CCN(c2nc(-c3ccncc3)nc3sc4c(c23)CCCC4)CC1

>  <Name>  (694) 
nan

>  <Pocket>  (694) 
nan

>  <ATP_Site>  (694) 
nan

>  <Peripheral>  (694) 
nan

>  <Num_H_Atoms_ProtBoundConf>  (694) 
nan

>  <Num_Resolved_Atoms>  (694) 
nan

>  <Num_Not_Resolved_Atoms>  (694) 
nan

$$$$
CHEMBL3730030
     RDKit          3D

  0  0  0  0  0  0  0  0  0  0999 V3000
M  V30 BEGIN CTAB
M  V30 COUNTS 45 49 0 0 0
M  V30 BEGIN ATOM
M  V30 1 Cl -1.256719 -4.263790 3.576868 0
M  V30 2 C 0.398669 -3.705502 3.686458 0
M  V30 3 C 1.215873 -4.275356 4.611107 0
M  V30 4 C 2.533477 -3.970597 4.842007 0
M  V30 5 C 3.085757 -2.989603 4.060163 0
M  V30 6 C 2.212671 -2.433819 3.126908 0
M  V30 7 S 2.606068 -1.068434 1.883925 0
M  V30 8 C 0.961424 -1.033895 1.168370 0
M  V30 9 C 0.469261 -0.258163 0.175248 0
M  V30 10 N 1.257647 0.696120 -0.507076 0
M  V30 11 C 0.444876 1.547940 -1.383023 0
M  V30 12 C 0.681512 2.966705 -0.854890 0
M  V30 13 C 2.046539 3.476756 -1.182931 0
M  V30 14 N 3.035539 3.292954 -0.170462 0
M  V30 15 C 3.034811 2.027777 0.491061 0
M  V30 16 C 2.677082 0.917060 -0.455261 0
M  V30 17 N -0.816313 -0.421843 -0.176861 0
M  V30 18 C -1.518242 -1.351970 0.490965 0
M  V30 19 C -2.929666 -1.564161 0.137106 0
M  V30 20 C -3.702017 -2.503647 0.785841 0
M  V30 21 C -5.008430 -2.652122 0.409292 0
M  V30 22 N -5.518868 -1.880197 -0.586914 0
M  V30 23 C -4.756716 -0.971530 -1.208248 0
M  V30 24 C -3.431441 -0.774497 -0.873748 0
M  V30 25 N -1.001184 -2.096732 1.462073 0
M  V30 26 C 0.270848 -1.999122 1.876864 0
M  V30 27 C 0.871286 -2.714204 2.861083 0
M  V30 28 H 0.800940 -5.068363 5.256151 0
M  V30 29 H 3.180562 -4.421053 5.573376 0
M  V30 30 H 4.085815 -2.600275 4.072700 0
M  V30 31 H -0.620800 1.331907 -1.308507 0
M  V30 32 H 0.807930 1.522884 -2.423200 0
M  V30 33 H -0.047865 3.638790 -1.388419 0
M  V30 34 H 0.434194 3.046518 0.204617 0
M  V30 35 H 2.020696 4.581552 -1.410232 0
M  V30 36 H 2.346834 3.002599 -2.162614 0
M  V30 37 H 3.974217 3.441738 -0.605972 0
M  V30 38 H 4.080134 1.813795 0.846146 0
M  V30 39 H 2.419458 2.010100 1.415524 0
M  V30 40 H 3.266722 0.002763 -0.234690 0
M  V30 41 H 3.027139 1.211135 -1.490295 0
M  V30 42 H -3.189617 -3.068740 1.571247 0
M  V30 43 H -5.545621 -3.415476 0.972963 0
M  V30 44 H -5.192951 -0.383010 -1.986794 0
M  V30 45 H -2.882698 -0.015998 -1.427781 0
M  V30 END ATOM
M  V30 BEGIN BOND
M  V30 1 1 1 2
M  V30 2 2 2 3
M  V30 3 1 3 4
M  V30 4 2 4 5
M  V30 5 1 5 6
M  V30 6 1 6 7
M  V30 7 1 7 8
M  V30 8 2 8 9
M  V30 9 1 9 10
M  V30 10 1 10 11
M  V30 11 1 11 12
M  V30 12 1 12 13
M  V30 13 1 13 14
M  V30 14 1 14 15
M  V30 15 1 15 16
M  V30 16 1 9 17
M  V30 17 2 17 18
M  V30 18 1 18 19
M  V30 19 2 19 20
M  V30 20 1 20 21
M  V30 21 2 21 22
M  V30 22 1 22 23
M  V30 23 2 23 24
M  V30 24 1 18 25
M  V30 25 2 25 26
M  V30 26 1 26 27
M  V30 27 1 27 2
M  V30 28 2 27 6
M  V30 29 1 26 8
M  V30 30 1 16 10
M  V30 31 1 24 19
M  V30 32 1 3 28
M  V30 33 1 4 29
M  V30 34 1 5 30
M  V30 35 1 11 31
M  V30 36 1 11 32
M  V30 37 1 12 33
M  V30 38 1 12 34
M  V30 39 1 13 35
M  V30 40 1 13 36
M  V30 41 1 14 37
M  V30 42 1 15 38
M  V30 43 1 15 39
M  V30 44 1 16 40
M  V30 45 1 16 41
M  V30 46 1 20 42
M  V30 47 1 21 43
M  V30 48 1 23 44
M  V30 49 1 24 45
M  V30 END BOND
M  V30 END CTAB
M  END
>  <Dataset>  (695) 
ChEMBL_Kinases

>  <Ligand_Instance>  (695) 
nan

>  <PDB_ID>  (695) 
nan

>  <Standardized_SMILES>  (695) 
Clc1cccc2sc3c(N4CCCNCC4)nc(-c4ccncc4)nc3c12

>  <Name>  (695) 
nan

>  <Pocket>  (695) 
nan

>  <ATP_Site>  (695) 
nan

>  <Peripheral>  (695) 
nan

>  <Num_H_Atoms_ProtBoundConf>  (695) 
nan

>  <Num_Resolved_Atoms>  (695) 
nan

>  <Num_Not_Resolved_Atoms>  (695) 
nan

$$$$
CHEMBL523286
     RDKit          3D

  0  0  0  0  0  0  0  0  0  0999 V3000
M  V30 BEGIN CTAB
M  V30 COUNTS 41 44 0 0 0
M  V30 BEGIN ATOM
M  V30 1 C 0.039602 -4.506198 1.749068 0
M  V30 2 C -0.989184 -3.420486 1.524341 0 CFG=2
M  V30 3 N -0.980211 -3.051477 0.108890 0
M  V30 4 C 0.327479 -2.527508 -0.131865 0
M  V30 5 C 0.430127 -1.144832 -0.267496 0
M  V30 6 C 1.635290 -0.498448 -0.493576 0
M  V30 7 C 2.067593 0.815242 -0.672843 0
M  V30 8 C 1.166052 1.952927 -0.666395 0
M  V30 9 C 0.175076 2.311376 0.174647 0
M  V30 10 C -0.616637 3.426076 0.038134 0
M  V30 11 C -0.364834 4.233903 -1.054297 0
M  V30 12 C 0.649208 3.933578 -1.981118 0
M  V30 13 Cl 0.899597 5.015367 -3.339845 0
M  V30 14 C 1.397766 2.792422 -1.765412 0
M  V30 15 N 3.419411 0.800489 -0.861351 0
M  V30 16 O 3.828408 -0.441254 -0.807984 0
M  V30 17 C 2.800362 -1.231898 -0.592802 0
M  V30 18 C 2.644802 -2.614457 -0.449175 0
M  V30 19 N 1.463960 -3.217466 -0.230729 0
M  V30 20 C -0.838443 -2.291852 2.438601 0
M  V30 21 C -1.543094 -1.115411 2.346240 0
M  V30 22 C -1.357525 -0.083066 3.234386 0
M  V30 23 C -0.455082 -0.169725 4.266725 0
M  V30 24 C 0.272882 -1.349371 4.385821 0
M  V30 25 C 0.062632 -2.376550 3.471167 0
M  V30 26 H 1.053878 -4.161587 1.921787 0
M  V30 27 H 0.053349 -5.140528 0.812411 0
M  V30 28 H -0.261623 -5.221292 2.554980 0
M  V30 29 H -1.990378 -3.891311 1.713739 0
M  V30 30 H -1.634269 -3.072121 -0.703455 0
M  V30 31 H -0.384611 -0.429433 -0.217494 0
M  V30 32 H 0.052394 1.620575 0.998304 0
M  V30 33 H -1.379828 3.613881 0.771083 0
M  V30 34 H -0.979562 5.127347 -1.192034 0
M  V30 35 H 2.154981 2.652645 -2.540575 0
M  V30 36 H 3.528955 -3.209428 -0.521096 0
M  V30 37 H -2.256132 -1.053089 1.525806 0
M  V30 38 H -1.920890 0.817407 3.133337 0
M  V30 39 H -0.288175 0.623464 4.980257 0
M  V30 40 H 0.985530 -1.395449 5.213376 0
M  V30 41 H 0.683981 -3.218513 3.681520 0
M  V30 END ATOM
M  V30 BEGIN BOND
M  V30 1 1 1 2
M  V30 2 1 2 3
M  V30 3 1 3 4
M  V30 4 2 4 5
M  V30 5 1 5 6
M  V30 6 1 6 7
M  V30 7 1 7 8
M  V30 8 2 8 9
M  V30 9 1 9 10
M  V30 10 2 10 11
M  V30 11 1 11 12
M  V30 12 1 12 13
M  V30 13 2 12 14
M  V30 14 2 7 15
M  V30 15 1 15 16
M  V30 16 1 16 17
M  V30 17 1 17 18
M  V30 18 2 18 19
M  V30 19 1 2 20
M  V30 20 2 20 21
M  V30 21 1 21 22
M  V30 22 2 22 23
M  V30 23 1 23 24
M  V30 24 2 24 25
M  V30 25 1 19 4
M  V30 26 1 25 20
M  V30 27 2 17 6
M  V30 28 1 14 8
M  V30 29 1 1 26
M  V30 30 1 1 27
M  V30 31 1 1 28
M  V30 32 1 2 29 CFG=1
M  V30 33 1 3 30
M  V30 34 1 5 31
M  V30 35 1 9 32
M  V30 36 1 10 33
M  V30 37 1 11 34
M  V30 38 1 14 35
M  V30 39 1 18 36
M  V30 40 1 21 37
M  V30 41 1 22 38
M  V30 42 1 23 39
M  V30 43 1 24 40
M  V30 44 1 25 41
M  V30 END BOND
M  V30 END CTAB
M  END
>  <Dataset>  (696) 
ChEMBL_Kinases

>  <Ligand_Instance>  (696) 
nan

>  <PDB_ID>  (696) 
nan

>  <Standardized_SMILES>  (696) 
C[C@H](Nc1cc2c(-c3cccc(Cl)c3)noc2cn1)c1ccccc1

>  <Name>  (696) 
nan

>  <Pocket>  (696) 
nan

>  <ATP_Site>  (696) 
nan

>  <Peripheral>  (696) 
nan

>  <Num_H_Atoms_ProtBoundConf>  (696) 
nan

>  <Num_Resolved_Atoms>  (696) 
nan

>  <Num_Not_Resolved_Atoms>  (696) 
nan

$$$$
CHEMBL3704370
     RDKit          3D

  0  0  0  0  0  0  0  0  0  0999 V3000
M  V30 BEGIN CTAB
M  V30 COUNTS 76 81 0 0 0
M  V30 BEGIN ATOM
M  V30 1 C 2.365791 -1.193256 4.775930 0
M  V30 2 O 2.354191 -0.565003 3.610195 0
M  V30 3 C 2.017846 0.149825 2.594388 0
M  V30 4 C 0.817672 0.825564 2.426866 0
M  V30 5 C 0.662741 1.534180 1.266462 0
M  V30 6 C 1.662771 1.555657 0.332074 0
M  V30 7 C 1.502210 2.327335 -0.832916 0
M  V30 8 O 2.501662 2.505487 -1.569273 0
M  V30 9 N 1.334811 3.097570 -1.992453 0
M  V30 10 C 2.275658 3.467788 -3.034190 0
M  V30 11 C 2.100817 4.996385 -3.136683 0
M  V30 12 C 0.703164 5.232896 -2.529652 0
M  V30 13 C 0.188239 3.827993 -2.561858 0 CFG=2
M  V30 14 C -1.078257 3.634483 -1.869878 0
M  V30 15 C -1.824680 4.727259 -1.392792 0
M  V30 16 C -3.026960 4.560091 -0.754950 0
M  V30 17 C -3.592118 3.327823 -0.532042 0
M  V30 18 C -2.909653 2.218094 -0.974686 0
M  V30 19 C -3.071878 0.746097 -0.887836 0
M  V30 20 O -3.286220 0.004534 0.122327 0
M  V30 21 N -2.979725 -0.009913 -2.093874 0
M  V30 22 C -3.106201 -1.469803 -1.744406 0
M  V30 23 N -1.954371 -1.852926 -1.678283 0
M  V30 24 C -1.535739 -3.062560 -1.379557 0
M  V30 25 C -2.595918 -3.988291 -1.105716 0
M  V30 26 S -4.069058 -2.992335 -1.325191 0
M  V30 27 C -1.944492 -5.329178 -0.718107 0
M  V30 28 C -1.093370 -5.028915 0.470723 0 CFG=1
M  V30 29 N -0.819438 -6.084913 1.381695 0
M  V30 30 C -2.005814 -6.531557 2.041569 0
M  V30 31 C -2.331263 -5.722296 3.281587 0
M  V30 32 O -1.227389 -5.728433 4.141445 0
M  V30 33 C -0.263856 -4.941014 3.485724 0
M  V30 34 C 0.235526 -5.706464 2.293698 0
M  V30 35 C 0.131291 -4.303523 -0.000405 0
M  V30 36 C -0.108980 -3.620463 -1.331274 0
M  V30 37 C -1.671472 2.418204 -1.631695 0
M  V30 38 C 2.878721 0.873413 0.492891 0
M  V30 39 C 3.059652 0.143035 1.672787 0
M  V30 40 C 4.393220 -0.545568 1.824122 0
M  V30 41 H 1.341737 -1.413355 5.201929 0
M  V30 42 H 2.927984 -2.182782 4.783732 0
M  V30 43 H 2.870184 -0.591669 5.582702 0
M  V30 44 H 0.086219 0.736151 3.235813 0
M  V30 45 H -0.298075 2.060180 1.161393 0
M  V30 46 H 1.857722 2.980442 -3.981044 0
M  V30 47 H 3.314000 3.208048 -2.891994 0
M  V30 48 H 2.000360 5.213762 -4.242094 0
M  V30 49 H 2.883846 5.538749 -2.632230 0
M  V30 50 H 0.769234 5.592554 -1.485088 0
M  V30 51 H 0.093390 5.881133 -3.168426 0
M  V30 52 H 0.149821 3.534701 -3.637515 0
M  V30 53 H -1.455671 5.748921 -1.510589 0
M  V30 54 H -3.652422 5.364287 -0.357799 0
M  V30 55 H -4.491217 2.988042 -0.066108 0
M  V30 56 H -2.859277 0.267859 -3.049701 0
M  V30 57 H -2.769626 -6.035104 -0.566520 0
M  V30 58 H -1.396690 -5.611923 -1.632585 0
M  V30 59 H -1.676936 -4.261229 1.072678 0
M  V30 60 H -2.919420 -6.511723 1.437080 0
M  V30 61 H -1.828224 -7.571957 2.370748 0
M  V30 62 H -3.163593 -6.196473 3.815616 0
M  V30 63 H -2.633882 -4.662963 3.054321 0
M  V30 64 H -0.789490 -4.023018 3.182473 0
M  V30 65 H 0.573420 -4.739135 4.162309 0
M  V30 66 H 1.000010 -5.057769 1.824942 0
M  V30 67 H 0.734842 -6.626820 2.633061 0
M  V30 68 H 0.985865 -4.992486 -0.195119 0
M  V30 69 H 0.393577 -3.475324 0.700067 0
M  V30 70 H 0.590041 -2.797113 -1.475509 0
M  V30 71 H 0.055359 -4.308377 -2.184842 0
M  V30 72 H -1.016192 1.629438 -2.045809 0
M  V30 73 H 3.646431 0.910955 -0.278956 0
M  V30 74 H 5.155842 0.081318 1.360069 0
M  V30 75 H 4.382593 -1.581000 1.449428 0
M  V30 76 H 4.681710 -0.573449 2.924256 0
M  V30 END ATOM
M  V30 BEGIN BOND
M  V30 1 1 1 2
M  V30 2 1 2 3
M  V30 3 2 3 4
M  V30 4 1 4 5
M  V30 5 2 5 6
M  V30 6 1 6 7
M  V30 7 2 7 8
M  V30 8 1 7 9
M  V30 9 1 9 10
M  V30 10 1 10 11
M  V30 11 1 11 12
M  V30 12 1 12 13
M  V30 13 1 13 14
M  V30 14 2 14 15
M  V30 15 1 15 16
M  V30 16 2 16 17
M  V30 17 1 17 18
M  V30 18 1 18 19
M  V30 19 2 19 20
M  V30 20 1 19 21
M  V30 21 1 21 22
M  V30 22 2 22 23
M  V30 23 1 23 24
M  V30 24 2 24 25
M  V30 25 1 25 26
M  V30 26 1 25 27
M  V30 27 1 27 28
M  V30 28 1 28 29
M  V30 29 1 29 30
M  V30 30 1 30 31
M  V30 31 1 31 32
M  V30 32 1 32 33
M  V30 33 1 33 34
M  V30 34 1 28 35
M  V30 35 1 35 36
M  V30 36 2 18 37
M  V30 37 1 6 38
M  V30 38 2 38 39
M  V30 39 1 39 40
M  V30 40 1 39 3
M  V30 41 1 13 9
M  V30 42 1 37 14
M  V30 43 1 26 22
M  V30 44 1 34 29
M  V30 45 1 36 24
M  V30 46 1 1 41
M  V30 47 1 1 42
M  V30 48 1 1 43
M  V30 49 1 4 44
M  V30 50 1 5 45
M  V30 51 1 10 46
M  V30 52 1 10 47
M  V30 53 1 11 48
M  V30 54 1 11 49
M  V30 55 1 12 50
M  V30 56 1 12 51
M  V30 57 1 13 52 CFG=3
M  V30 58 1 15 53
M  V30 59 1 16 54
M  V30 60 1 17 55
M  V30 61 1 21 56
M  V30 62 1 27 57
M  V30 63 1 27 58
M  V30 64 1 28 59 CFG=1
M  V30 65 1 30 60
M  V30 66 1 30 61
M  V30 67 1 31 62
M  V30 68 1 31 63
M  V30 69 1 33 64
M  V30 70 1 33 65
M  V30 71 1 34 66
M  V30 72 1 34 67
M  V30 73 1 35 68
M  V30 74 1 35 69
M  V30 75 1 36 70
M  V30 76 1 36 71
M  V30 77 1 37 72
M  V30 78 1 38 73
M  V30 79 1 40 74
M  V30 80 1 40 75
M  V30 81 1 40 76
M  V30 END BOND
M  V30 END CTAB
M  END
>  <Dataset>  (697) 
ChEMBL_Kinases

>  <Ligand_Instance>  (697) 
nan

>  <PDB_ID>  (697) 
nan

>  <Standardized_SMILES>  (697) 
COc1ccc(C(=O)N2CCC[C@@H]2c2cccc(C(=O)Nc3nc4c(s3)C[C@@H](N3CCOCC3)CC4)c2)cc1C

>  <Name>  (697) 
nan

>  <Pocket>  (697) 
nan

>  <ATP_Site>  (697) 
nan

>  <Peripheral>  (697) 
nan

>  <Num_H_Atoms_ProtBoundConf>  (697) 
nan

>  <Num_Resolved_Atoms>  (697) 
nan

>  <Num_Not_Resolved_Atoms>  (697) 
nan

$$$$
CHEMBL523435
     RDKit          3D

  0  0  0  0  0  0  0  0  0  0999 V3000
M  V30 BEGIN CTAB
M  V30 COUNTS 44 48 0 0 0
M  V30 BEGIN ATOM
M  V30 1 C 2.617469 -0.834484 5.635458 0
M  V30 2 O 3.030121 -0.404346 4.342518 0
M  V30 3 C 2.330555 -0.926734 3.248031 0
M  V30 4 C 1.290636 -1.820147 3.419706 0
M  V30 5 C 0.590516 -2.344434 2.333242 0
M  V30 6 C 1.004911 -1.912379 1.093210 0
M  V30 7 C 2.043501 -1.015157 0.875337 0
M  V30 8 C 2.620780 -0.453940 -0.273597 0
M  V30 9 C 2.045531 -0.787160 -1.591915 0
M  V30 10 C 0.739285 -0.559312 -1.840368 0
M  V30 11 C -0.239031 0.013706 -0.921753 0
M  V30 12 C 0.153827 1.130924 -0.172190 0
M  V30 13 N -0.854883 1.528598 0.631760 0
M  V30 14 C -0.864805 2.639426 1.571575 0
M  V30 15 C -1.899080 0.677734 0.408806 0
M  V30 16 C -3.185171 0.568753 0.922188 0
M  V30 17 C -4.017690 -0.446287 0.467553 0
M  V30 18 I -5.940498 -0.501968 1.329914 0
M  V30 19 C -3.599918 -1.352722 -0.484427 0
M  V30 20 F -4.439181 -2.323083 -0.893990 0
M  V30 21 C -2.319768 -1.274210 -1.021635 0
M  V30 22 C -1.532359 -0.253218 -0.540111 0
M  V30 23 C 0.470887 -0.989808 -3.205495 0
M  V30 24 O -0.619481 -0.967786 -3.874263 0
M  V30 25 N 1.648214 -1.499517 -3.818957 0
M  V30 26 C 2.624114 -1.362244 -2.787132 0
M  V30 27 O 3.865044 -1.651650 -2.755224 0
M  V30 28 C 3.628431 0.364622 0.208654 0
M  V30 29 O 3.637447 0.288105 1.523360 0
M  V30 30 C 2.727594 -0.507597 1.972727 0
M  V30 31 H 2.812703 -1.935722 5.680946 0
M  V30 32 H 1.528311 -0.721764 5.772128 0
M  V30 33 H 3.140193 -0.339745 6.458683 0
M  V30 34 H 0.997469 -2.137279 4.415824 0
M  V30 35 H -0.219483 -3.042460 2.479798 0
M  V30 36 H 0.439967 -2.374529 0.289271 0
M  V30 37 H 1.098930 1.692056 -0.147914 0
M  V30 38 H -1.843460 3.127822 1.597339 0
M  V30 39 H -0.601129 2.324808 2.614208 0
M  V30 40 H -0.080031 3.389424 1.282938 0
M  V30 41 H -3.508524 1.290369 1.677291 0
M  V30 42 H -1.981781 -1.973949 -1.756890 0
M  V30 43 H 1.853433 -1.891717 -4.753360 0
M  V30 44 H 4.204284 0.898178 -0.535656 0
M  V30 END ATOM
M  V30 BEGIN BOND
M  V30 1 1 1 2
M  V30 2 1 2 3
M  V30 3 2 3 4
M  V30 4 1 4 5
M  V30 5 2 5 6
M  V30 6 1 6 7
M  V30 7 1 7 8
M  V30 8 1 8 9
M  V30 9 2 9 10
M  V30 10 1 10 11
M  V30 11 2 11 12
M  V30 12 1 12 13
M  V30 13 1 13 14
M  V30 14 1 13 15
M  V30 15 2 15 16
M  V30 16 1 16 17
M  V30 17 1 17 18
M  V30 18 2 17 19
M  V30 19 1 19 20
M  V30 20 1 19 21
M  V30 21 2 21 22
M  V30 22 1 10 23
M  V30 23 2 23 24
M  V30 24 1 23 25
M  V30 25 1 25 26
M  V30 26 2 26 27
M  V30 27 2 8 28
M  V30 28 1 28 29
M  V30 29 1 29 30
M  V30 30 1 30 3
M  V30 31 2 30 7
M  V30 32 1 26 9
M  V30 33 1 22 11
M  V30 34 1 22 15
M  V30 35 1 1 31
M  V30 36 1 1 32
M  V30 37 1 1 33
M  V30 38 1 4 34
M  V30 39 1 5 35
M  V30 40 1 6 36
M  V30 41 1 12 37
M  V30 42 1 14 38
M  V30 43 1 14 39
M  V30 44 1 14 40
M  V30 45 1 16 41
M  V30 46 1 21 42
M  V30 47 1 25 43
M  V30 48 1 28 44
M  V30 END BOND
M  V30 END CTAB
M  END
>  <Dataset>  (698) 
ChEMBL_Kinases

>  <Ligand_Instance>  (698) 
nan

>  <PDB_ID>  (698) 
nan

>  <Standardized_SMILES>  (698) 
COc1cccc2c(C3=C(c4cn(C)c5cc(I)c(F)cc45)C(=O)NC3=O)coc12

>  <Name>  (698) 
nan

>  <Pocket>  (698) 
nan

>  <ATP_Site>  (698) 
nan

>  <Peripheral>  (698) 
nan

>  <Num_H_Atoms_ProtBoundConf>  (698) 
nan

>  <Num_Resolved_Atoms>  (698) 
nan

>  <Num_Not_Resolved_Atoms>  (698) 
nan

$$$$
CHEMBL3704371
     RDKit          3D

  0  0  0  0  0  0  0  0  0  0999 V3000
M  V30 BEGIN CTAB
M  V30 COUNTS 64 68 0 0 0
M  V30 BEGIN ATOM
M  V30 1 C 6.037665 -2.475966 2.501395 0
M  V30 2 N 6.859163 -1.303628 2.552538 0
M  V30 3 C 7.229078 -0.789512 1.267503 0
M  V30 4 C 6.661414 0.545298 0.953754 0
M  V30 5 C 5.228230 0.675891 1.373576 0
M  V30 6 N 4.191716 1.121370 0.698353 0
M  V30 7 C 3.091904 1.198234 1.092448 0
M  V30 8 N 1.780230 1.649245 0.558958 0
M  V30 9 C 0.838057 0.852504 -0.113732 0
M  V30 10 O 1.115774 -0.360615 -0.288059 0
M  V30 11 C -0.400063 1.475728 -0.562906 0
M  V30 12 C -0.697822 2.801447 -0.399813 0
M  V30 13 C -1.912677 3.330475 -0.855117 0
M  V30 14 C -2.736534 2.431338 -1.452707 0
M  V30 15 C -2.531847 1.100124 -1.661703 0
M  V30 16 C -3.525624 0.232475 -2.359116 0
M  V30 17 C -2.889834 -0.339982 -3.628288 0
M  V30 18 C -3.878499 -1.258392 -4.285666 0
M  V30 19 C -5.172544 -1.410150 -3.499007 0
M  V30 20 C -4.824895 -1.909335 -2.108732 0
M  V30 21 N -3.946026 -0.896018 -1.556225 0
M  V30 22 C -3.582744 -1.134331 -0.183051 0
M  V30 23 O -2.879341 -0.545188 0.693503 0
M  V30 24 N -4.050202 -2.292148 0.524185 0
M  V30 25 C -3.653058 -2.472659 1.878999 0
M  V30 26 C -4.269110 -2.041598 3.027824 0
M  V30 27 C -3.700404 -2.328820 4.262644 0
M  V30 28 C -2.507373 -3.052904 4.322339 0
M  V30 29 C -1.936104 -3.343834 5.596109 0
M  V30 30 N -1.457259 -3.569287 6.656229 0
M  V30 31 C -1.870794 -3.495462 3.160817 0
M  V30 32 C -2.459876 -3.195534 1.930018 0
M  V30 33 C -1.303488 0.625747 -1.187098 0
M  V30 34 S 3.256163 0.529546 2.877893 0
M  V30 35 C 5.050755 0.249933 2.667192 0
M  V30 36 C 6.337996 -0.249554 3.356058 0
M  V30 37 H 6.633109 -3.375188 2.684771 0
M  V30 38 H 5.586532 -2.522528 1.484942 0
M  V30 39 H 5.185647 -2.398037 3.216655 0
M  V30 40 H 6.942855 -1.568884 0.504742 0
M  V30 41 H 8.340195 -0.747177 1.238851 0
M  V30 42 H 6.813631 0.749550 -0.125917 0
M  V30 43 H 7.274610 1.343400 1.468228 0
M  V30 44 H 1.725272 2.643719 0.788110 0
M  V30 45 H 0.009165 3.454968 0.086547 0
M  V30 46 H -2.128176 4.380312 -0.719443 0
M  V30 47 H -3.685993 2.839625 -1.809165 0
M  V30 48 H -4.349116 0.888886 -2.666675 0
M  V30 49 H -1.958644 -0.905391 -3.366941 0
M  V30 50 H -2.613537 0.479338 -4.330900 0
M  V30 51 H -3.421484 -2.278102 -4.430722 0
M  V30 52 H -4.116174 -0.936671 -5.339617 0
M  V30 53 H -5.774711 -2.153471 -4.054503 0
M  V30 54 H -5.672730 -0.444016 -3.435973 0
M  V30 55 H -4.383857 -2.899885 -2.199075 0
M  V30 56 H -5.753357 -1.994649 -1.506965 0
M  V30 57 H -4.682778 -3.002565 0.052839 0
M  V30 58 H -5.187814 -1.488505 2.854203 0
M  V30 59 H -4.226181 -1.976184 5.124949 0
M  V30 60 H -0.961862 -4.048014 3.293168 0
M  V30 61 H -1.874531 -3.588681 1.115331 0
M  V30 62 H -1.066727 -0.441156 -1.329715 0
M  V30 63 H 6.057364 -0.561837 4.387572 0
M  V30 64 H 7.007731 0.611321 3.337301 0
M  V30 END ATOM
M  V30 BEGIN BOND
M  V30 1 1 1 2
M  V30 2 1 2 3
M  V30 3 1 3 4
M  V30 4 1 4 5
M  V30 5 1 5 6
M  V30 6 2 6 7
M  V30 7 1 7 8
M  V30 8 1 8 9
M  V30 9 2 9 10
M  V30 10 1 9 11
M  V30 11 2 11 12
M  V30 12 1 12 13
M  V30 13 2 13 14
M  V30 14 1 14 15
M  V30 15 1 15 16
M  V30 16 1 16 17
M  V30 17 1 17 18
M  V30 18 1 18 19
M  V30 19 1 19 20
M  V30 20 1 20 21
M  V30 21 1 21 22
M  V30 22 2 22 23
M  V30 23 1 22 24
M  V30 24 1 24 25
M  V30 25 2 25 26
M  V30 26 1 26 27
M  V30 27 2 27 28
M  V30 28 1 28 29
M  V30 29 3 29 30
M  V30 30 1 28 31
M  V30 31 2 31 32
M  V30 32 2 15 33
M  V30 33 1 7 34
M  V30 34 1 34 35
M  V30 35 1 35 36
M  V30 36 1 36 2
M  V30 37 2 35 5
M  V30 38 1 33 11
M  V30 39 1 21 16
M  V30 40 1 32 25
M  V30 41 1 1 37
M  V30 42 1 1 38
M  V30 43 1 1 39
M  V30 44 1 3 40
M  V30 45 1 3 41
M  V30 46 1 4 42
M  V30 47 1 4 43
M  V30 48 1 8 44
M  V30 49 1 12 45
M  V30 50 1 13 46
M  V30 51 1 14 47
M  V30 52 1 16 48
M  V30 53 1 17 49
M  V30 54 1 17 50
M  V30 55 1 18 51
M  V30 56 1 18 52
M  V30 57 1 19 53
M  V30 58 1 19 54
M  V30 59 1 20 55
M  V30 60 1 20 56
M  V30 61 1 24 57
M  V30 62 1 26 58
M  V30 63 1 27 59
M  V30 64 1 31 60
M  V30 65 1 32 61
M  V30 66 1 33 62
M  V30 67 1 36 63
M  V30 68 1 36 64
M  V30 END BOND
M  V30 END CTAB
M  END
>  <Dataset>  (699) 
ChEMBL_Kinases

>  <Ligand_Instance>  (699) 
nan

>  <PDB_ID>  (699) 
nan

>  <Standardized_SMILES>  (699) 
CN1CCc2nc(NC(=O)c3cccc(C4CCCCN4C(=O)Nc4ccc(C#N)cc4)c3)sc2C1

>  <Name>  (699) 
nan

>  <Pocket>  (699) 
nan

>  <ATP_Site>  (699) 
nan

>  <Peripheral>  (699) 
nan

>  <Num_H_Atoms_ProtBoundConf>  (699) 
nan

>  <Num_Resolved_Atoms>  (699) 
nan

>  <Num_Not_Resolved_Atoms>  (699) 
nan

$$$$
CHEMBL523516
     RDKit          3D

  0  0  0  0  0  0  0  0  0  0999 V3000
M  V30 BEGIN CTAB
M  V30 COUNTS 55 59 0 0 0
M  V30 BEGIN ATOM
M  V30 1 C 5.015126 0.572396 5.152677 0
M  V30 2 C 5.653657 -0.712399 4.660240 0
M  V30 3 C 4.937249 -1.854673 5.358659 0
M  V30 4 N 5.512529 -0.885509 3.228777 0
M  V30 5 C 4.247101 -0.956599 2.591312 0
M  V30 6 N 3.056094 -0.874604 3.208954 0
M  V30 7 O 2.096085 -0.975774 2.334726 0
M  V30 8 C 2.590956 -1.124330 1.139775 0
M  V30 9 C 2.029864 -1.275898 -0.127734 0
M  V30 10 C 0.582387 -1.288643 -0.310194 0
M  V30 11 C -0.119373 -0.103001 -0.551136 0
M  V30 12 C -1.487770 -0.096840 -0.726138 0
M  V30 13 C -2.224154 -1.244060 -0.673157 0
M  V30 14 C -3.588972 -1.172491 -0.856848 0
M  V30 15 N -4.310392 0.040285 -1.098401 0
M  V30 16 C -4.438582 1.211903 -0.247912 0
M  V30 17 C -4.390038 2.427075 -1.116344 0
M  V30 18 O -5.448270 2.433948 -1.993449 0
M  V30 19 C -6.047333 1.209731 -2.209832 0
M  V30 20 C -5.005607 0.096974 -2.372961 0 CFG=2
M  V30 21 C -5.799363 -1.194230 -2.603882 0
M  V30 22 N -4.256274 -2.320783 -0.796059 0
M  V30 23 N -3.635536 -3.466161 -0.570783 0
M  V30 24 C -2.308782 -3.584048 -0.385946 0
M  V30 25 C -1.557955 -2.428255 -0.437021 0
M  V30 26 C -0.190013 -2.453393 -0.259686 0
M  V30 27 C 2.889754 -1.412343 -1.205478 0
M  V30 28 Cl 2.147377 -1.600246 -2.781020 0
M  V30 29 C 4.276471 -1.406132 -1.090809 0
M  V30 30 C 4.828521 -1.255561 0.167170 0
M  V30 31 C 3.972293 -1.120049 1.238381 0
M  V30 32 H 5.241543 1.360352 4.419372 0
M  V30 33 H 5.436290 0.767807 6.155201 0
M  V30 34 H 3.942769 0.393651 5.298141 0
M  V30 35 H 6.730842 -0.735898 4.920477 0
M  V30 36 H 5.224261 -2.815080 4.861966 0
M  V30 37 H 5.268532 -1.821821 6.422373 0
M  V30 38 H 3.844152 -1.710486 5.302194 0
M  V30 39 H 6.356279 -0.963562 2.619929 0
M  V30 40 H 0.465929 0.828036 -0.595741 0
M  V30 41 H -1.954696 0.859154 -0.909556 0
M  V30 42 H -5.471611 1.196239 0.211813 0
M  V30 43 H -3.759387 1.229720 0.609574 0
M  V30 44 H -4.508486 3.349717 -0.479448 0
M  V30 45 H -3.441311 2.578240 -1.656647 0
M  V30 46 H -6.614372 1.292717 -3.168157 0
M  V30 47 H -6.717743 0.963557 -1.378452 0
M  V30 48 H -4.321951 0.302772 -3.195692 0
M  V30 49 H -5.190574 -2.022683 -2.960442 0
M  V30 50 H -6.303187 -1.481872 -1.660292 0
M  V30 51 H -6.533958 -0.976194 -3.407834 0
M  V30 52 H -1.847887 -4.552518 -0.204010 0
M  V30 53 H 0.323757 -3.404669 -0.072771 0
M  V30 54 H 4.848981 -1.518064 -1.980898 0
M  V30 55 H 5.899861 -1.246340 0.290260 0
M  V30 END ATOM
M  V30 BEGIN BOND
M  V30 1 1 1 2
M  V30 2 1 2 3
M  V30 3 1 2 4
M  V30 4 1 4 5
M  V30 5 2 5 6
M  V30 6 1 6 7
M  V30 7 1 7 8
M  V30 8 2 8 9
M  V30 9 1 9 10
M  V30 10 2 10 11
M  V30 11 1 11 12
M  V30 12 2 12 13
M  V30 13 1 13 14
M  V30 14 1 14 15
M  V30 15 1 15 16
M  V30 16 1 16 17
M  V30 17 1 17 18
M  V30 18 1 18 19
M  V30 19 1 19 20
M  V30 20 1 20 21
M  V30 21 2 14 22
M  V30 22 1 22 23
M  V30 23 2 23 24
M  V30 24 1 24 25
M  V30 25 2 25 26
M  V30 26 1 9 27
M  V30 27 1 27 28
M  V30 28 2 27 29
M  V30 29 1 29 30
M  V30 30 2 30 31
M  V30 31 1 31 5
M  V30 32 1 31 8
M  V30 33 1 26 10
M  V30 34 1 25 13
M  V30 35 1 20 15
M  V30 36 1 1 32
M  V30 37 1 1 33
M  V30 38 1 1 34
M  V30 39 1 2 35
M  V30 40 1 3 36
M  V30 41 1 3 37
M  V30 42 1 3 38
M  V30 43 1 4 39
M  V30 44 1 11 40
M  V30 45 1 12 41
M  V30 46 1 16 42
M  V30 47 1 16 43
M  V30 48 1 17 44
M  V30 49 1 17 45
M  V30 50 1 19 46
M  V30 51 1 19 47
M  V30 52 1 20 48 CFG=3
M  V30 53 1 21 49
M  V30 54 1 21 50
M  V30 55 1 21 51
M  V30 56 1 24 52
M  V30 57 1 26 53
M  V30 58 1 29 54
M  V30 59 1 30 55
M  V30 END BOND
M  V30 END CTAB
M  END
>  <Dataset>  (700) 
ChEMBL_Kinases

>  <Ligand_Instance>  (700) 
nan

>  <PDB_ID>  (700) 
nan

>  <Standardized_SMILES>  (700) 
CC(C)Nc1noc2c(-c3ccc4c(N5CCOC[C@@H]5C)nncc4c3)c(Cl)ccc12

>  <Name>  (700) 
nan

>  <Pocket>  (700) 
nan

>  <ATP_Site>  (700) 
nan

>  <Peripheral>  (700) 
nan

>  <Num_H_Atoms_ProtBoundConf>  (700) 
nan

>  <Num_Resolved_Atoms>  (700) 
nan

>  <Num_Not_Resolved_Atoms>  (700) 
nan

$$$$
CHEMBL3704372
     RDKit          3D

  0  0  0  0  0  0  0  0  0  0999 V3000
M  V30 BEGIN CTAB
M  V30 COUNTS 75 81 0 0 0
M  V30 BEGIN ATOM
M  V30 1 O -1.022172 -1.184966 1.722279 0
M  V30 2 C -1.317813 -1.472595 2.926747 0
M  V30 3 N -2.296117 -0.621821 3.471836 0
M  V30 4 C -2.606127 0.306233 2.362843 0
M  V30 5 N -2.197946 1.355279 2.025022 0
M  V30 6 C -2.623156 2.027131 0.975431 0
M  V30 7 C -3.659370 1.444429 0.181236 0
M  V30 8 S -3.936926 -0.069783 1.048626 0
M  V30 9 C -4.063055 2.286368 -0.997325 0
M  V30 10 C -2.803985 2.498959 -1.810181 0 CFG=1
M  V30 11 N -2.956811 3.219893 -3.013491 0
M  V30 12 C -3.448651 4.552775 -2.937632 0
M  V30 13 C -3.224675 5.179643 -4.321139 0
M  V30 14 O -3.815510 4.443062 -5.318774 0
M  V30 15 C -3.270401 3.160265 -5.362054 0
M  V30 16 C -3.675591 2.505874 -4.057775 0
M  V30 17 C -1.691409 3.087870 -0.979217 0
M  V30 18 C -2.178704 3.369433 0.450617 0
M  V30 19 C -0.682681 -2.594753 3.658561 0
M  V30 20 C -0.989415 -2.898053 4.982759 0
M  V30 21 C -0.339500 -3.982798 5.525074 0
M  V30 22 C 0.558873 -4.719473 4.798062 0
M  V30 23 C 0.893531 -4.461796 3.497180 0
M  V30 24 C 1.801186 -5.132641 2.537522 0 CFG=1
M  V30 25 C 1.821939 -6.612478 2.831760 0
M  V30 26 C 0.751862 -7.209253 1.934004 0
M  V30 27 C 0.196969 -6.025698 1.177810 0
M  V30 28 N 1.262757 -5.046306 1.177717 0
M  V30 29 C 1.604449 -4.249582 0.055226 0
M  V30 30 O 0.851097 -4.512440 -0.932057 0
M  V30 31 C 2.658033 -3.255257 -0.021667 0
M  V30 32 C 2.223485 -1.946349 -0.268220 0
M  V30 33 C 3.121649 -0.905172 -0.368059 0
M  V30 34 C 4.479863 -1.092847 -0.232335 0
M  V30 35 C 5.470284 -0.007658 -0.336858 0
M  V30 36 C 5.083513 1.309527 -0.579558 0
M  V30 37 N 6.230697 2.044930 -0.615696 0
M  V30 38 C 7.226909 1.154466 -0.397906 0
M  V30 39 O 6.774825 -0.060530 -0.232923 0
M  V30 40 C 4.903904 -2.382753 0.010677 0
M  V30 41 C 4.033317 -3.424499 0.112825 0
M  V30 42 C 0.237888 -3.353071 2.922329 0
M  V30 43 H -2.610906 -0.748651 4.434568 0
M  V30 44 H -4.492029 3.208601 -0.581983 0
M  V30 45 H -4.748223 1.685337 -1.591482 0
M  V30 46 H -2.490787 1.449772 -2.104379 0
M  V30 47 H -2.854863 5.201335 -2.258039 0
M  V30 48 H -4.541439 4.612955 -2.731550 0
M  V30 49 H -3.547276 6.230450 -4.358043 0
M  V30 50 H -2.119719 5.154335 -4.502652 0
M  V30 51 H -3.611737 2.593008 -6.248314 0
M  V30 52 H -2.148142 3.241308 -5.306417 0
M  V30 53 H -3.424290 1.429889 -4.105056 0
M  V30 54 H -4.781123 2.649477 -3.952628 0
M  V30 55 H -0.860647 2.331322 -0.838061 0
M  V30 56 H -1.203041 3.968159 -1.432648 0
M  V30 57 H -1.344810 3.791469 1.007971 0
M  V30 58 H -2.995443 4.091784 0.474000 0
M  V30 59 H -1.700730 -2.285874 5.501289 0
M  V30 60 H -0.530849 -4.264338 6.531970 0
M  V30 61 H 1.070893 -5.561016 5.219462 0
M  V30 62 H 2.790401 -4.669117 2.528400 0
M  V30 63 H 1.583047 -6.877971 3.864536 0
M  V30 64 H 2.826566 -7.006191 2.553096 0
M  V30 65 H 1.226842 -7.891626 1.176598 0
M  V30 66 H 0.002828 -7.799399 2.469207 0
M  V30 67 H -0.143244 -6.264753 0.152600 0
M  V30 68 H -0.654556 -5.558554 1.716689 0
M  V30 69 H 1.182136 -1.657908 -0.394944 0
M  V30 70 H 2.776718 0.116927 -0.559993 0
M  V30 71 H 4.109265 1.757070 -0.723724 0
M  V30 72 H 8.289003 1.355091 -0.353599 0
M  V30 73 H 5.972453 -2.577027 0.125897 0
M  V30 74 H 4.309636 -4.460366 0.305137 0
M  V30 75 H 0.433171 -3.050176 1.879660 0
M  V30 END ATOM
M  V30 BEGIN BOND
M  V30 1 2 1 2
M  V30 2 1 2 3
M  V30 3 1 3 4
M  V30 4 2 4 5
M  V30 5 1 5 6
M  V30 6 2 6 7
M  V30 7 1 7 8
M  V30 8 1 7 9
M  V30 9 1 9 10
M  V30 10 1 10 11
M  V30 11 1 11 12
M  V30 12 1 12 13
M  V30 13 1 13 14
M  V30 14 1 14 15
M  V30 15 1 15 16
M  V30 16 1 10 17
M  V30 17 1 17 18
M  V30 18 1 2 19
M  V30 19 2 19 20
M  V30 20 1 20 21
M  V30 21 2 21 22
M  V30 22 1 22 23
M  V30 23 1 23 24
M  V30 24 1 24 25
M  V30 25 1 25 26
M  V30 26 1 26 27
M  V30 27 1 27 28
M  V30 28 1 28 29
M  V30 29 2 29 30
M  V30 30 1 29 31
M  V30 31 2 31 32
M  V30 32 1 32 33
M  V30 33 2 33 34
M  V30 34 1 34 35
M  V30 35 2 35 36
M  V30 36 1 36 37
M  V30 37 2 37 38
M  V30 38 1 38 39
M  V30 39 1 34 40
M  V30 40 2 40 41
M  V30 41 2 23 42
M  V30 42 1 8 4
M  V30 43 1 16 11
M  V30 44 1 42 19
M  V30 45 1 18 6
M  V30 46 1 28 24
M  V30 47 1 41 31
M  V30 48 1 39 35
M  V30 49 1 3 43
M  V30 50 1 9 44
M  V30 51 1 9 45
M  V30 52 1 10 46 CFG=3
M  V30 53 1 12 47
M  V30 54 1 12 48
M  V30 55 1 13 49
M  V30 56 1 13 50
M  V30 57 1 15 51
M  V30 58 1 15 52
M  V30 59 1 16 53
M  V30 60 1 16 54
M  V30 61 1 17 55
M  V30 62 1 17 56
M  V30 63 1 18 57
M  V30 64 1 18 58
M  V30 65 1 20 59
M  V30 66 1 21 60
M  V30 67 1 22 61
M  V30 68 1 24 62 CFG=3
M  V30 69 1 25 63
M  V30 70 1 25 64
M  V30 71 1 26 65
M  V30 72 1 26 66
M  V30 73 1 27 67
M  V30 74 1 27 68
M  V30 75 1 32 69
M  V30 76 1 33 70
M  V30 77 1 36 71
M  V30 78 1 38 72
M  V30 79 1 40 73
M  V30 80 1 41 74
M  V30 81 1 42 75
M  V30 END BOND
M  V30 END CTAB
M  END
>  <Dataset>  (701) 
ChEMBL_Kinases

>  <Ligand_Instance>  (701) 
nan

>  <PDB_ID>  (701) 
nan

>  <Standardized_SMILES>  (701) 
O=C(Nc1nc2c(s1)C[C@@H](N1CCOCC1)CC2)c1cccc([C@H]2CCCN2C(=O)c2ccc(-c3cnco3)cc2)c1

>  <Name>  (701) 
nan

>  <Pocket>  (701) 
nan

>  <ATP_Site>  (701) 
nan

>  <Peripheral>  (701) 
nan

>  <Num_H_Atoms_ProtBoundConf>  (701) 
nan

>  <Num_Resolved_Atoms>  (701) 
nan

>  <Num_Not_Resolved_Atoms>  (701) 
nan

$$$$
CHEMBL523634
     RDKit          3D

  0  0  0  0  0  0  0  0  0  0999 V3000
M  V30 BEGIN CTAB
M  V30 COUNTS 41 44 0 0 0
M  V30 BEGIN ATOM
M  V30 1 C 0.382744 -4.558655 1.186662 0
M  V30 2 C 1.274715 -3.797909 2.102716 0
M  V30 3 C 1.260225 -4.062834 3.500868 0
M  V30 4 S 2.518653 -2.828146 4.177354 0
M  V30 5 C 2.905753 -2.121138 2.550653 0
M  V30 6 C 2.092128 -2.828645 1.598270 0
M  V30 7 C 2.273171 -2.433202 0.214375 0
M  V30 8 N 2.682178 -3.188255 -0.820385 0
M  V30 9 O 2.705640 -2.490466 -1.923947 0
M  V30 10 C 2.319755 -1.259501 -1.683835 0
M  V30 11 C 2.145559 -0.111378 -2.429998 0
M  V30 12 N 1.720050 1.061577 -1.915997 0
M  V30 13 C 1.452660 1.107677 -0.604402 0
M  V30 14 N 0.970035 2.239985 0.097391 0
M  V30 15 C -0.418259 2.634937 0.355473 0 CFG=1
M  V30 16 C -1.099278 2.879614 -0.981202 0
M  V30 17 C -1.158027 1.628217 1.154848 0
M  V30 18 C -1.455456 0.357790 0.703906 0
M  V30 19 C -2.110063 -0.619473 1.439712 0
M  V30 20 C -2.497121 -0.310533 2.718185 0
M  V30 21 C -2.231296 0.940444 3.230918 0
M  V30 22 C -1.584133 1.867304 2.464081 0
M  V30 23 C 1.591946 0.006751 0.256663 0
M  V30 24 C 2.034052 -1.184276 -0.315217 0
M  V30 25 H -0.447396 -5.045359 1.742932 0
M  V30 26 H -0.022889 -3.875944 0.391212 0
M  V30 27 H 0.945857 -5.343637 0.659310 0
M  V30 28 H 0.671488 -4.789473 3.994336 0
M  V30 29 H 3.608757 -1.337548 2.393307 0
M  V30 30 H 2.367552 -0.174567 -3.480652 0
M  V30 31 H 1.757139 2.851865 0.466645 0
M  V30 32 H -0.415499 3.582388 0.907418 0
M  V30 33 H -0.562431 2.249345 -1.749922 0
M  V30 34 H -2.141670 2.537994 -1.019142 0
M  V30 35 H -0.936794 3.927604 -1.293489 0
M  V30 36 H -1.189289 0.060525 -0.287676 0
M  V30 37 H -2.315479 -1.598983 1.040392 0
M  V30 38 H -3.008094 -1.065652 3.299048 0
M  V30 39 H -2.547559 1.157190 4.235672 0
M  V30 40 H -1.383594 2.851743 2.884522 0
M  V30 41 H 1.397105 -0.013425 1.294075 0
M  V30 END ATOM
M  V30 BEGIN BOND
M  V30 1 1 1 2
M  V30 2 2 2 3
M  V30 3 1 3 4
M  V30 4 1 4 5
M  V30 5 2 5 6
M  V30 6 1 6 7
M  V30 7 2 7 8
M  V30 8 1 8 9
M  V30 9 1 9 10
M  V30 10 2 10 11
M  V30 11 1 11 12
M  V30 12 2 12 13
M  V30 13 1 13 14
M  V30 14 1 14 15
M  V30 15 1 15 16
M  V30 16 1 15 17
M  V30 17 2 17 18
M  V30 18 1 18 19
M  V30 19 2 19 20
M  V30 20 1 20 21
M  V30 21 2 21 22
M  V30 22 1 13 23
M  V30 23 2 23 24
M  V30 24 1 6 2
M  V30 25 1 24 7
M  V30 26 1 24 10
M  V30 27 1 22 17
M  V30 28 1 1 25
M  V30 29 1 1 26
M  V30 30 1 1 27
M  V30 31 1 3 28
M  V30 32 1 5 29
M  V30 33 1 11 30
M  V30 34 1 14 31
M  V30 35 1 15 32 CFG=1
M  V30 36 1 16 33
M  V30 37 1 16 34
M  V30 38 1 16 35
M  V30 39 1 18 36
M  V30 40 1 19 37
M  V30 41 1 20 38
M  V30 42 1 21 39
M  V30 43 1 22 40
M  V30 44 1 23 41
M  V30 END BOND
M  V30 END CTAB
M  END
>  <Dataset>  (702) 
ChEMBL_Kinases

>  <Ligand_Instance>  (702) 
nan

>  <PDB_ID>  (702) 
nan

>  <Standardized_SMILES>  (702) 
Cc1cscc1-c1noc2cnc(N[C@@H](C)c3ccccc3)cc12

>  <Name>  (702) 
nan

>  <Pocket>  (702) 
nan

>  <ATP_Site>  (702) 
nan

>  <Peripheral>  (702) 
nan

>  <Num_H_Atoms_ProtBoundConf>  (702) 
nan

>  <Num_Resolved_Atoms>  (702) 
nan

>  <Num_Not_Resolved_Atoms>  (702) 
nan

$$$$
CHEMBL3704373
     RDKit          3D

  0  0  0  0  0  0  0  0  0  0999 V3000
M  V30 BEGIN CTAB
M  V30 COUNTS 74 80 0 0 0
M  V30 BEGIN ATOM
M  V30 1 O -0.158991 -1.743723 0.611983 0
M  V30 2 C 0.129546 -1.870332 1.830572 0
M  V30 3 N 1.488183 -2.144110 2.084859 0
M  V30 4 C 2.141771 -2.186195 0.717636 0
M  V30 5 N 2.386064 -2.908355 -0.101236 0
M  V30 6 C 2.988011 -2.717958 -1.266735 0
M  V30 7 C 3.380683 -1.463152 -1.538594 0
M  V30 8 S 2.842868 -0.555715 -0.029893 0
M  V30 9 C 4.070518 -1.270429 -2.894659 0
M  V30 10 C 3.056872 -1.674753 -3.890661 0 CFG=1
M  V30 11 N 3.363763 -1.466775 -5.255849 0
M  V30 12 C 3.653617 -0.136308 -5.650309 0
M  V30 13 C 3.156563 0.306440 -6.982184 0
M  V30 14 O 2.908518 -0.744701 -7.858408 0
M  V30 15 C 1.889575 -1.478463 -7.253351 0
M  V30 16 C 2.498776 -2.211980 -6.089606 0
M  V30 17 C 2.722861 -3.122139 -3.648980 0
M  V30 18 C 3.350251 -3.619159 -2.393632 0
M  V30 19 C -0.787335 -1.763292 2.987235 0
M  V30 20 C -0.486266 -1.900324 4.325307 0
M  V30 21 C -1.503165 -1.754700 5.246009 0
M  V30 22 C -2.799172 -1.478461 4.861258 0
M  V30 23 C -3.137351 -1.334861 3.528920 0
M  V30 24 C -4.524041 -1.031043 3.086757 0 CFG=1
M  V30 25 C -5.359610 -2.262219 3.370316 0
M  V30 26 C -6.726220 -1.712987 3.719828 0
M  V30 27 C -6.498961 -0.301109 4.202146 0
M  V30 28 N -5.144174 0.047930 3.823786 0
M  V30 29 C -4.553368 1.299580 4.155007 0
M  V30 30 O -5.393272 1.984381 4.793267 0
M  V30 31 C -3.198926 1.678608 3.793376 0
M  V30 32 C -2.769447 1.891926 5.196041 0
M  V30 33 S -0.976555 2.403782 4.942132 0
M  V30 34 C -1.144044 2.237902 3.058349 0
M  V30 35 C -0.078935 2.490939 2.123391 0
M  V30 36 C -0.285941 2.351312 0.767531 0
M  V30 37 C 0.799288 2.615763 -0.039354 0
M  V30 38 N 1.990458 2.987549 0.457189 0
M  V30 39 C 2.197854 3.125352 1.777824 0
M  V30 40 C 1.154199 2.876395 2.643923 0
M  V30 41 N -2.284696 1.892411 2.899599 0
M  V30 42 C -2.095813 -1.486478 2.629868 0
M  V30 43 H 1.927217 -2.282633 2.992008 0
M  V30 44 H 4.407785 -0.218083 -2.975433 0
M  V30 45 H 4.979306 -1.882673 -2.923179 0
M  V30 46 H 2.113906 -1.099014 -3.660621 0
M  V30 47 H 3.311796 0.640312 -4.907892 0
M  V30 48 H 4.774676 -0.023861 -5.665745 0
M  V30 49 H 3.860049 0.999513 -7.481640 0
M  V30 50 H 2.189212 0.881100 -6.879907 0
M  V30 51 H 1.052245 -0.849560 -6.894888 0
M  V30 52 H 1.528049 -2.257818 -7.959989 0
M  V30 53 H 3.042179 -3.110926 -6.500043 0
M  V30 54 H 1.631453 -2.635367 -5.521474 0
M  V30 55 H 3.057930 -3.699479 -4.550762 0
M  V30 56 H 1.611609 -3.290719 -3.606988 0
M  V30 57 H 4.442709 -3.788214 -2.482657 0
M  V30 58 H 2.933856 -4.660514 -2.245291 0
M  V30 59 H 0.554472 -2.115133 4.516774 0
M  V30 60 H -1.215566 -1.870482 6.268351 0
M  V30 61 H -3.584561 -1.367687 5.603457 0
M  V30 62 H -4.527100 -0.885719 1.990010 0
M  V30 63 H -5.371915 -2.987338 2.538510 0
M  V30 64 H -5.003223 -2.780588 4.283720 0
M  V30 65 H -7.348539 -1.755101 2.789502 0
M  V30 66 H -7.258337 -2.307907 4.486931 0
M  V30 67 H -6.635011 -0.244551 5.299850 0
M  V30 68 H -7.251265 0.329340 3.654195 0
M  V30 69 H -2.717209 1.983990 6.432655 0
M  V30 70 H -1.280636 2.048658 0.487505 0
M  V30 71 H 0.614735 2.499734 -1.100720 0
M  V30 72 H 3.174929 3.429910 2.180390 0
M  V30 73 H 1.365250 2.999665 3.704450 0
M  V30 74 H -2.407745 -1.364609 1.579729 0
M  V30 END ATOM
M  V30 BEGIN BOND
M  V30 1 2 1 2
M  V30 2 1 2 3
M  V30 3 1 3 4
M  V30 4 2 4 5
M  V30 5 1 5 6
M  V30 6 2 6 7
M  V30 7 1 7 8
M  V30 8 1 7 9
M  V30 9 1 9 10
M  V30 10 1 10 11
M  V30 11 1 11 12
M  V30 12 1 12 13
M  V30 13 1 13 14
M  V30 14 1 14 15
M  V30 15 1 15 16
M  V30 16 1 10 17
M  V30 17 1 17 18
M  V30 18 1 2 19
M  V30 19 2 19 20
M  V30 20 1 20 21
M  V30 21 2 21 22
M  V30 22 1 22 23
M  V30 23 1 23 24
M  V30 24 1 24 25
M  V30 25 1 25 26
M  V30 26 1 26 27
M  V30 27 1 27 28
M  V30 28 1 28 29
M  V30 29 2 29 30
M  V30 30 1 29 31
M  V30 31 2 31 32
M  V30 32 1 32 33
M  V30 33 1 33 34
M  V30 34 1 34 35
M  V30 35 2 35 36
M  V30 36 1 36 37
M  V30 37 2 37 38
M  V30 38 1 38 39
M  V30 39 2 39 40
M  V30 40 2 34 41
M  V30 41 2 23 42
M  V30 42 1 8 4
M  V30 43 1 16 11
M  V30 44 1 42 19
M  V30 45 1 18 6
M  V30 46 1 28 24
M  V30 47 1 41 31
M  V30 48 1 40 35
M  V30 49 1 3 43
M  V30 50 1 9 44
M  V30 51 1 9 45
M  V30 52 1 10 46 CFG=1
M  V30 53 1 12 47
M  V30 54 1 12 48
M  V30 55 1 13 49
M  V30 56 1 13 50
M  V30 57 1 15 51
M  V30 58 1 15 52
M  V30 59 1 16 53
M  V30 60 1 16 54
M  V30 61 1 17 55
M  V30 62 1 17 56
M  V30 63 1 18 57
M  V30 64 1 18 58
M  V30 65 1 20 59
M  V30 66 1 21 60
M  V30 67 1 22 61
M  V30 68 1 24 62 CFG=3
M  V30 69 1 25 63
M  V30 70 1 25 64
M  V30 71 1 26 65
M  V30 72 1 26 66
M  V30 73 1 27 67
M  V30 74 1 27 68
M  V30 75 1 32 69
M  V30 76 1 36 70
M  V30 77 1 37 71
M  V30 78 1 39 72
M  V30 79 1 40 73
M  V30 80 1 42 74
M  V30 END BOND
M  V30 END CTAB
M  END
>  <Dataset>  (703) 
ChEMBL_Kinases

>  <Ligand_Instance>  (703) 
nan

>  <PDB_ID>  (703) 
nan

>  <Standardized_SMILES>  (703) 
O=C(Nc1nc2c(s1)C[C@@H](N1CCOCC1)CC2)c1cccc([C@H]2CCCN2C(=O)c2csc(-c3ccncc3)n2)c1

>  <Name>  (703) 
nan

>  <Pocket>  (703) 
nan

>  <ATP_Site>  (703) 
nan

>  <Peripheral>  (703) 
nan

>  <Num_H_Atoms_ProtBoundConf>  (703) 
nan

>  <Num_Resolved_Atoms>  (703) 
nan

>  <Num_Not_Resolved_Atoms>  (703) 
nan

$$$$
CHEMBL3731101
     RDKit          3D

  0  0  0  0  0  0  0  0  0  0999 V3000
M  V30 BEGIN CTAB
M  V30 COUNTS 55 59 0 0 0
M  V30 BEGIN ATOM
M  V30 1 N 3.089276 -2.697973 -1.074094 0
M  V30 2 C 1.716335 -3.015114 -0.614046 0 CFG=2
M  V30 3 C 1.920104 -3.207879 0.907045 0
M  V30 4 N 2.401685 -1.894572 1.382235 0
M  V30 5 C 1.300135 -1.284138 1.355426 0
M  V30 6 N 2.171842 -0.161590 1.364306 0
M  V30 7 C 1.640307 1.091863 1.344759 0
M  V30 8 C 2.439121 2.382922 1.392499 0
M  V30 9 C 3.791036 2.175944 1.759809 0
M  V30 10 C 4.698556 3.149430 1.913629 0
M  V30 11 N 4.299873 4.441039 1.700529 0
M  V30 12 C 3.020854 4.666546 1.349832 0
M  V30 13 C 2.074593 3.671238 1.188829 0
M  V30 14 N 0.329281 1.529601 1.318758 0
M  V30 15 C -0.612079 0.519537 1.305081 0
M  V30 16 C -1.920197 0.317221 1.283225 0
M  V30 17 C -2.758801 1.524024 1.179070 0
M  V30 18 C -4.035309 1.363429 0.587747 0
M  V30 19 C -4.904537 2.459670 0.391131 0
M  V30 20 C -4.525160 3.819975 0.791246 0
M  V30 21 F -5.546215 4.593887 0.476177 0
M  V30 22 C -3.356357 3.567291 1.265311 0
M  V30 23 C -2.297300 2.840677 1.609935 0
M  V30 24 C -2.590959 -0.924682 1.282260 0
M  V30 25 S -1.088850 -2.084631 1.313977 0
M  V30 26 C 0.111137 -0.624950 1.326553 0
M  V30 27 C 1.210547 -4.233069 -1.318658 0
M  V30 28 C -0.184194 -4.609088 -1.000298 0
M  V30 29 C -0.737407 -5.460649 -0.069803 0
M  V30 30 C -2.060744 -5.730262 0.128514 0
M  V30 31 C -2.896548 -5.052810 -0.713256 0
M  V30 32 C -2.593445 -4.163495 -1.696007 0
M  V30 33 C -1.193216 -3.994534 -1.776321 0
M  V30 34 H 3.793546 -3.104381 -0.421378 0
M  V30 35 H 3.225114 -3.229570 -1.988554 0
M  V30 36 H 1.064927 -2.163022 -0.733692 0
M  V30 37 H 2.675616 -4.028715 1.018257 0
M  V30 38 H 1.023144 -3.597649 1.400219 0
M  V30 39 H 3.230965 -2.359323 1.400612 0
M  V30 40 H 4.161214 1.192303 1.927934 0
M  V30 41 H 5.714874 2.983536 2.198780 0
M  V30 42 H 2.576083 5.654989 1.140680 0
M  V30 43 H 1.063076 3.784599 0.911270 0
M  V30 44 H -4.389924 0.380147 0.256988 0
M  V30 45 H -5.853778 2.149028 -0.066685 0
M  V30 46 H -3.046859 4.640057 1.584525 0
M  V30 47 H -1.364512 2.983693 2.055426 0
M  V30 48 H -3.515014 -1.326663 1.242524 0
M  V30 49 H 1.835766 -5.151361 -1.078850 0
M  V30 50 H 1.288749 -4.125084 -2.415855 0
M  V30 51 H 0.022059 -5.944890 0.545584 0
M  V30 52 H -2.381184 -6.421413 0.886140 0
M  V30 53 H -3.945273 -5.297956 -0.528632 0
M  V30 54 H -3.269578 -3.645726 -2.337399 0
M  V30 55 H -0.877296 -3.288396 -2.546048 0
M  V30 END ATOM
M  V30 BEGIN BOND
M  V30 1 1 1 2
M  V30 2 1 2 3
M  V30 3 1 3 4
M  V30 4 1 4 5
M  V30 5 2 5 6
M  V30 6 1 6 7
M  V30 7 1 7 8
M  V30 8 2 8 9
M  V30 9 1 9 10
M  V30 10 2 10 11
M  V30 11 1 11 12
M  V30 12 2 12 13
M  V30 13 2 7 14
M  V30 14 1 14 15
M  V30 15 1 15 16
M  V30 16 1 16 17
M  V30 17 2 17 18
M  V30 18 1 18 19
M  V30 19 2 19 20
M  V30 20 1 20 21
M  V30 21 1 20 22
M  V30 22 2 22 23
M  V30 23 2 16 24
M  V30 24 1 24 25
M  V30 25 1 25 26
M  V30 26 1 2 27
M  V30 27 1 27 28
M  V30 28 2 28 29
M  V30 29 1 29 30
M  V30 30 2 30 31
M  V30 31 1 31 32
M  V30 32 2 32 33
M  V30 33 1 26 5
M  V30 34 1 33 28
M  V30 35 1 13 8
M  V30 36 2 26 15
M  V30 37 1 23 17
M  V30 38 1 1 34
M  V30 39 1 1 35
M  V30 40 1 2 36 CFG=1
M  V30 41 1 3 37
M  V30 42 1 3 38
M  V30 43 1 4 39
M  V30 44 1 9 40
M  V30 45 1 10 41
M  V30 46 1 12 42
M  V30 47 1 13 43
M  V30 48 1 18 44
M  V30 49 1 19 45
M  V30 50 1 22 46
M  V30 51 1 23 47
M  V30 52 1 24 48
M  V30 53 1 27 49
M  V30 54 1 27 50
M  V30 55 1 29 51
M  V30 56 1 30 52
M  V30 57 1 31 53
M  V30 58 1 32 54
M  V30 59 1 33 55
M  V30 END BOND
M  V30 END CTAB
M  END
>  <Dataset>  (704) 
ChEMBL_Kinases

>  <Ligand_Instance>  (704) 
nan

>  <PDB_ID>  (704) 
nan

>  <Standardized_SMILES>  (704) 
N[C@H](CNc1nc(-c2ccncc2)nc2c(-c3ccc(F)cc3)csc12)Cc1ccccc1

>  <Name>  (704) 
nan

>  <Pocket>  (704) 
nan

>  <ATP_Site>  (704) 
nan

>  <Peripheral>  (704) 
nan

>  <Num_H_Atoms_ProtBoundConf>  (704) 
nan

>  <Num_Resolved_Atoms>  (704) 
nan

>  <Num_Not_Resolved_Atoms>  (704) 
nan

$$$$
CHEMBL3731091
     RDKit          3D

  0  0  0  0  0  0  0  0  0  0999 V3000
M  V30 BEGIN CTAB
M  V30 COUNTS 57 61 0 0 0
M  V30 BEGIN ATOM
M  V30 1 N 2.018723 -5.980958 -0.346608 0
M  V30 2 C 1.633660 -4.866070 -1.292838 0 CFG=2
M  V30 3 C 1.029524 -3.828405 -0.453917 0
M  V30 4 N 0.627212 -2.602625 -1.196876 0
M  V30 5 C 0.331022 -1.625324 -0.135137 0
M  V30 6 N 0.463997 -1.834298 1.175087 0
M  V30 7 C 0.238587 -0.841840 2.041949 0
M  V30 8 C 0.394833 -1.123450 3.461832 0
M  V30 9 C 0.722626 -2.418268 3.865301 0
M  V30 10 C 0.902376 -2.816494 5.137312 0
M  V30 11 N 0.758920 -1.904938 6.196845 0
M  V30 12 C 0.429237 -0.644301 5.689071 0
M  V30 13 C 0.239541 -0.183615 4.455751 0
M  V30 14 N -0.118175 0.343750 1.597876 0
M  V30 15 C -0.298215 0.715131 0.326534 0
M  V30 16 C -0.658798 1.920014 -0.174009 0
M  V30 17 C -0.895252 3.081525 0.676834 0
M  V30 18 C -1.095866 4.023871 1.393331 0
M  V30 19 C -1.345861 5.141831 2.252157 0
M  V30 20 C -0.575207 6.259509 2.467895 0
M  V30 21 C -1.030637 7.179030 3.371754 0
M  V30 22 C -2.180360 7.103048 4.098381 0
M  V30 23 C -2.962053 5.982663 3.887354 0
M  V30 24 C -2.530121 5.049420 2.984365 0
M  V30 25 C -0.757894 1.988189 -1.576624 0
M  V30 26 S -0.305972 0.237568 -2.109878 0
M  V30 27 C -0.054790 -0.339012 -0.512462 0
M  V30 28 C 0.823211 -5.556912 -2.320562 0
M  V30 29 C 0.248350 -4.794162 -3.418153 0
M  V30 30 C 0.976105 -4.339504 -4.537828 0
M  V30 31 C 0.444574 -3.694614 -5.664212 0
M  V30 32 C -0.924958 -3.544261 -5.567150 0
M  V30 33 C -1.796962 -3.928065 -4.544058 0
M  V30 34 C -1.126669 -4.538999 -3.525529 0
M  V30 35 H 2.548642 -6.684154 -0.930048 0
M  V30 36 H 2.715187 -5.571666 0.334663 0
M  V30 37 H 2.600726 -4.474391 -1.689940 0
M  V30 38 H 0.115191 -4.246362 0.037732 0
M  V30 39 H 1.713496 -3.559048 0.399294 0
M  V30 40 H 0.568773 -2.455248 -2.204866 0
M  V30 41 H 0.833275 -3.141013 3.049135 0
M  V30 42 H 1.156036 -3.857641 5.250758 0
M  V30 43 H 0.318321 0.063810 6.541151 0
M  V30 44 H -0.014546 0.812689 4.210722 0
M  V30 45 H 0.324143 6.282501 1.873973 0
M  V30 46 H -0.397889 8.051427 3.514625 0
M  V30 47 H -2.536602 7.838033 4.810865 0
M  V30 48 H -3.891660 5.867207 4.435078 0
M  V30 49 H -3.207883 4.198157 2.881807 0
M  V30 50 H -1.045834 2.901943 -2.127816 0
M  V30 51 H 0.017184 -6.210821 -1.831071 0
M  V30 52 H 1.444823 -6.385775 -2.824606 0
M  V30 53 H 2.062236 -4.469261 -4.540706 0
M  V30 54 H 1.052943 -3.371584 -6.477269 0
M  V30 55 H -1.378875 -3.045655 -6.454180 0
M  V30 56 H -2.857445 -3.759776 -4.609803 0
M  V30 57 H -1.702936 -4.916557 -2.662199 0
M  V30 END ATOM
M  V30 BEGIN BOND
M  V30 1 1 1 2
M  V30 2 1 2 3
M  V30 3 1 3 4
M  V30 4 1 4 5
M  V30 5 2 5 6
M  V30 6 1 6 7
M  V30 7 1 7 8
M  V30 8 2 8 9
M  V30 9 1 9 10
M  V30 10 2 10 11
M  V30 11 1 11 12
M  V30 12 2 12 13
M  V30 13 2 7 14
M  V30 14 1 14 15
M  V30 15 1 15 16
M  V30 16 1 16 17
M  V30 17 3 17 18
M  V30 18 1 18 19
M  V30 19 2 19 20
M  V30 20 1 20 21
M  V30 21 2 21 22
M  V30 22 1 22 23
M  V30 23 2 23 24
M  V30 24 2 16 25
M  V30 25 1 25 26
M  V30 26 1 26 27
M  V30 27 1 2 28
M  V30 28 1 28 29
M  V30 29 2 29 30
M  V30 30 1 30 31
M  V30 31 2 31 32
M  V30 32 1 32 33
M  V30 33 2 33 34
M  V30 34 1 27 5
M  V30 35 1 34 29
M  V30 36 1 13 8
M  V30 37 2 27 15
M  V30 38 1 24 19
M  V30 39 1 1 35
M  V30 40 1 1 36
M  V30 41 1 2 37 CFG=3
M  V30 42 1 3 38
M  V30 43 1 3 39
M  V30 44 1 4 40
M  V30 45 1 9 41
M  V30 46 1 10 42
M  V30 47 1 12 43
M  V30 48 1 13 44
M  V30 49 1 20 45
M  V30 50 1 21 46
M  V30 51 1 22 47
M  V30 52 1 23 48
M  V30 53 1 24 49
M  V30 54 1 25 50
M  V30 55 1 28 51
M  V30 56 1 28 52
M  V30 57 1 30 53
M  V30 58 1 31 54
M  V30 59 1 32 55
M  V30 60 1 33 56
M  V30 61 1 34 57
M  V30 END BOND
M  V30 END CTAB
M  END
>  <Dataset>  (705) 
ChEMBL_Kinases

>  <Ligand_Instance>  (705) 
nan

>  <PDB_ID>  (705) 
nan

>  <Standardized_SMILES>  (705) 
N[C@H](CNc1nc(-c2ccncc2)nc2c(C#Cc3ccccc3)csc12)Cc1ccccc1

>  <Name>  (705) 
nan

>  <Pocket>  (705) 
nan

>  <ATP_Site>  (705) 
nan

>  <Peripheral>  (705) 
nan

>  <Num_H_Atoms_ProtBoundConf>  (705) 
nan

>  <Num_Resolved_Atoms>  (705) 
nan

>  <Num_Not_Resolved_Atoms>  (705) 
nan

$$$$
CHEMBL3704381
     RDKit          3D

  0  0  0  0  0  0  0  0  0  0999 V3000
M  V30 BEGIN CTAB
M  V30 COUNTS 74 80 0 0 0
M  V30 BEGIN ATOM
M  V30 1 O 0.087580 -0.648352 0.180471 0
M  V30 2 C 1.209145 -0.190027 0.517888 0
M  V30 3 N 1.707551 0.871890 -0.235124 0
M  V30 4 C 0.704493 1.219291 -1.364678 0
M  V30 5 N 1.010871 0.564853 -2.352342 0
M  V30 6 C 0.379040 0.599447 -3.508219 0
M  V30 7 C -0.697902 1.431142 -3.607200 0
M  V30 8 S -0.707372 2.154687 -1.866680 0
M  V30 9 C -1.406270 1.460962 -4.914156 0
M  V30 10 C -1.778912 0.061075 -5.353108 0 CFG=1
M  V30 11 N -2.217166 0.020527 -6.697388 0
M  V30 12 C -2.578711 -1.316785 -7.134668 0
M  V30 13 C -3.630543 -1.129084 -8.224247 0
M  V30 14 O -3.433933 0.111589 -8.869639 0
M  V30 15 C -2.043032 0.282537 -9.034854 0
M  V30 16 C -1.358016 0.558043 -7.702057 0
M  V30 17 C -0.655093 -0.904709 -5.045119 0
M  V30 18 C 0.647357 -0.151401 -4.803366 0
M  V30 19 C 2.075520 -0.650012 1.633301 0
M  V30 20 C 3.325801 -0.130877 1.883308 0
M  V30 21 C 4.044763 -0.674417 2.943365 0
M  V30 22 C 3.516783 -1.692289 3.706217 0
M  V30 23 C 2.263362 -2.223719 3.468828 0
M  V30 24 C 1.616260 -3.311486 4.178344 0 CFG=1
M  V30 25 C 2.331235 -3.883863 5.355828 0
M  V30 26 C 1.298298 -4.966121 5.740555 0
M  V30 27 C -0.037222 -4.274531 5.442464 0
M  V30 28 N 0.314044 -3.028747 4.743653 0
M  V30 29 C -0.648508 -2.026689 4.842382 0
M  V30 30 O -1.473628 -2.671800 5.532580 0
M  V30 31 C -0.766620 -0.680767 4.362761 0
M  V30 32 C -2.132554 -0.834088 3.818083 0
M  V30 33 S -2.461385 0.906625 3.126487 0
M  V30 34 C -0.791509 1.445999 3.680890 0
M  V30 35 C -0.375491 2.877229 3.417021 0
M  V30 36 C -1.288030 3.724261 2.805813 0
M  V30 37 C -0.802900 4.997928 2.608713 0
M  V30 38 C 0.449088 5.457386 2.954915 0
M  V30 39 N 1.265230 4.546360 3.547719 0
M  V30 40 C 0.867555 3.277488 3.779259 0
M  V30 41 N -0.324354 0.534796 4.172644 0
M  V30 42 C 1.533666 -1.685123 2.407942 0
M  V30 43 H 2.559642 1.420894 -0.169225 0
M  V30 44 H -0.698679 1.938870 -5.631682 0
M  V30 45 H -2.278751 2.136278 -4.875162 0
M  V30 46 H -2.644699 -0.262050 -4.745462 0
M  V30 47 H -2.901673 -1.959009 -6.316508 0
M  V30 48 H -1.725279 -1.828866 -7.649983 0
M  V30 49 H -3.488229 -1.878688 -9.054373 0
M  V30 50 H -4.638894 -1.260384 -7.835765 0
M  V30 51 H -1.951980 1.168754 -9.708655 0
M  V30 52 H -1.588177 -0.562467 -9.582618 0
M  V30 53 H -0.427044 -0.075717 -7.714359 0
M  V30 54 H -1.159417 1.626800 -7.655234 0
M  V30 55 H -0.578299 -1.682717 -5.795437 0
M  V30 56 H -0.875324 -1.380648 -4.068736 0
M  V30 57 H 1.429667 -0.895680 -4.668843 0
M  V30 58 H 0.913631 0.512496 -5.620516 0
M  V30 59 H 3.716047 0.647635 1.283717 0
M  V30 60 H 5.027272 -0.261205 3.135939 0
M  V30 61 H 4.070158 -2.120846 4.525948 0
M  V30 62 H 1.420892 -4.208690 3.497541 0
M  V30 63 H 2.344148 -3.184380 6.228583 0
M  V30 64 H 3.292496 -4.328325 5.127400 0
M  V30 65 H 1.377322 -5.826413 5.041448 0
M  V30 66 H 1.405623 -5.282327 6.774367 0
M  V30 67 H -0.497871 -4.063615 6.430146 0
M  V30 68 H -0.725499 -4.905482 4.853605 0
M  V30 69 H -3.204440 -1.351489 3.516278 0
M  V30 70 H -2.280479 3.442700 2.504456 0
M  V30 71 H -1.448026 5.735111 2.138596 0
M  V30 72 H 0.758099 6.477908 2.760825 0
M  V30 73 H 1.510591 2.540166 4.257931 0
M  V30 74 H 0.528397 -2.063351 2.166549 0
M  V30 END ATOM
M  V30 BEGIN BOND
M  V30 1 2 1 2
M  V30 2 1 2 3
M  V30 3 1 3 4
M  V30 4 2 4 5
M  V30 5 1 5 6
M  V30 6 2 6 7
M  V30 7 1 7 8
M  V30 8 1 7 9
M  V30 9 1 9 10
M  V30 10 1 10 11
M  V30 11 1 11 12
M  V30 12 1 12 13
M  V30 13 1 13 14
M  V30 14 1 14 15
M  V30 15 1 15 16
M  V30 16 1 10 17
M  V30 17 1 17 18
M  V30 18 1 2 19
M  V30 19 2 19 20
M  V30 20 1 20 21
M  V30 21 2 21 22
M  V30 22 1 22 23
M  V30 23 1 23 24
M  V30 24 1 24 25
M  V30 25 1 25 26
M  V30 26 1 26 27
M  V30 27 1 27 28
M  V30 28 1 28 29
M  V30 29 2 29 30
M  V30 30 1 29 31
M  V30 31 2 31 32
M  V30 32 1 32 33
M  V30 33 1 33 34
M  V30 34 1 34 35
M  V30 35 2 35 36
M  V30 36 1 36 37
M  V30 37 2 37 38
M  V30 38 1 38 39
M  V30 39 2 39 40
M  V30 40 2 34 41
M  V30 41 2 23 42
M  V30 42 1 8 4
M  V30 43 1 16 11
M  V30 44 1 42 19
M  V30 45 1 18 6
M  V30 46 1 28 24
M  V30 47 1 41 31
M  V30 48 1 40 35
M  V30 49 1 3 43
M  V30 50 1 9 44
M  V30 51 1 9 45
M  V30 52 1 10 46 CFG=1
M  V30 53 1 12 47
M  V30 54 1 12 48
M  V30 55 1 13 49
M  V30 56 1 13 50
M  V30 57 1 15 51
M  V30 58 1 15 52
M  V30 59 1 16 53
M  V30 60 1 16 54
M  V30 61 1 17 55
M  V30 62 1 17 56
M  V30 63 1 18 57
M  V30 64 1 18 58
M  V30 65 1 20 59
M  V30 66 1 21 60
M  V30 67 1 22 61
M  V30 68 1 24 62 CFG=3
M  V30 69 1 25 63
M  V30 70 1 25 64
M  V30 71 1 26 65
M  V30 72 1 26 66
M  V30 73 1 27 67
M  V30 74 1 27 68
M  V30 75 1 32 69
M  V30 76 1 36 70
M  V30 77 1 37 71
M  V30 78 1 38 72
M  V30 79 1 40 73
M  V30 80 1 42 74
M  V30 END BOND
M  V30 END CTAB
M  END
>  <Dataset>  (706) 
ChEMBL_Kinases

>  <Ligand_Instance>  (706) 
nan

>  <PDB_ID>  (706) 
nan

>  <Standardized_SMILES>  (706) 
O=C(Nc1nc2c(s1)C[C@@H](N1CCOCC1)CC2)c1cccc([C@H]2CCCN2C(=O)c2csc(-c3cccnc3)n2)c1

>  <Name>  (706) 
nan

>  <Pocket>  (706) 
nan

>  <ATP_Site>  (706) 
nan

>  <Peripheral>  (706) 
nan

>  <Num_H_Atoms_ProtBoundConf>  (706) 
nan

>  <Num_Resolved_Atoms>  (706) 
nan

>  <Num_Not_Resolved_Atoms>  (706) 
nan

$$$$
CHEMBL3731078
     RDKit          3D

  0  0  0  0  0  0  0  0  0  0999 V3000
M  V30 BEGIN CTAB
M  V30 COUNTS 48 51 0 0 0
M  V30 BEGIN ATOM
M  V30 1 C 1.468652 -4.591457 1.179441 0
M  V30 2 N 0.205784 -3.889795 1.193543 0
M  V30 3 C 0.093538 -2.697136 0.593070 0
M  V30 4 N 1.102723 -2.025232 -0.150383 0
M  V30 5 C 2.380471 -2.300341 -0.697400 0
M  V30 6 C 3.457816 -1.419414 -0.045560 0
M  V30 7 O 3.160821 -0.069659 -0.279589 0
M  V30 8 C 1.905979 0.170122 0.295287 0 CFG=1
M  V30 9 C 1.592786 1.601737 0.368203 0
M  V30 10 C 0.465682 2.312229 0.046642 0
M  V30 11 C 0.425212 3.678292 0.218718 0
M  V30 12 C 1.504536 4.378913 0.715428 0
M  V30 13 N 1.432527 5.788184 0.883285 0
M  V30 14 C 2.655689 3.685348 1.047889 0
M  V30 15 C 2.679520 2.296864 0.866673 0
M  V30 16 C 0.886935 -0.621949 -0.476666 0
M  V30 17 N -1.098909 -2.087393 0.662572 0
M  V30 18 C -2.177390 -2.576972 1.280901 0
M  V30 19 C -3.385503 -1.775882 1.248060 0
M  V30 20 C -3.360002 -0.565036 0.590435 0
M  V30 21 C -4.469321 0.251215 0.514890 0
M  V30 22 N -5.651986 -0.101117 1.089738 0
M  V30 23 C -5.733953 -1.279072 1.747990 0
M  V30 24 C -4.603927 -2.061636 1.798700 0
M  V30 25 F -4.729852 -3.228006 2.464133 0
M  V30 26 C -1.999804 -3.797192 1.873444 0
M  V30 27 C -0.808513 -4.482163 1.844976 0
M  V30 28 O -0.681241 -5.601649 2.400425 0
M  V30 29 H 1.681929 -5.164442 0.282070 0
M  V30 30 H 2.242986 -3.878472 1.516592 0
M  V30 31 H 1.462793 -5.367987 2.014550 0
M  V30 32 H 2.438879 -2.018809 -1.803533 0
M  V30 33 H 2.752737 -3.324858 -0.667339 0
M  V30 34 H 4.420413 -1.637752 -0.548678 0
M  V30 35 H 3.560172 -1.603206 1.024566 0
M  V30 36 H 1.998240 -0.234752 1.349853 0
M  V30 37 H -0.324347 1.681969 -0.334864 0
M  V30 38 H -0.501767 4.151419 -0.059928 0
M  V30 39 H 2.275413 6.364048 1.064315 0
M  V30 40 H 0.496603 6.256621 0.821965 0
M  V30 41 H 3.468547 4.284369 1.431350 0
M  V30 42 H 3.656810 1.909656 1.175525 0
M  V30 43 H -0.150675 -0.328548 -0.202587 0
M  V30 44 H 1.012804 -0.449571 -1.549081 0
M  V30 45 H -2.511102 -0.151764 0.091071 0
M  V30 46 H -4.481253 1.202395 0.008765 0
M  V30 47 H -6.656290 -1.591955 2.215179 0
M  V30 48 H -2.817139 -4.257375 2.390092 0
M  V30 END ATOM
M  V30 BEGIN BOND
M  V30 1 1 1 2
M  V30 2 1 2 3
M  V30 3 1 3 4
M  V30 4 1 4 5
M  V30 5 1 5 6
M  V30 6 1 6 7
M  V30 7 1 7 8
M  V30 8 1 8 9
M  V30 9 2 9 10
M  V30 10 1 10 11
M  V30 11 2 11 12
M  V30 12 1 12 13
M  V30 13 1 12 14
M  V30 14 2 14 15
M  V30 15 1 8 16
M  V30 16 2 3 17
M  V30 17 1 17 18
M  V30 18 1 18 19
M  V30 19 2 19 20
M  V30 20 1 20 21
M  V30 21 2 21 22
M  V30 22 1 22 23
M  V30 23 2 23 24
M  V30 24 1 24 25
M  V30 25 2 18 26
M  V30 26 1 26 27
M  V30 27 2 27 28
M  V30 28 1 27 2
M  V30 29 1 16 4
M  V30 30 1 24 19
M  V30 31 1 15 9
M  V30 32 1 1 29
M  V30 33 1 1 30
M  V30 34 1 1 31
M  V30 35 1 5 32
M  V30 36 1 5 33
M  V30 37 1 6 34
M  V30 38 1 6 35
M  V30 39 1 8 36 CFG=1
M  V30 40 1 10 37
M  V30 41 1 11 38
M  V30 42 1 13 39
M  V30 43 1 13 40
M  V30 44 1 14 41
M  V30 45 1 15 42
M  V30 46 1 16 43
M  V30 47 1 16 44
M  V30 48 1 20 45
M  V30 49 1 21 46
M  V30 50 1 23 47
M  V30 51 1 26 48
M  V30 END BOND
M  V30 END CTAB
M  END
>  <Dataset>  (707) 
ChEMBL_Kinases

>  <Ligand_Instance>  (707) 
nan

>  <PDB_ID>  (707) 
nan

>  <Standardized_SMILES>  (707) 
Cn1c(N2CCO[C@@H](c3ccc(N)cc3)C2)nc(-c2ccncc2F)cc1=O

>  <Name>  (707) 
nan

>  <Pocket>  (707) 
nan

>  <ATP_Site>  (707) 
nan

>  <Peripheral>  (707) 
nan

>  <Num_H_Atoms_ProtBoundConf>  (707) 
nan

>  <Num_Resolved_Atoms>  (707) 
nan

>  <Num_Not_Resolved_Atoms>  (707) 
nan

$$$$
CHEMBL3731054
     RDKit          3D

  0  0  0  0  0  0  0  0  0  0999 V3000
M  V30 BEGIN CTAB
M  V30 COUNTS 47 51 0 0 0
M  V30 BEGIN ATOM
M  V30 1 C -1.722363 -5.421710 3.259333 0
M  V30 2 C -1.283601 -6.181638 2.211208 0
M  V30 3 C -0.470772 -5.676980 1.218997 0
M  V30 4 C -0.082568 -4.351036 1.283758 0
M  V30 5 N 0.762360 -3.809532 0.260745 0
M  V30 6 C 1.152954 -2.455880 0.335702 0
M  V30 7 C 2.578572 -2.270306 0.412242 0
M  V30 8 S 2.834282 -0.405464 0.501099 0
M  V30 9 C 1.155717 -0.040268 0.434917 0
M  V30 10 C 0.416025 1.132056 0.447823 0
M  V30 11 N 1.138454 2.338206 0.530734 0
M  V30 12 C 2.280340 3.172255 0.616314 0 CFG=2
M  V30 13 C 3.245159 3.049578 -0.541159 0
M  V30 14 C 4.575405 3.354383 0.055244 0
M  V30 15 N 4.348855 3.739404 1.436024 0
M  V30 16 C 3.151742 2.972873 1.823536 0
M  V30 17 N -0.944386 1.101729 0.381471 0
M  V30 18 C -1.506956 -0.110031 0.304576 0
M  V30 19 C -2.964780 -0.118145 0.234434 0
M  V30 20 C -3.701875 1.036354 0.246649 0
M  V30 21 C -5.074159 0.915939 0.175969 0
M  V30 22 N -5.746333 -0.264994 0.095171 0
M  V30 23 C -4.951689 -1.359337 0.088190 0
M  V30 24 C -3.581190 -1.348721 0.154264 0
M  V30 25 N -0.778680 -1.227870 0.293339 0
M  V30 26 C 0.563752 -1.249970 0.356697 0
M  V30 27 N -0.501545 -3.588581 2.302888 0
M  V30 28 C -1.285756 -4.103895 3.246054 0
M  V30 29 H -2.362503 -5.754532 4.072827 0
M  V30 30 H -1.595627 -7.221637 2.171957 0
M  V30 31 H -0.118211 -6.253059 0.393954 0
M  V30 32 H 1.081703 -4.390536 -0.517136 0
M  V30 33 H 3.447088 -3.138542 0.418628 0
M  V30 34 H 0.398242 3.111927 0.532303 0
M  V30 35 H 2.039550 4.279381 0.640340 0
M  V30 36 H 3.036784 3.846316 -1.302610 0
M  V30 37 H 3.261061 2.051709 -1.000947 0
M  V30 38 H 5.091061 4.179000 -0.435021 0
M  V30 39 H 5.252684 2.456131 0.029238 0
M  V30 40 H 4.127602 4.749874 1.531523 0
M  V30 41 H 2.676706 3.451342 2.707453 0
M  V30 42 H 3.501054 1.974086 2.025077 0
M  V30 43 H -3.206438 1.980950 0.309254 0
M  V30 44 H -5.602107 1.881695 0.190430 0
M  V30 45 H -5.482825 -2.306837 0.023756 0
M  V30 46 H -2.995923 -2.258539 0.144855 0
M  V30 47 H -1.566776 -3.411419 4.019499 0
M  V30 END ATOM
M  V30 BEGIN BOND
M  V30 1 2 1 2
M  V30 2 1 2 3
M  V30 3 2 3 4
M  V30 4 1 4 5
M  V30 5 1 5 6
M  V30 6 2 6 7
M  V30 7 1 7 8
M  V30 8 1 8 9
M  V30 9 2 9 10
M  V30 10 1 10 11
M  V30 11 1 11 12
M  V30 12 1 12 13
M  V30 13 1 13 14
M  V30 14 1 14 15
M  V30 15 1 15 16
M  V30 16 1 10 17
M  V30 17 2 17 18
M  V30 18 1 18 19
M  V30 19 2 19 20
M  V30 20 1 20 21
M  V30 21 2 21 22
M  V30 22 1 22 23
M  V30 23 2 23 24
M  V30 24 1 18 25
M  V30 25 2 25 26
M  V30 26 1 4 27
M  V30 27 2 27 28
M  V30 28 1 28 1
M  V30 29 1 26 6
M  V30 30 1 26 9
M  V30 31 1 16 12
M  V30 32 1 24 19
M  V30 33 1 1 29
M  V30 34 1 2 30
M  V30 35 1 3 31
M  V30 36 1 5 32
M  V30 37 1 7 33
M  V30 38 1 11 34
M  V30 39 1 12 35 CFG=1
M  V30 40 1 13 36
M  V30 41 1 13 37
M  V30 42 1 14 38
M  V30 43 1 14 39
M  V30 44 1 15 40
M  V30 45 1 16 41
M  V30 46 1 16 42
M  V30 47 1 20 43
M  V30 48 1 21 44
M  V30 49 1 23 45
M  V30 50 1 24 46
M  V30 51 1 28 47
M  V30 END BOND
M  V30 END CTAB
M  END
>  <Dataset>  (708) 
ChEMBL_Kinases

>  <Ligand_Instance>  (708) 
nan

>  <PDB_ID>  (708) 
nan

>  <Standardized_SMILES>  (708) 
c1ccc(Nc2csc3c(N[C@@H]4CCNC4)nc(-c4ccncc4)nc23)nc1

>  <Name>  (708) 
nan

>  <Pocket>  (708) 
nan

>  <ATP_Site>  (708) 
nan

>  <Peripheral>  (708) 
nan

>  <Num_H_Atoms_ProtBoundConf>  (708) 
nan

>  <Num_Resolved_Atoms>  (708) 
nan

>  <Num_Not_Resolved_Atoms>  (708) 
nan

$$$$
CHEMBL3731044
     RDKit          3D

  0  0  0  0  0  0  0  0  0  0999 V3000
M  V30 BEGIN CTAB
M  V30 COUNTS 58 62 0 0 0
M  V30 BEGIN ATOM
M  V30 1 C 4.491727 -3.332736 -0.498221 0
M  V30 2 C 4.923438 -3.191163 0.896208 0
M  V30 3 C 5.727278 -4.091644 1.570304 0
M  V30 4 C 6.096940 -3.896437 2.886455 0
M  V30 5 C 5.639560 -2.763835 3.527092 0
M  V30 6 C 4.828670 -1.833460 2.883411 0
M  V30 7 C 4.469675 -2.056529 1.549927 0
M  V30 8 C 3.621643 -1.005025 1.006547 0
M  V30 9 C 4.328396 0.060202 0.398761 0
M  V30 10 S 2.944320 1.223522 -0.186130 0
M  V30 11 C 1.674212 0.196393 0.421454 0
M  V30 12 C 0.292118 0.346186 0.390271 0
M  V30 13 N -0.195661 1.524901 -0.235675 0
M  V30 14 C -1.630877 1.699535 -0.278219 0
M  V30 15 C -2.028317 2.984061 -0.963522 0 CFG=1
M  V30 16 N -1.582901 3.063033 -2.315583 0
M  V30 17 C -3.511630 3.242058 -0.829297 0
M  V30 18 C -4.311587 2.161621 -1.427533 0
M  V30 19 C -4.663841 1.094674 -0.597892 0
M  V30 20 C -5.414584 0.033727 -1.072452 0
M  V30 21 C -5.846132 -0.022262 -2.369321 0
M  V30 22 C -5.503025 1.037241 -3.214882 0
M  V30 23 C -4.755004 2.090468 -2.734878 0
M  V30 24 N -0.526758 -0.580221 0.926397 0
M  V30 25 C 0.097095 -1.659584 1.493214 0
M  V30 26 C -0.700779 -2.741112 2.113297 0
M  V30 27 C -0.116188 -3.845016 2.694903 0
M  V30 28 C -0.908820 -4.830038 3.262064 0
M  V30 29 N -2.255254 -4.714982 3.248580 0
M  V30 30 C -2.796644 -3.615187 2.667636 0
M  V30 31 C -2.067958 -2.599316 2.085968 0
M  V30 32 F -2.722311 -1.539136 1.530808 0
M  V30 33 N 1.432003 -1.802784 1.522531 0
M  V30 34 C 2.259130 -0.882803 0.989618 0
M  V30 35 H 5.166120 -4.100042 -0.960163 0
M  V30 36 H 4.669920 -2.406154 -1.062268 0
M  V30 37 H 3.469910 -3.743891 -0.588493 0
M  V30 38 H 6.044264 -4.957781 0.992241 0
M  V30 39 H 6.737731 -4.632712 3.393365 0
M  V30 40 H 5.953371 -2.646447 4.564606 0
M  V30 41 H 4.536725 -0.989648 3.491936 0
M  V30 42 H 5.351884 0.263284 0.250377 0
M  V30 43 H 0.406234 2.244049 -0.650700 0
M  V30 44 H -2.069156 1.612090 0.725223 0
M  V30 45 H -2.039005 0.835381 -0.864185 0
M  V30 46 H -1.531888 3.820032 -0.407785 0
M  V30 47 H -0.557785 3.286691 -2.321484 0
M  V30 48 H -2.049786 3.903824 -2.742768 0
M  V30 49 H -3.770824 3.357707 0.244953 0
M  V30 50 H -3.701336 4.230817 -1.313290 0
M  V30 51 H -4.380191 1.029305 0.443419 0
M  V30 52 H -5.683978 -0.794211 -0.415837 0
M  V30 53 H -6.429590 -0.869188 -2.696750 0
M  V30 54 H -5.834281 1.013057 -4.245107 0
M  V30 55 H -4.481947 2.917165 -3.377307 0
M  V30 56 H 0.972259 -3.917973 2.694848 0
M  V30 57 H -0.440252 -5.690890 3.715146 0
M  V30 58 H -3.881730 -3.556667 2.675451 0
M  V30 END ATOM
M  V30 BEGIN BOND
M  V30 1 1 1 2
M  V30 2 2 2 3
M  V30 3 1 3 4
M  V30 4 2 4 5
M  V30 5 1 5 6
M  V30 6 2 6 7
M  V30 7 1 7 8
M  V30 8 2 8 9
M  V30 9 1 9 10
M  V30 10 1 10 11
M  V30 11 2 11 12
M  V30 12 1 12 13
M  V30 13 1 13 14
M  V30 14 1 14 15
M  V30 15 1 15 16
M  V30 16 1 15 17
M  V30 17 1 17 18
M  V30 18 2 18 19
M  V30 19 1 19 20
M  V30 20 2 20 21
M  V30 21 1 21 22
M  V30 22 2 22 23
M  V30 23 1 12 24
M  V30 24 2 24 25
M  V30 25 1 25 26
M  V30 26 2 26 27
M  V30 27 1 27 28
M  V30 28 2 28 29
M  V30 29 1 29 30
M  V30 30 2 30 31
M  V30 31 1 31 32
M  V30 32 1 25 33
M  V30 33 2 33 34
M  V30 34 1 7 2
M  V30 35 1 34 8
M  V30 36 1 34 11
M  V30 37 1 23 18
M  V30 38 1 31 26
M  V30 39 1 1 35
M  V30 40 1 1 36
M  V30 41 1 1 37
M  V30 42 1 3 38
M  V30 43 1 4 39
M  V30 44 1 5 40
M  V30 45 1 6 41
M  V30 46 1 9 42
M  V30 47 1 13 43
M  V30 48 1 14 44
M  V30 49 1 14 45
M  V30 50 1 15 46 CFG=1
M  V30 51 1 16 47
M  V30 52 1 16 48
M  V30 53 1 17 49
M  V30 54 1 17 50
M  V30 55 1 19 51
M  V30 56 1 20 52
M  V30 57 1 21 53
M  V30 58 1 22 54
M  V30 59 1 23 55
M  V30 60 1 27 56
M  V30 61 1 28 57
M  V30 62 1 30 58
M  V30 END BOND
M  V30 END CTAB
M  END
>  <Dataset>  (709) 
ChEMBL_Kinases

>  <Ligand_Instance>  (709) 
nan

>  <PDB_ID>  (709) 
nan

>  <Standardized_SMILES>  (709) 
Cc1ccccc1-c1csc2c(NC[C@@H](N)Cc3ccccc3)nc(-c3ccncc3F)nc12

>  <Name>  (709) 
nan

>  <Pocket>  (709) 
nan

>  <ATP_Site>  (709) 
nan

>  <Peripheral>  (709) 
nan

>  <Num_H_Atoms_ProtBoundConf>  (709) 
nan

>  <Num_Resolved_Atoms>  (709) 
nan

>  <Num_Not_Resolved_Atoms>  (709) 
nan

$$$$
CHEMBL3731040
     RDKit          3D

  0  0  0  0  0  0  0  0  0  0999 V3000
M  V30 BEGIN CTAB
M  V30 COUNTS 66 70 0 0 0
M  V30 BEGIN ATOM
M  V30 1 C 2.971007 2.072269 3.860282 0
M  V30 2 C 2.302660 0.739677 3.804863 0
M  V30 3 C 3.366569 -0.328835 3.672303 0
M  V30 4 C 1.602024 0.494555 5.124596 0
M  V30 5 C 1.328592 0.599463 2.734880 0
M  V30 6 S 1.450895 -0.618629 1.451297 0
M  V30 7 C -0.144054 -0.057798 0.609501 0
M  V30 8 C -0.762212 -0.579453 -0.564576 0
M  V30 9 N -0.105284 -1.662258 -1.194915 0
M  V30 10 C -0.800859 -2.127573 -2.376489 0
M  V30 11 C -0.084924 -3.282330 -3.033984 0 CFG=1
M  V30 12 N 1.243570 -2.994594 -3.467483 0
M  V30 13 C -0.064114 -4.477293 -2.075864 0
M  V30 14 C 0.627535 -5.645967 -2.666387 0
M  V30 15 C 1.990443 -5.724901 -2.433401 0
M  V30 16 C 2.688682 -6.794629 -2.960448 0
M  V30 17 C 2.075101 -7.782409 -3.708001 0
M  V30 18 C 0.709816 -7.646405 -3.905643 0
M  V30 19 C -0.046028 -6.598375 -3.404167 0
M  V30 20 N -1.894788 0.019348 -0.932273 0
M  V30 21 C -2.326851 1.035816 -0.168496 0
M  V30 22 C -3.581726 1.718592 -0.553711 0
M  V30 23 C -4.116815 2.769440 0.153342 0
M  V30 24 C -5.282722 3.394230 -0.215621 0
M  V30 25 N -5.898119 2.934486 -1.315924 0
M  V30 26 C -5.392239 1.909169 -2.020895 0
M  V30 27 C -4.215317 1.251460 -1.679430 0
M  V30 28 N -1.731826 1.514107 0.934288 0
M  V30 29 C -0.589571 1.009735 1.419317 0
M  V30 30 C 0.196280 1.304761 2.489518 0
M  V30 31 C -0.196490 2.412349 3.391451 0
M  V30 32 C -0.983239 2.402069 4.524636 0
M  V30 33 C -1.185673 3.600618 5.173551 0
M  V30 34 C -0.618641 4.765197 4.701088 0
M  V30 35 F -0.939372 5.845425 5.485662 0
M  V30 36 N 0.142190 4.763488 3.601774 0
M  V30 37 C 0.361792 3.615561 2.943105 0
M  V30 38 H 3.054450 2.548009 2.853299 0
M  V30 39 H 4.029984 1.926200 4.175909 0
M  V30 40 H 2.543881 2.745577 4.633190 0
M  V30 41 H 4.155416 -0.026593 2.948533 0
M  V30 42 H 2.938714 -1.320488 3.446597 0
M  V30 43 H 3.844693 -0.420962 4.671186 0
M  V30 44 H 0.611107 0.022863 4.948800 0
M  V30 45 H 2.166114 -0.252567 5.755719 0
M  V30 46 H 1.495852 1.454189 5.671512 0
M  V30 47 H 0.781869 -2.056385 -0.820864 0
M  V30 48 H -0.821558 -1.284868 -3.106501 0
M  V30 49 H -1.837264 -2.434013 -2.206911 0
M  V30 50 H -0.675461 -3.628393 -3.905772 0
M  V30 51 H 1.463079 -3.353187 -4.418422 0
M  V30 52 H 1.528861 -1.998693 -3.440275 0
M  V30 53 H -1.108542 -4.717831 -1.762519 0
M  V30 54 H 0.444444 -4.120004 -1.147986 0
M  V30 55 H 2.507413 -4.979373 -1.858020 0
M  V30 56 H 3.752569 -6.902262 -2.807454 0
M  V30 57 H 2.620713 -8.620344 -4.121128 0
M  V30 58 H 0.221266 -8.412294 -4.487930 0
M  V30 59 H -1.108217 -6.519847 -3.575078 0
M  V30 60 H -3.578533 3.094480 1.027285 0
M  V30 61 H -5.659561 4.218656 0.379074 0
M  V30 62 H -5.891430 1.532749 -2.917415 0
M  V30 63 H -3.851627 0.422120 -2.292020 0
M  V30 64 H -1.339913 1.408234 4.744126 0
M  V30 65 H -1.823078 3.498742 6.063825 0
M  V30 66 H 0.995252 3.751619 2.068734 0
M  V30 END ATOM
M  V30 BEGIN BOND
M  V30 1 1 1 2
M  V30 2 1 2 3
M  V30 3 1 2 4
M  V30 4 1 2 5
M  V30 5 1 5 6
M  V30 6 1 6 7
M  V30 7 2 7 8
M  V30 8 1 8 9
M  V30 9 1 9 10
M  V30 10 1 10 11
M  V30 11 1 11 12
M  V30 12 1 11 13
M  V30 13 1 13 14
M  V30 14 2 14 15
M  V30 15 1 15 16
M  V30 16 2 16 17
M  V30 17 1 17 18
M  V30 18 2 18 19
M  V30 19 1 8 20
M  V30 20 2 20 21
M  V30 21 1 21 22
M  V30 22 2 22 23
M  V30 23 1 23 24
M  V30 24 2 24 25
M  V30 25 1 25 26
M  V30 26 2 26 27
M  V30 27 1 21 28
M  V30 28 2 28 29
M  V30 29 1 29 30
M  V30 30 1 30 31
M  V30 31 2 31 32
M  V30 32 1 32 33
M  V30 33 2 33 34
M  V30 34 1 34 35
M  V30 35 1 34 36
M  V30 36 2 36 37
M  V30 37 2 30 5
M  V30 38 1 37 31
M  V30 39 1 29 7
M  V30 40 1 19 14
M  V30 41 1 27 22
M  V30 42 1 1 38
M  V30 43 1 1 39
M  V30 44 1 1 40
M  V30 45 1 3 41
M  V30 46 1 3 42
M  V30 47 1 3 43
M  V30 48 1 4 44
M  V30 49 1 4 45
M  V30 50 1 4 46
M  V30 51 1 9 47
M  V30 52 1 10 48
M  V30 53 1 10 49
M  V30 54 1 11 50 CFG=3
M  V30 55 1 12 51
M  V30 56 1 12 52
M  V30 57 1 13 53
M  V30 58 1 13 54
M  V30 59 1 15 55
M  V30 60 1 16 56
M  V30 61 1 17 57
M  V30 62 1 18 58
M  V30 63 1 19 59
M  V30 64 1 23 60
M  V30 65 1 24 61
M  V30 66 1 26 62
M  V30 67 1 27 63
M  V30 68 1 32 64
M  V30 69 1 33 65
M  V30 70 1 37 66
M  V30 END BOND
M  V30 END CTAB
M  END
>  <Dataset>  (710) 
ChEMBL_Kinases

>  <Ligand_Instance>  (710) 
nan

>  <PDB_ID>  (710) 
nan

>  <Standardized_SMILES>  (710) 
CC(C)(C)c1sc2c(NC[C@@H](N)Cc3ccccc3)nc(-c3ccncc3)nc2c1-c1ccc(F)nc1

>  <Name>  (710) 
nan

>  <Pocket>  (710) 
nan

>  <ATP_Site>  (710) 
nan

>  <Peripheral>  (710) 
nan

>  <Num_H_Atoms_ProtBoundConf>  (710) 
nan

>  <Num_Resolved_Atoms>  (710) 
nan

>  <Num_Not_Resolved_Atoms>  (710) 
nan

$$$$
CHEMBL3731018
     RDKit          3D

  0  0  0  0  0  0  0  0  0  0999 V3000
M  V30 BEGIN CTAB
M  V30 COUNTS 71 75 0 0 0
M  V30 BEGIN ATOM
M  V30 1 C 3.331202 4.032967 3.420443 0
M  V30 2 C 3.200723 2.613456 2.923034 0
M  V30 3 C 4.344545 1.848055 2.988821 0
M  V30 4 C 4.249209 0.518943 2.607854 0
M  V30 5 C 3.057960 -0.073015 2.165184 0
M  V30 6 O 2.876624 -1.348133 1.788699 0
M  V30 7 C 3.620088 -2.483013 1.738539 0
M  V30 8 C 2.973519 -3.603453 2.591863 0
M  V30 9 C 3.625236 -3.025801 0.309446 0
M  V30 10 C 2.029501 0.837913 2.163503 0
M  V30 11 C 0.775826 0.196456 1.666688 0
M  V30 12 C -0.089640 -0.461733 2.571806 0
M  V30 13 C -0.139321 -0.590801 4.006343 0
M  V30 14 S -1.328428 -1.125683 1.318385 0
M  V30 15 C -0.451915 -0.402262 -0.056049 0
M  V30 16 C -1.260261 -0.784869 -1.023465 0
M  V30 17 N -2.059207 -1.160036 -2.014738 0
M  V30 18 C -3.065891 -1.827656 -1.186245 0
M  V30 19 C -3.999260 -2.728548 -1.979455 0 CFG=1
M  V30 20 N -3.115880 -3.703509 -2.650014 0
M  V30 21 C -4.800872 -3.524980 -0.998116 0
M  V30 22 C -5.642122 -2.697469 -0.076064 0
M  V30 23 C -6.968281 -2.491685 -0.547518 0
M  V30 24 C -7.546283 -1.714551 0.416420 0
M  V30 25 C -7.285404 -1.139324 1.554235 0
M  V30 26 C -5.949355 -1.420236 1.906204 0
M  V30 27 C -5.079027 -2.194665 1.129517 0
M  V30 28 N -0.575946 -0.185296 -2.128113 0
M  V30 29 C 0.553049 0.519522 -1.952055 0
M  V30 30 C 1.369977 1.193123 -2.998124 0
M  V30 31 C 1.105945 1.243441 -4.298882 0
M  V30 32 C 1.623333 1.749617 -5.418713 0
M  V30 33 N 2.704293 2.364112 -5.105374 0
M  V30 34 C 3.262580 2.501139 -3.855135 0
M  V30 35 C 2.586647 1.908421 -2.787102 0
M  V30 36 N 1.162272 0.753813 -0.761381 0
M  V30 37 C 0.651966 0.267899 0.346896 0
M  V30 38 C 1.930990 2.157721 2.494926 0
M  V30 39 H 2.286582 4.328508 3.740939 0
M  V30 40 H 3.655121 4.735721 2.661192 0
M  V30 41 H 3.917186 4.065297 4.360623 0
M  V30 42 H 5.266483 2.279988 3.321174 0
M  V30 43 H 5.153716 -0.108112 2.656018 0
M  V30 44 H 4.671893 -2.443971 2.067970 0
M  V30 45 H 3.448305 -4.537589 2.248692 0
M  V30 46 H 3.211531 -3.475530 3.663505 0
M  V30 47 H 1.871790 -3.653425 2.418124 0
M  V30 48 H 4.411119 -3.798560 0.239273 0
M  V30 49 H 3.819547 -2.208536 -0.415670 0
M  V30 50 H 2.647928 -3.474285 0.049718 0
M  V30 51 H -0.044680 0.393486 4.503122 0
M  V30 52 H -1.194283 -0.911850 4.263354 0
M  V30 53 H 0.562904 -1.355310 4.359368 0
M  V30 54 H -2.571291 -1.376970 -2.842016 0
M  V30 55 H -3.630309 -1.068840 -0.628098 0
M  V30 56 H -2.547286 -2.533903 -0.500875 0
M  V30 57 H -4.548527 -2.210586 -2.744601 0
M  V30 58 H -3.275609 -3.652522 -3.681017 0
M  V30 59 H -2.112998 -3.505765 -2.378427 0
M  V30 60 H -5.414400 -4.292394 -1.458737 0
M  V30 61 H -4.048256 -4.029661 -0.304701 0
M  V30 62 H -7.439524 -2.828475 -1.427036 0
M  V30 63 H -8.612322 -1.481301 0.178545 0
M  V30 64 H -7.645834 -0.529546 2.328432 0
M  V30 65 H -5.361070 -1.117332 2.787790 0
M  V30 66 H -4.057615 -2.449551 1.328380 0
M  V30 67 H 0.158662 0.689480 -4.526715 0
M  V30 68 H 1.226525 1.665803 -6.413621 0
M  V30 69 H 4.158294 3.005444 -3.568496 0
M  V30 70 H 2.930646 1.955617 -1.743003 0
M  V30 71 H 1.064656 2.775359 2.454131 0
M  V30 END ATOM
M  V30 BEGIN BOND
M  V30 1 1 1 2
M  V30 2 2 2 3
M  V30 3 1 3 4
M  V30 4 2 4 5
M  V30 5 1 5 6
M  V30 6 1 6 7
M  V30 7 1 7 8
M  V30 8 1 7 9
M  V30 9 1 5 10
M  V30 10 1 10 11
M  V30 11 2 11 12
M  V30 12 1 12 13
M  V30 13 1 12 14
M  V30 14 1 14 15
M  V30 15 2 15 16
M  V30 16 1 16 17
M  V30 17 1 17 18
M  V30 18 1 18 19
M  V30 19 1 19 20
M  V30 20 1 19 21
M  V30 21 1 21 22
M  V30 22 2 22 23
M  V30 23 1 23 24
M  V30 24 2 24 25
M  V30 25 1 25 26
M  V30 26 2 26 27
M  V30 27 1 16 28
M  V30 28 2 28 29
M  V30 29 1 29 30
M  V30 30 2 30 31
M  V30 31 1 31 32
M  V30 32 2 32 33
M  V30 33 1 33 34
M  V30 34 2 34 35
M  V30 35 1 29 36
M  V30 36 2 36 37
M  V30 37 2 10 38
M  V30 38 1 38 2
M  V30 39 1 37 11
M  V30 40 1 37 15
M  V30 41 1 27 22
M  V30 42 1 35 30
M  V30 43 1 1 39
M  V30 44 1 1 40
M  V30 45 1 1 41
M  V30 46 1 3 42
M  V30 47 1 4 43
M  V30 48 1 7 44
M  V30 49 1 8 45
M  V30 50 1 8 46
M  V30 51 1 8 47
M  V30 52 1 9 48
M  V30 53 1 9 49
M  V30 54 1 9 50
M  V30 55 1 13 51
M  V30 56 1 13 52
M  V30 57 1 13 53
M  V30 58 1 17 54
M  V30 59 1 18 55
M  V30 60 1 18 56
M  V30 61 1 19 57 CFG=3
M  V30 62 1 20 58
M  V30 63 1 20 59
M  V30 64 1 21 60
M  V30 65 1 21 61
M  V30 66 1 23 62
M  V30 67 1 24 63
M  V30 68 1 25 64
M  V30 69 1 26 65
M  V30 70 1 27 66
M  V30 71 1 31 67
M  V30 72 1 32 68
M  V30 73 1 34 69
M  V30 74 1 35 70
M  V30 75 1 38 71
M  V30 END BOND
M  V30 END CTAB
M  END
>  <Dataset>  (711) 
ChEMBL_Kinases

>  <Ligand_Instance>  (711) 
nan

>  <PDB_ID>  (711) 
nan

>  <Standardized_SMILES>  (711) 
Cc1ccc(OC(C)C)c(-c2c(C)sc3c(NC[C@@H](N)Cc4ccccc4)nc(-c4ccncc4)nc23)c1

>  <Name>  (711) 
nan

>  <Pocket>  (711) 
nan

>  <ATP_Site>  (711) 
nan

>  <Peripheral>  (711) 
nan

>  <Num_H_Atoms_ProtBoundConf>  (711) 
nan

>  <Num_Resolved_Atoms>  (711) 
nan

>  <Num_Not_Resolved_Atoms>  (711) 
nan

$$$$
CHEMBL3731001
     RDKit          3D

  0  0  0  0  0  0  0  0  0  0999 V3000
M  V30 BEGIN CTAB
M  V30 COUNTS 53 57 0 0 0
M  V30 BEGIN ATOM
M  V30 1 N -3.020284 -1.902204 -0.984806 0
M  V30 2 C -1.802594 -2.604906 -0.624042 0 CFG=2
M  V30 3 C -0.699617 -1.622326 -0.442235 0
M  V30 4 N -0.909802 -0.625078 0.582779 0
M  V30 5 C 0.072283 0.368078 0.853807 0
M  V30 6 N 1.161538 0.292703 0.099385 0
M  V30 7 C 2.203938 1.102725 0.167638 0
M  V30 8 C 3.413542 1.064822 -0.629115 0
M  V30 9 C 3.480778 1.089312 -2.023848 0
M  V30 10 N 4.798655 1.037057 -2.335292 0
M  V30 11 N 5.539143 0.982580 -1.234961 0
M  V30 12 C 4.720206 0.997768 -0.163880 0
M  V30 13 N 2.107838 2.067580 1.092547 0
M  V30 14 C 1.037300 2.194083 1.880977 0
M  V30 15 S 0.583326 3.367074 3.218278 0
M  V30 16 C -0.949637 2.673493 3.564009 0
M  V30 17 C -1.117475 1.557314 2.669681 0
M  V30 18 C -0.085284 1.329458 1.814382 0
M  V30 19 C -2.438413 1.037152 3.035210 0
M  V30 20 C -3.422390 2.190892 2.741590 0
M  V30 21 C -3.268011 3.274566 3.789763 0
M  V30 22 C -1.960504 3.077048 4.568555 0
M  V30 23 C -1.457056 -3.658191 -1.622652 0
M  V30 24 C -0.208301 -4.381870 -1.256613 0
M  V30 25 C 1.073136 -4.022646 -1.640825 0
M  V30 26 C 2.154528 -4.785303 -1.230086 0
M  V30 27 C 1.974384 -5.908619 -0.436268 0
M  V30 28 C 0.715504 -6.292963 -0.037138 0
M  V30 29 C -0.339788 -5.520919 -0.457128 0
M  V30 30 H -3.778652 -2.556655 -1.272479 0
M  V30 31 H -2.867946 -1.112408 -1.640862 0
M  V30 32 H -2.002411 -3.113272 0.347886 0
M  V30 33 H -0.414168 -1.100045 -1.381583 0
M  V30 34 H 0.203831 -2.208205 -0.129574 0
M  V30 35 H -1.839557 -0.881554 0.938033 0
M  V30 36 H 2.654928 1.139760 -2.727615 0
M  V30 37 H 6.579679 0.935193 -1.169742 0
M  V30 38 H 4.981200 0.965473 0.888794 0
M  V30 39 H -2.826964 0.180422 2.520821 0
M  V30 40 H -2.489300 0.786715 4.127792 0
M  V30 41 H -3.129111 2.571782 1.741512 0
M  V30 42 H -4.451000 1.813174 2.662275 0
M  V30 43 H -3.175232 4.250509 3.269958 0
M  V30 44 H -4.149462 3.321531 4.434134 0
M  V30 45 H -1.686224 4.067168 4.948281 0
M  V30 46 H -2.095162 2.324442 5.371996 0
M  V30 47 H -1.319646 -3.280739 -2.644927 0
M  V30 48 H -2.285605 -4.403240 -1.684045 0
M  V30 49 H 1.148849 -3.141418 -2.256579 0
M  V30 50 H 3.134473 -4.457215 -1.560714 0
M  V30 51 H 2.825456 -6.498679 -0.120021 0
M  V30 52 H 0.544736 -7.164736 0.582221 0
M  V30 53 H -1.333591 -5.830663 -0.137672 0
M  V30 END ATOM
M  V30 BEGIN BOND
M  V30 1 1 1 2
M  V30 2 1 2 3
M  V30 3 1 3 4
M  V30 4 1 4 5
M  V30 5 2 5 6
M  V30 6 1 6 7
M  V30 7 1 7 8
M  V30 8 1 8 9
M  V30 9 2 9 10
M  V30 10 1 10 11
M  V30 11 1 11 12
M  V30 12 2 7 13
M  V30 13 1 13 14
M  V30 14 1 14 15
M  V30 15 1 15 16
M  V30 16 2 16 17
M  V30 17 1 17 18
M  V30 18 1 17 19
M  V30 19 1 19 20
M  V30 20 1 20 21
M  V30 21 1 21 22
M  V30 22 1 2 23
M  V30 23 1 23 24
M  V30 24 2 24 25
M  V30 25 1 25 26
M  V30 26 2 26 27
M  V30 27 1 27 28
M  V30 28 2 28 29
M  V30 29 1 18 5
M  V30 30 1 29 24
M  V30 31 2 12 8
M  V30 32 2 18 14
M  V30 33 1 22 16
M  V30 34 1 1 30
M  V30 35 1 1 31
M  V30 36 1 2 32 CFG=1
M  V30 37 1 3 33
M  V30 38 1 3 34
M  V30 39 1 4 35
M  V30 40 1 9 36
M  V30 41 1 11 37
M  V30 42 1 12 38
M  V30 43 1 19 39
M  V30 44 1 19 40
M  V30 45 1 20 41
M  V30 46 1 20 42
M  V30 47 1 21 43
M  V30 48 1 21 44
M  V30 49 1 22 45
M  V30 50 1 22 46
M  V30 51 1 23 47
M  V30 52 1 23 48
M  V30 53 1 25 49
M  V30 54 1 26 50
M  V30 55 1 27 51
M  V30 56 1 28 52
M  V30 57 1 29 53
M  V30 END BOND
M  V30 END CTAB
M  END
>  <Dataset>  (712) 
ChEMBL_Kinases

>  <Ligand_Instance>  (712) 
nan

>  <PDB_ID>  (712) 
nan

>  <Standardized_SMILES>  (712) 
N[C@H](CNc1nc(-c2cn[nH]c2)nc2sc3c(c12)CCCC3)Cc1ccccc1

>  <Name>  (712) 
nan

>  <Pocket>  (712) 
nan

>  <ATP_Site>  (712) 
nan

>  <Peripheral>  (712) 
nan

>  <Num_H_Atoms_ProtBoundConf>  (712) 
nan

>  <Num_Resolved_Atoms>  (712) 
nan

>  <Num_Not_Resolved_Atoms>  (712) 
nan

$$$$
CHEMBL3731000
     RDKit          3D

  0  0  0  0  0  0  0  0  0  0999 V3000
M  V30 BEGIN CTAB
M  V30 COUNTS 65 69 0 0 0
M  V30 BEGIN ATOM
M  V30 1 C 2.536939 1.227212 5.233753 0
M  V30 2 C 3.126932 0.074515 4.443627 0
M  V30 3 O 2.906212 0.274125 3.058677 0
M  V30 4 C 3.387637 1.368684 2.359080 0
M  V30 5 C 4.133458 2.419074 2.840725 0
M  V30 6 C 4.578969 3.473975 2.094769 0
M  V30 7 C 4.231602 3.443232 0.759903 0
M  V30 8 Cl 4.799862 4.798565 -0.228716 0
M  V30 9 C 3.476568 2.406382 0.206701 0
M  V30 10 C 3.049134 1.351743 1.026753 0
M  V30 11 C 2.281831 0.390728 0.238943 0
M  V30 12 C 2.897061 -0.670599 -0.399277 0
M  V30 13 C 4.265060 -1.076337 -0.442053 0
M  V30 14 S 1.345094 -1.405959 -1.193580 0
M  V30 15 C 0.244665 -0.162382 -0.512382 0
M  V30 16 C -0.828136 -0.676527 -1.062312 0
M  V30 17 N -1.964393 -1.220906 -1.644649 0
M  V30 18 C -1.464712 -2.370214 -2.328897 0
M  V30 19 C -2.523839 -3.080007 -3.102483 0 CFG=1
M  V30 20 N -1.923534 -4.236161 -3.783628 0
M  V30 21 C -3.729433 -3.502299 -2.323543 0
M  V30 22 C -3.456736 -4.425071 -1.210313 0
M  V30 23 C -3.430957 -5.791480 -1.346917 0
M  V30 24 C -3.206318 -6.791396 -0.432162 0
M  V30 25 C -2.963405 -6.300540 0.859520 0
M  V30 26 C -2.959134 -4.930606 1.144337 0
M  V30 27 C -3.204299 -4.026824 0.109598 0
M  V30 28 N -1.720138 0.305228 -0.524483 0
M  V30 29 C -1.284354 1.314531 0.264446 0
M  V30 30 C -2.102101 2.415059 0.899704 0
M  V30 31 C -3.432421 2.255741 0.562297 0
M  V30 32 C -4.311878 3.208440 1.084197 0
M  V30 33 N -3.897401 4.225557 1.870897 0
M  V30 34 C -2.573210 4.316758 2.159715 0
M  V30 35 C -1.635993 3.424349 1.689813 0
M  V30 36 N 0.019029 1.502770 0.625281 0
M  V30 37 C 0.975730 0.682105 0.213153 0
M  V30 38 H 3.304232 1.644810 5.886205 0
M  V30 39 H 1.679669 0.907616 5.861574 0
M  V30 40 H 2.099979 1.972496 4.523103 0
M  V30 41 H 2.560571 -0.827938 4.728811 0
M  V30 42 H 4.196490 -0.035637 4.670535 0
M  V30 43 H 4.373114 2.383134 3.889032 0
M  V30 44 H 5.157195 4.271650 2.515190 0
M  V30 45 H 3.295529 2.535560 -0.840846 0
M  V30 46 H 4.898887 -0.204295 -0.688296 0
M  V30 47 H 4.602909 -1.545524 0.491628 0
M  V30 48 H 4.398360 -1.789201 -1.300271 0
M  V30 49 H -2.956360 -1.160652 -1.794184 0
M  V30 50 H -1.007957 -3.064406 -1.557850 0
M  V30 51 H -0.609706 -2.178169 -3.019233 0
M  V30 52 H -2.878385 -2.394635 -3.907300 0
M  V30 53 H -2.351292 -4.334520 -4.723716 0
M  V30 54 H -0.914137 -3.999095 -3.915480 0
M  V30 55 H -4.261083 -2.619414 -1.931654 0
M  V30 56 H -4.375425 -4.063682 -3.052671 0
M  V30 57 H -3.621725 -6.154736 -2.356477 0
M  V30 58 H -3.219213 -7.835001 -0.690509 0
M  V30 59 H -2.776441 -7.011892 1.647932 0
M  V30 60 H -2.769357 -4.574679 2.145283 0
M  V30 61 H -3.204224 -2.946960 0.317123 0
M  V30 62 H -3.863717 1.481872 -0.054264 0
M  V30 63 H -5.380644 3.195969 0.891885 0
M  V30 64 H -2.116503 5.099876 2.788674 0
M  V30 65 H -0.585219 3.428181 1.870076 0
M  V30 END ATOM
M  V30 BEGIN BOND
M  V30 1 1 1 2
M  V30 2 1 2 3
M  V30 3 1 3 4
M  V30 4 2 4 5
M  V30 5 1 5 6
M  V30 6 2 6 7
M  V30 7 1 7 8
M  V30 8 1 7 9
M  V30 9 2 9 10
M  V30 10 1 10 11
M  V30 11 2 11 12
M  V30 12 1 12 13
M  V30 13 1 12 14
M  V30 14 1 14 15
M  V30 15 2 15 16
M  V30 16 1 16 17
M  V30 17 1 17 18
M  V30 18 1 18 19
M  V30 19 1 19 20
M  V30 20 1 19 21
M  V30 21 1 21 22
M  V30 22 2 22 23
M  V30 23 1 23 24
M  V30 24 2 24 25
M  V30 25 1 25 26
M  V30 26 2 26 27
M  V30 27 1 16 28
M  V30 28 2 28 29
M  V30 29 1 29 30
M  V30 30 2 30 31
M  V30 31 1 31 32
M  V30 32 2 32 33
M  V30 33 1 33 34
M  V30 34 2 34 35
M  V30 35 1 29 36
M  V30 36 2 36 37
M  V30 37 1 10 4
M  V30 38 1 37 11
M  V30 39 1 37 15
M  V30 40 1 27 22
M  V30 41 1 35 30
M  V30 42 1 1 38
M  V30 43 1 1 39
M  V30 44 1 1 40
M  V30 45 1 2 41
M  V30 46 1 2 42
M  V30 47 1 5 43
M  V30 48 1 6 44
M  V30 49 1 9 45
M  V30 50 1 13 46
M  V30 51 1 13 47
M  V30 52 1 13 48
M  V30 53 1 17 49
M  V30 54 1 18 50
M  V30 55 1 18 51
M  V30 56 1 19 52 CFG=3
M  V30 57 1 20 53
M  V30 58 1 20 54
M  V30 59 1 21 55
M  V30 60 1 21 56
M  V30 61 1 23 57
M  V30 62 1 24 58
M  V30 63 1 25 59
M  V30 64 1 26 60
M  V30 65 1 27 61
M  V30 66 1 31 62
M  V30 67 1 32 63
M  V30 68 1 34 64
M  V30 69 1 35 65
M  V30 END BOND
M  V30 END CTAB
M  END
>  <Dataset>  (713) 
ChEMBL_Kinases

>  <Ligand_Instance>  (713) 
nan

>  <PDB_ID>  (713) 
nan

>  <Standardized_SMILES>  (713) 
CCOc1ccc(Cl)cc1-c1c(C)sc2c(NC[C@@H](N)Cc3ccccc3)nc(-c3ccncc3)nc12

>  <Name>  (713) 
nan

>  <Pocket>  (713) 
nan

>  <ATP_Site>  (713) 
nan

>  <Peripheral>  (713) 
nan

>  <Num_H_Atoms_ProtBoundConf>  (713) 
nan

>  <Num_Resolved_Atoms>  (713) 
nan

>  <Num_Not_Resolved_Atoms>  (713) 
nan

$$$$
CHEMBL3730961
     RDKit          3D

  0  0  0  0  0  0  0  0  0  0999 V3000
M  V30 BEGIN CTAB
M  V30 COUNTS 60 65 0 0 0
M  V30 BEGIN ATOM
M  V30 1 N -0.395759 -3.059754 3.713885 0
M  V30 2 C 0.194107 -3.274987 2.409644 0 CFG=2
M  V30 3 C 0.738298 -1.970970 1.934740 0
M  V30 4 O -0.214805 -0.962451 1.813496 0
M  V30 5 C 0.099987 0.306387 1.390003 0
M  V30 6 N 1.357704 0.582596 1.085054 0
M  V30 7 C 1.851433 1.730468 0.664570 0
M  V30 8 C 3.225494 2.065937 0.321692 0
M  V30 9 C 4.136417 1.057072 0.450921 0
M  V30 10 C 5.465221 1.343249 0.130472 0
M  V30 11 N 5.854845 2.573995 -0.295546 0
M  V30 12 C 4.945892 3.557037 -0.417648 0
M  V30 13 C 3.625208 3.313581 -0.111018 0
M  V30 14 N 0.949579 2.715202 0.540986 0
M  V30 15 C -0.360393 2.516508 0.832854 0
M  V30 16 S -1.842377 3.559444 0.796156 0
M  V30 17 C -2.972193 2.309328 1.360003 0
M  V30 18 C -2.194958 1.231692 1.532823 0
M  V30 19 C -0.849049 1.301094 1.271971 0
M  V30 20 C -3.051467 0.107260 2.012095 0
M  V30 21 C -4.081587 0.675828 2.960522 0
M  V30 22 C -5.081410 1.443764 2.159830 0
M  V30 23 C -4.382531 2.603941 1.526609 0
M  V30 24 C -0.901967 -3.824845 1.524763 0
M  V30 25 C -0.374066 -4.073931 0.160642 0
M  V30 26 C 0.177498 -5.269081 -0.209387 0
M  V30 27 C 0.663283 -5.477385 -1.488555 0
M  V30 28 C 0.609354 -4.474055 -2.453232 0
M  V30 29 C 1.077348 -4.628124 -3.738246 0
M  V30 30 C 0.996330 -3.593211 -4.654222 0
M  V30 31 C 0.447002 -2.376036 -4.316027 0
M  V30 32 C -0.023366 -2.216914 -3.029312 0
M  V30 33 C 0.055992 -3.259026 -2.100033 0
M  V30 34 C -0.418474 -3.090122 -0.811676 0
M  V30 35 H 0.330476 -2.671118 4.375875 0
M  V30 36 H -1.156155 -2.358112 3.637725 0
M  V30 37 H 1.035261 -3.988526 2.523502 0
M  V30 38 H 1.351134 -2.078954 0.992680 0
M  V30 39 H 1.470506 -1.625591 2.693492 0
M  V30 40 H 3.927632 0.042604 0.781991 0
M  V30 41 H 6.204407 0.562083 0.224488 0
M  V30 42 H 5.208543 4.549854 -0.752069 0
M  V30 43 H 2.848289 4.076633 -0.193035 0
M  V30 44 H -3.551357 -0.397243 1.142095 0
M  V30 45 H -2.503068 -0.672446 2.544714 0
M  V30 46 H -4.500855 -0.092838 3.610549 0
M  V30 47 H -3.531712 1.419294 3.594752 0
M  V30 48 H -5.857872 1.828427 2.882822 0
M  V30 49 H -5.551022 0.847795 1.350831 0
M  V30 50 H -4.859525 2.833066 0.534851 0
M  V30 51 H -4.562631 3.531333 2.143861 0
M  V30 52 H -1.168552 -4.815968 1.953137 0
M  V30 53 H -1.758209 -3.134544 1.553727 0
M  V30 54 H 0.241857 -6.084357 0.510409 0
M  V30 55 H 1.108020 -6.406733 -1.825644 0
M  V30 56 H 1.512328 -5.573687 -4.026656 0
M  V30 57 H 1.355544 -3.684835 -5.670650 0
M  V30 58 H 0.342765 -1.512823 -4.965668 0
M  V30 59 H -0.469014 -1.260106 -2.720355 0
M  V30 60 H -0.836705 -2.121665 -0.601383 0
M  V30 END ATOM
M  V30 BEGIN BOND
M  V30 1 1 1 2
M  V30 2 1 2 3
M  V30 3 1 3 4
M  V30 4 1 4 5
M  V30 5 2 5 6
M  V30 6 1 6 7
M  V30 7 1 7 8
M  V30 8 2 8 9
M  V30 9 1 9 10
M  V30 10 2 10 11
M  V30 11 1 11 12
M  V30 12 2 12 13
M  V30 13 2 7 14
M  V30 14 1 14 15
M  V30 15 1 15 16
M  V30 16 1 16 17
M  V30 17 2 17 18
M  V30 18 1 18 19
M  V30 19 1 18 20
M  V30 20 1 20 21
M  V30 21 1 21 22
M  V30 22 1 22 23
M  V30 23 1 2 24
M  V30 24 1 24 25
M  V30 25 2 25 26
M  V30 26 1 26 27
M  V30 27 2 27 28
M  V30 28 1 28 29
M  V30 29 2 29 30
M  V30 30 1 30 31
M  V30 31 2 31 32
M  V30 32 1 32 33
M  V30 33 2 33 34
M  V30 34 1 19 5
M  V30 35 1 34 25
M  V30 36 1 13 8
M  V30 37 2 19 15
M  V30 38 1 33 28
M  V30 39 1 23 17
M  V30 40 1 1 35
M  V30 41 1 1 36
M  V30 42 1 2 37 CFG=1
M  V30 43 1 3 38
M  V30 44 1 3 39
M  V30 45 1 9 40
M  V30 46 1 10 41
M  V30 47 1 12 42
M  V30 48 1 13 43
M  V30 49 1 20 44
M  V30 50 1 20 45
M  V30 51 1 21 46
M  V30 52 1 21 47
M  V30 53 1 22 48
M  V30 54 1 22 49
M  V30 55 1 23 50
M  V30 56 1 23 51
M  V30 57 1 24 52
M  V30 58 1 24 53
M  V30 59 1 26 54
M  V30 60 1 27 55
M  V30 61 1 29 56
M  V30 62 1 30 57
M  V30 63 1 31 58
M  V30 64 1 32 59
M  V30 65 1 34 60
M  V30 END BOND
M  V30 END CTAB
M  END
>  <Dataset>  (714) 
ChEMBL_Kinases

>  <Ligand_Instance>  (714) 
nan

>  <PDB_ID>  (714) 
nan

>  <Standardized_SMILES>  (714) 
N[C@H](COc1nc(-c2ccncc2)nc2sc3c(c12)CCCC3)Cc1ccc2ccccc2c1

>  <Name>  (714) 
nan

>  <Pocket>  (714) 
nan

>  <ATP_Site>  (714) 
nan

>  <Peripheral>  (714) 
nan

>  <Num_H_Atoms_ProtBoundConf>  (714) 
nan

>  <Num_Resolved_Atoms>  (714) 
nan

>  <Num_Not_Resolved_Atoms>  (714) 
nan

$$$$
CHEMBL3704374
     RDKit          3D

  0  0  0  0  0  0  0  0  0  0999 V3000
M  V30 BEGIN CTAB
M  V30 COUNTS 76 82 0 0 0
M  V30 BEGIN ATOM
M  V30 1 O -0.782522 -2.842294 0.274943 0
M  V30 2 C -0.026500 -2.688610 1.284153 0
M  V30 3 N 1.335368 -2.813354 0.934601 0
M  V30 4 C 1.615139 -3.099506 -0.527803 0
M  V30 5 N 1.807889 -3.508975 -1.542218 0
M  V30 6 C 2.050751 -3.027227 -2.726555 0
M  V30 7 C 2.089185 -1.714873 -2.800301 0
M  V30 8 S 1.761362 -1.272781 -1.101508 0
M  V30 9 C 2.344879 -0.813129 -4.007365 0
M  V30 10 C 2.237293 -1.739413 -5.180033 0 CFG=1
M  V30 11 N 2.531933 -1.083889 -6.416240 0
M  V30 12 C 3.828720 -0.530594 -6.549141 0
M  V30 13 C 3.870960 0.892418 -7.032377 0
M  V30 14 O 2.733425 1.609701 -6.671000 0
M  V30 15 C 1.678624 1.050585 -7.346248 0
M  V30 16 C 1.445952 -0.373651 -6.991018 0
M  V30 17 C 3.114086 -2.918823 -4.879270 0
M  V30 18 C 2.276786 -3.819820 -3.966107 0
M  V30 19 C -0.447088 -2.415154 2.662505 0
M  V30 20 C 0.345641 -2.250490 3.786220 0
M  V30 21 C -0.262697 -1.999878 4.998100 0
M  V30 22 C -1.629674 -1.904730 5.144687 0
M  V30 23 C -2.409238 -2.073954 3.998432 0
M  V30 24 C -3.878589 -1.968905 4.176204 0 CFG=1
M  V30 25 C -4.526458 -3.182336 4.745144 0
M  V30 26 C -5.801313 -2.648238 5.359049 0
M  V30 27 C -5.461290 -1.252117 5.806132 0
M  V30 28 N -4.298072 -0.866573 4.990557 0
M  V30 29 C -3.855000 0.454668 5.172066 0
M  V30 30 O -4.671844 0.906561 6.046322 0
M  V30 31 C -2.736989 1.105476 4.507221 0
M  V30 32 C -2.650639 1.238844 3.119946 0
M  V30 33 C -1.556005 1.869946 2.554804 0
M  V30 34 C -0.513880 2.389402 3.323537 0
M  V30 35 N 0.569939 3.021103 2.645661 0
M  V30 36 C 0.944335 2.835649 1.373451 0
M  V30 37 C 2.044653 3.671196 1.182685 0
M  V30 38 N 2.296513 4.325706 2.329653 0
M  V30 39 C 1.382143 3.921585 3.233963 0
M  V30 40 C -0.577281 2.269886 4.691632 0
M  V30 41 C -1.685952 1.632087 5.242247 0
M  V30 42 C -1.831063 -2.323028 2.787561 0
M  V30 43 H 2.102954 -2.712322 1.651968 0
M  V30 44 H 3.307714 -0.317764 -3.896225 0
M  V30 45 H 1.580758 -0.036532 -4.099609 0
M  V30 46 H 1.184984 -2.094955 -5.244819 0
M  V30 47 H 4.387298 -1.145894 -7.299118 0
M  V30 48 H 4.381951 -0.662198 -5.594406 0
M  V30 49 H 3.910860 0.929255 -8.144206 0
M  V30 50 H 4.745433 1.465864 -6.663502 0
M  V30 51 H 0.746345 1.654962 -7.147865 0
M  V30 52 H 1.875104 1.210969 -8.433269 0
M  V30 53 H 1.005698 -0.871617 -7.883996 0
M  V30 54 H 0.608084 -0.399910 -6.234151 0
M  V30 55 H 3.970877 -2.600150 -4.233200 0
M  V30 56 H 3.473021 -3.483753 -5.733612 0
M  V30 57 H 1.288284 -4.019936 -4.468150 0
M  V30 58 H 2.857234 -4.729970 -3.845943 0
M  V30 59 H 1.401789 -2.340395 3.582693 0
M  V30 60 H 0.421279 -1.884513 5.823158 0
M  V30 61 H -1.982467 -1.705345 6.145817 0
M  V30 62 H -4.330685 -1.783988 3.159103 0
M  V30 63 H -4.858662 -3.846727 3.895196 0
M  V30 64 H -3.934734 -3.781481 5.433482 0
M  V30 65 H -6.678548 -2.708765 4.690408 0
M  V30 66 H -5.980449 -3.249915 6.269055 0
M  V30 67 H -6.281040 -0.525972 5.715133 0
M  V30 68 H -5.135967 -1.242472 6.864449 0
M  V30 69 H -3.464840 0.832407 2.537521 0
M  V30 70 H -1.511603 1.960819 1.476476 0
M  V30 71 H 0.490318 2.173890 0.637142 0
M  V30 72 H 2.621012 3.786365 0.254180 0
M  V30 73 H 1.402491 4.333670 4.251585 0
M  V30 74 H 0.215213 2.663872 5.294727 0
M  V30 75 H -1.757469 1.526568 6.319208 0
M  V30 76 H -2.533118 -2.436369 1.973926 0
M  V30 END ATOM
M  V30 BEGIN BOND
M  V30 1 2 1 2
M  V30 2 1 2 3
M  V30 3 1 3 4
M  V30 4 2 4 5
M  V30 5 1 5 6
M  V30 6 2 6 7
M  V30 7 1 7 8
M  V30 8 1 7 9
M  V30 9 1 9 10
M  V30 10 1 10 11
M  V30 11 1 11 12
M  V30 12 1 12 13
M  V30 13 1 13 14
M  V30 14 1 14 15
M  V30 15 1 15 16
M  V30 16 1 10 17
M  V30 17 1 17 18
M  V30 18 1 2 19
M  V30 19 2 19 20
M  V30 20 1 20 21
M  V30 21 2 21 22
M  V30 22 1 22 23
M  V30 23 1 23 24
M  V30 24 1 24 25
M  V30 25 1 25 26
M  V30 26 1 26 27
M  V30 27 1 27 28
M  V30 28 1 28 29
M  V30 29 2 29 30
M  V30 30 1 29 31
M  V30 31 2 31 32
M  V30 32 1 32 33
M  V30 33 2 33 34
M  V30 34 1 34 35
M  V30 35 1 35 36
M  V30 36 2 36 37
M  V30 37 1 37 38
M  V30 38 2 38 39
M  V30 39 1 34 40
M  V30 40 2 40 41
M  V30 41 2 23 42
M  V30 42 1 8 4
M  V30 43 1 16 11
M  V30 44 1 42 19
M  V30 45 1 18 6
M  V30 46 1 28 24
M  V30 47 1 41 31
M  V30 48 1 39 35
M  V30 49 1 3 43
M  V30 50 1 9 44
M  V30 51 1 9 45
M  V30 52 1 10 46 CFG=3
M  V30 53 1 12 47
M  V30 54 1 12 48
M  V30 55 1 13 49
M  V30 56 1 13 50
M  V30 57 1 15 51
M  V30 58 1 15 52
M  V30 59 1 16 53
M  V30 60 1 16 54
M  V30 61 1 17 55
M  V30 62 1 17 56
M  V30 63 1 18 57
M  V30 64 1 18 58
M  V30 65 1 20 59
M  V30 66 1 21 60
M  V30 67 1 22 61
M  V30 68 1 24 62 CFG=3
M  V30 69 1 25 63
M  V30 70 1 25 64
M  V30 71 1 26 65
M  V30 72 1 26 66
M  V30 73 1 27 67
M  V30 74 1 27 68
M  V30 75 1 32 69
M  V30 76 1 33 70
M  V30 77 1 36 71
M  V30 78 1 37 72
M  V30 79 1 39 73
M  V30 80 1 40 74
M  V30 81 1 41 75
M  V30 82 1 42 76
M  V30 END BOND
M  V30 END CTAB
M  END
>  <Dataset>  (715) 
ChEMBL_Kinases

>  <Ligand_Instance>  (715) 
nan

>  <PDB_ID>  (715) 
nan

>  <Standardized_SMILES>  (715) 
O=C(Nc1nc2c(s1)C[C@@H](N1CCOCC1)CC2)c1cccc([C@H]2CCCN2C(=O)c2ccc(-n3ccnc3)cc2)c1

>  <Name>  (715) 
nan

>  <Pocket>  (715) 
nan

>  <ATP_Site>  (715) 
nan

>  <Peripheral>  (715) 
nan

>  <Num_H_Atoms_ProtBoundConf>  (715) 
nan

>  <Num_Resolved_Atoms>  (715) 
nan

>  <Num_Not_Resolved_Atoms>  (715) 
nan

$$$$
CHEMBL3730943
     RDKit          3D

  0  0  0  0  0  0  0  0  0  0999 V3000
M  V30 BEGIN CTAB
M  V30 COUNTS 55 59 0 0 0
M  V30 BEGIN ATOM
M  V30 1 N 3.176830 -4.907062 0.572713 0
M  V30 2 C 2.453295 -3.698287 1.062463 0 CFG=2
M  V30 3 C 0.997614 -3.955967 0.969597 0
M  V30 4 N 0.094993 -2.989805 1.438370 0
M  V30 5 C -0.375718 -1.660418 1.334194 0
M  V30 6 N 0.083520 -0.719006 0.501582 0
M  V30 7 C -0.420538 0.512442 0.478025 0
M  V30 8 C 0.093247 1.530985 -0.431953 0
M  V30 9 C 1.132728 1.124528 -1.237622 0
M  V30 10 C 1.641569 2.063641 -2.111634 0
M  V30 11 N 1.166195 3.332806 -2.199678 0
M  V30 12 C 0.138607 3.672239 -1.376879 0
M  V30 13 C -0.433990 2.802574 -0.472234 0
M  V30 14 F -1.451807 3.140828 0.341899 0
M  V30 15 N -1.413768 0.844673 1.298270 0
M  V30 16 C -1.964506 0.001428 2.178410 0
M  V30 17 C -2.965325 0.276319 3.031346 0
M  V30 18 C -3.663532 1.539077 3.183891 0
M  V30 19 C -4.069352 2.141488 1.998213 0
M  V30 20 C -4.735216 3.349117 2.001576 0
M  V30 21 C -4.992106 3.951382 3.215375 0
M  V30 22 F -5.633530 5.134882 3.396819 0
M  V30 23 C -4.584207 3.344798 4.397802 0
M  V30 24 C -3.912526 2.127657 4.404067 0
M  V30 25 C -3.442947 -0.712610 3.902261 0
M  V30 26 S -2.348637 -2.192899 3.458651 0
M  V30 27 C -1.405712 -1.239651 2.153229 0
M  V30 28 C 2.989830 -2.609590 0.145279 0
M  V30 29 C 2.745512 -2.896050 -1.265917 0
M  V30 30 C 3.765070 -3.608783 -1.926775 0
M  V30 31 C 3.781849 -4.005827 -3.245192 0
M  V30 32 C 2.691801 -3.679227 -4.016212 0
M  V30 33 C 1.647692 -2.983717 -3.455732 0
M  V30 34 C 1.714213 -2.627417 -2.131569 0
M  V30 35 H 4.191043 -4.814358 0.797239 0
M  V30 36 H 2.739079 -5.753267 0.991960 0
M  V30 37 H 2.765835 -3.575429 2.111007 0
M  V30 38 H 0.790139 -4.250983 -0.110518 0
M  V30 39 H 0.828659 -4.942632 1.490909 0
M  V30 40 H -0.436537 -3.538904 2.190565 0
M  V30 41 H 1.609622 0.158512 -1.277107 0
M  V30 42 H 2.447989 1.835581 -2.773431 0
M  V30 43 H -0.256619 4.684276 -1.431904 0
M  V30 44 H -3.910229 1.740499 0.998205 0
M  V30 45 H -5.090132 3.896275 1.144719 0
M  V30 46 H -4.740834 3.742444 5.407309 0
M  V30 47 H -3.581463 1.628104 5.300739 0
M  V30 48 H -4.173987 -0.800321 4.644629 0
M  V30 49 H 4.111829 -2.536267 0.290747 0
M  V30 50 H 2.620822 -1.646995 0.527791 0
M  V30 51 H 4.672030 -3.907251 -1.375857 0
M  V30 52 H 4.606467 -4.551157 -3.674141 0
M  V30 53 H 2.590096 -3.934756 -5.059024 0
M  V30 54 H 0.760617 -2.692366 -3.996583 0
M  V30 55 H 0.899507 -2.086489 -1.682642 0
M  V30 END ATOM
M  V30 BEGIN BOND
M  V30 1 1 1 2
M  V30 2 1 2 3
M  V30 3 1 3 4
M  V30 4 1 4 5
M  V30 5 2 5 6
M  V30 6 1 6 7
M  V30 7 1 7 8
M  V30 8 2 8 9
M  V30 9 1 9 10
M  V30 10 2 10 11
M  V30 11 1 11 12
M  V30 12 2 12 13
M  V30 13 1 13 14
M  V30 14 2 7 15
M  V30 15 1 15 16
M  V30 16 1 16 17
M  V30 17 1 17 18
M  V30 18 2 18 19
M  V30 19 1 19 20
M  V30 20 2 20 21
M  V30 21 1 21 22
M  V30 22 1 21 23
M  V30 23 2 23 24
M  V30 24 2 17 25
M  V30 25 1 25 26
M  V30 26 1 26 27
M  V30 27 1 2 28
M  V30 28 1 28 29
M  V30 29 2 29 30
M  V30 30 1 30 31
M  V30 31 2 31 32
M  V30 32 1 32 33
M  V30 33 2 33 34
M  V30 34 1 27 5
M  V30 35 1 34 29
M  V30 36 1 13 8
M  V30 37 2 27 16
M  V30 38 1 24 18
M  V30 39 1 1 35
M  V30 40 1 1 36
M  V30 41 1 2 37 CFG=1
M  V30 42 1 3 38
M  V30 43 1 3 39
M  V30 44 1 4 40
M  V30 45 1 9 41
M  V30 46 1 10 42
M  V30 47 1 12 43
M  V30 48 1 19 44
M  V30 49 1 20 45
M  V30 50 1 23 46
M  V30 51 1 24 47
M  V30 52 1 25 48
M  V30 53 1 28 49
M  V30 54 1 28 50
M  V30 55 1 30 51
M  V30 56 1 31 52
M  V30 57 1 32 53
M  V30 58 1 33 54
M  V30 59 1 34 55
M  V30 END BOND
M  V30 END CTAB
M  END
>  <Dataset>  (716) 
ChEMBL_Kinases

>  <Ligand_Instance>  (716) 
nan

>  <PDB_ID>  (716) 
nan

>  <Standardized_SMILES>  (716) 
N[C@H](CNc1nc(-c2ccncc2F)nc2c(-c3ccc(F)cc3)csc12)Cc1ccccc1

>  <Name>  (716) 
nan

>  <Pocket>  (716) 
nan

>  <ATP_Site>  (716) 
nan

>  <Peripheral>  (716) 
nan

>  <Num_H_Atoms_ProtBoundConf>  (716) 
nan

>  <Num_Resolved_Atoms>  (716) 
nan

>  <Num_Not_Resolved_Atoms>  (716) 
nan

$$$$
CHEMBL3730938
     RDKit          3D

  0  0  0  0  0  0  0  0  0  0999 V3000
M  V30 BEGIN CTAB
M  V30 COUNTS 59 62 0 0 0
M  V30 BEGIN ATOM
M  V30 1 C 3.939377 -2.387995 6.059196 0
M  V30 2 C 4.469493 -2.513604 4.654920 0
M  V30 3 C 5.954664 -2.276841 4.626606 0
M  V30 4 C 4.155000 -3.914404 4.167931 0
M  V30 5 C 3.869267 -1.535416 3.748371 0
M  V30 6 C 3.349293 -0.714660 2.994195 0
M  V30 7 C 2.737308 0.225422 2.097053 0
M  V30 8 C 3.057965 1.591555 2.337840 0
M  V30 9 S 2.082251 2.483756 0.981894 0
M  V30 10 C 1.414827 0.990272 0.314053 0
M  V30 11 C 0.551540 0.807392 -0.765475 0
M  V30 12 N 0.148866 1.965606 -1.472198 0
M  V30 13 C -0.731801 2.091144 -2.596700 0
M  V30 14 C -2.199612 2.041444 -2.297506 0 CFG=1
M  V30 15 N -2.921209 2.178367 -3.553376 0
M  V30 16 C -2.595209 0.808389 -1.573235 0
M  V30 17 C -4.081860 0.797198 -1.302355 0
M  V30 18 C -4.679546 1.309898 -0.184004 0
M  V30 19 C -6.049670 1.245701 -0.039991 0
M  V30 20 C -6.845110 0.671569 -1.004396 0
M  V30 21 C -6.273113 0.147387 -2.140074 0
M  V30 22 C -4.884863 0.213948 -2.283043 0
M  V30 23 N 0.171784 -0.436499 -1.096533 0
M  V30 24 C 0.656116 -1.443500 -0.353766 0
M  V30 25 C 0.302957 -2.854339 -0.630707 0
M  V30 26 C -0.547854 -3.064340 -1.692260 0
M  V30 27 C -0.920167 -4.352474 -2.009103 0
M  V30 28 N -0.469933 -5.396360 -1.304720 0
M  V30 29 C 0.363646 -5.191368 -0.264613 0
M  V30 30 C 0.778946 -3.917023 0.108869 0
M  V30 31 N 1.483640 -1.251330 0.678882 0
M  V30 32 C 1.895543 -0.029020 1.053684 0
M  V30 33 H 3.367212 -3.283170 6.378638 0
M  V30 34 H 4.759055 -2.267577 6.811354 0
M  V30 35 H 3.241396 -1.527896 6.175916 0
M  V30 36 H 6.383595 -2.946901 3.874680 0
M  V30 37 H 6.173686 -1.235977 4.341153 0
M  V30 38 H 6.377345 -2.564138 5.621162 0
M  V30 39 H 3.124518 -4.223525 4.452476 0
M  V30 40 H 4.905713 -4.659726 4.520821 0
M  V30 41 H 4.172524 -3.945721 3.051773 0
M  V30 42 H 3.649482 2.074768 3.033390 0
M  V30 43 H 0.510714 2.917823 -1.181015 0
M  V30 44 H -0.567837 3.062549 -3.157753 0
M  V30 45 H -0.549577 1.240444 -3.339795 0
M  V30 46 H -2.475065 2.963268 -1.713906 0
M  V30 47 H -2.325287 2.459808 -4.346087 0
M  V30 48 H -3.729582 2.807896 -3.482010 0
M  V30 49 H -2.140824 0.871031 -0.549045 0
M  V30 50 H -2.346308 -0.074222 -2.148609 0
M  V30 51 H -4.049423 1.751653 0.554418 0
M  V30 52 H -6.529411 1.649121 0.841593 0
M  V30 53 H -7.910528 0.579201 -0.975383 0
M  V30 54 H -6.805629 -0.320966 -2.949827 0
M  V30 55 H -4.418053 -0.202386 -3.187339 0
M  V30 56 H -0.924071 -2.234101 -2.275608 0
M  V30 57 H -1.598782 -4.462388 -2.862888 0
M  V30 58 H 0.744193 -6.019653 0.324080 0
M  V30 59 H 1.447280 -3.714021 0.937919 0
M  V30 END ATOM
M  V30 BEGIN BOND
M  V30 1 1 1 2
M  V30 2 1 2 3
M  V30 3 1 2 4
M  V30 4 1 2 5
M  V30 5 3 5 6
M  V30 6 1 6 7
M  V30 7 2 7 8
M  V30 8 1 8 9
M  V30 9 1 9 10
M  V30 10 2 10 11
M  V30 11 1 11 12
M  V30 12 1 12 13
M  V30 13 1 13 14
M  V30 14 1 14 15
M  V30 15 1 14 16
M  V30 16 1 16 17
M  V30 17 2 17 18
M  V30 18 1 18 19
M  V30 19 2 19 20
M  V30 20 1 20 21
M  V30 21 2 21 22
M  V30 22 1 11 23
M  V30 23 2 23 24
M  V30 24 1 24 25
M  V30 25 2 25 26
M  V30 26 1 26 27
M  V30 27 2 27 28
M  V30 28 1 28 29
M  V30 29 2 29 30
M  V30 30 1 24 31
M  V30 31 2 31 32
M  V30 32 1 32 7
M  V30 33 1 32 10
M  V30 34 1 22 17
M  V30 35 1 30 25
M  V30 36 1 1 33
M  V30 37 1 1 34
M  V30 38 1 1 35
M  V30 39 1 3 36
M  V30 40 1 3 37
M  V30 41 1 3 38
M  V30 42 1 4 39
M  V30 43 1 4 40
M  V30 44 1 4 41
M  V30 45 1 8 42
M  V30 46 1 12 43
M  V30 47 1 13 44
M  V30 48 1 13 45
M  V30 49 1 14 46 CFG=1
M  V30 50 1 15 47
M  V30 51 1 15 48
M  V30 52 1 16 49
M  V30 53 1 16 50
M  V30 54 1 18 51
M  V30 55 1 19 52
M  V30 56 1 20 53
M  V30 57 1 21 54
M  V30 58 1 22 55
M  V30 59 1 26 56
M  V30 60 1 27 57
M  V30 61 1 29 58
M  V30 62 1 30 59
M  V30 END BOND
M  V30 END CTAB
M  END
>  <Dataset>  (717) 
ChEMBL_Kinases

>  <Ligand_Instance>  (717) 
nan

>  <PDB_ID>  (717) 
nan

>  <Standardized_SMILES>  (717) 
CC(C)(C)C#Cc1csc2c(NC[C@@H](N)Cc3ccccc3)nc(-c3ccncc3)nc12

>  <Name>  (717) 
nan

>  <Pocket>  (717) 
nan

>  <ATP_Site>  (717) 
nan

>  <Peripheral>  (717) 
nan

>  <Num_H_Atoms_ProtBoundConf>  (717) 
nan

>  <Num_Resolved_Atoms>  (717) 
nan

>  <Num_Not_Resolved_Atoms>  (717) 
nan

$$$$
CHEMBL3731080
     RDKit          3D

  0  0  0  0  0  0  0  0  0  0999 V3000
M  V30 BEGIN CTAB
M  V30 COUNTS 71 78 0 0 0
M  V30 BEGIN ATOM
M  V30 1 C -0.869629 -4.124283 1.303495 0
M  V30 2 C -0.484976 -3.591800 0.092505 0
M  V30 3 C 0.820351 -3.237744 -0.155584 0
M  V30 4 C 1.140216 -2.671256 -1.488213 0
M  V30 5 N 0.137639 -2.533676 -2.396503 0
M  V30 6 C 0.507761 -2.014195 -3.576705 0
M  V30 7 N -0.357842 -1.779472 -4.671168 0
M  V30 8 C -1.743185 -2.128474 -4.518472 0 CFG=2
M  V30 9 C -1.927221 -3.604753 -4.274412 0
M  V30 10 C -1.859364 -4.138681 -5.705438 0
M  V30 11 N -2.686546 -3.186399 -6.414466 0
M  V30 12 C -2.562992 -1.913251 -5.766884 0
M  V30 13 C 1.825696 -1.666166 -3.788229 0
M  V30 14 S 2.587438 -0.962706 -5.244648 0
M  V30 15 C 4.301882 -0.911963 -4.452351 0
M  V30 16 C 4.109146 -1.458311 -3.105049 0
M  V30 17 C 2.813954 -1.809219 -2.873408 0
M  V30 18 N 2.422295 -2.334273 -1.690073 0
M  V30 19 C 1.771953 -3.416914 0.825685 0
M  V30 20 C 1.378271 -3.949386 2.032046 0
M  V30 21 S 2.544413 -4.217385 3.359445 0
M  V30 22 C 2.645941 -2.766784 4.397837 0
M  V30 23 C 1.862758 -1.688189 4.059193 0
M  V30 24 C 1.913508 -0.561923 4.830191 0
M  V30 25 C 1.102745 0.604684 4.508584 0
M  V30 26 N 0.315843 0.508748 3.432492 0
M  V30 27 C -0.436958 1.562808 3.111902 0
M  V30 28 N -1.313762 1.675806 2.021801 0
M  V30 29 C -2.236080 2.642317 1.483646 0 CFG=2
M  V30 30 C -3.424792 2.870093 2.367453 0
M  V30 31 C -4.541427 2.103670 1.668806 0
M  V30 32 N -4.207119 2.198079 0.255339 0
M  V30 33 C -2.781127 2.253205 0.162334 0
M  V30 34 C -0.356825 2.703574 3.919956 0
M  V30 35 S -1.145289 4.344584 3.895998 0
M  V30 36 C -0.270393 5.019880 5.438106 0
M  V30 37 C 0.560607 3.889150 5.826394 0
M  V30 38 C 0.467251 2.795377 5.041258 0
M  V30 39 N 1.184095 1.685109 5.281529 0
M  V30 40 C 2.759722 -0.544603 5.936733 0
M  V30 41 C 3.529581 -1.620905 6.259652 0
M  V30 42 N 3.446406 -2.714404 5.467080 0
M  V30 43 N 0.091748 -4.283197 2.236121 0
M  V30 44 H -1.911614 -4.386738 1.447969 0
M  V30 45 H -1.250845 -3.457891 -0.668255 0
M  V30 46 H -0.104123 -1.382709 -5.573400 0
M  V30 47 H -2.213146 -1.591387 -3.661392 0
M  V30 48 H -2.968107 -3.778768 -3.872168 0
M  V30 49 H -1.152876 -4.055053 -3.656140 0
M  V30 50 H -0.806228 -3.989240 -6.020575 0
M  V30 51 H -2.201993 -5.169614 -5.790109 0
M  V30 52 H -3.677143 -3.491589 -6.477161 0
M  V30 53 H -3.573896 -1.524727 -5.452329 0
M  V30 54 H -2.130624 -1.194784 -6.465009 0
M  V30 55 H 5.437571 -0.565008 -4.759922 0
M  V30 56 H 4.975520 -1.518296 -2.475805 0
M  V30 57 H 2.795063 -3.140531 0.633552 0
M  V30 58 H 1.218009 -1.717491 3.205729 0
M  V30 59 H -1.268631 0.786905 1.445200 0
M  V30 60 H -1.756318 3.642657 1.357312 0
M  V30 61 H -3.715049 3.934575 2.479385 0
M  V30 62 H -3.267247 2.343006 3.328529 0
M  V30 63 H -4.609347 1.066111 2.038188 0
M  V30 64 H -5.522616 2.582275 1.816349 0
M  V30 65 H -4.536840 1.336252 -0.234190 0
M  V30 66 H -2.374726 1.236947 -0.068356 0
M  V30 67 H -2.479623 2.983574 -0.633552 0
M  V30 68 H -0.375897 5.992934 5.891105 0
M  V30 69 H 1.141221 4.093445 6.702129 0
M  V30 70 H 2.762078 0.366767 6.510881 0
M  V30 71 H 4.169008 -1.557826 7.127656 0
M  V30 END ATOM
M  V30 BEGIN BOND
M  V30 1 2 1 2
M  V30 2 1 2 3
M  V30 3 1 3 4
M  V30 4 2 4 5
M  V30 5 1 5 6
M  V30 6 1 6 7
M  V30 7 1 7 8
M  V30 8 1 8 9
M  V30 9 1 9 10
M  V30 10 1 10 11
M  V30 11 1 11 12
M  V30 12 2 6 13
M  V30 13 1 13 14
M  V30 14 1 14 15
M  V30 15 2 15 16
M  V30 16 1 16 17
M  V30 17 2 17 18
M  V30 18 2 3 19
M  V30 19 1 19 20
M  V30 20 1 20 21
M  V30 21 1 21 22
M  V30 22 2 22 23
M  V30 23 1 23 24
M  V30 24 1 24 25
M  V30 25 2 25 26
M  V30 26 1 26 27
M  V30 27 1 27 28
M  V30 28 1 28 29
M  V30 29 1 29 30
M  V30 30 1 30 31
M  V30 31 1 31 32
M  V30 32 1 32 33
M  V30 33 2 27 34
M  V30 34 1 34 35
M  V30 35 1 35 36
M  V30 36 2 36 37
M  V30 37 1 37 38
M  V30 38 2 38 39
M  V30 39 2 24 40
M  V30 40 1 40 41
M  V30 41 2 41 42
M  V30 42 2 20 43
M  V30 43 1 43 1
M  V30 44 1 18 4
M  V30 45 1 42 22
M  V30 46 1 12 8
M  V30 47 1 17 13
M  V30 48 1 39 25
M  V30 49 1 33 29
M  V30 50 1 38 34
M  V30 51 1 1 44
M  V30 52 1 2 45
M  V30 53 1 7 46
M  V30 54 1 8 47 CFG=1
M  V30 55 1 9 48
M  V30 56 1 9 49
M  V30 57 1 10 50
M  V30 58 1 10 51
M  V30 59 1 11 52
M  V30 60 1 12 53
M  V30 61 1 12 54
M  V30 62 1 15 55
M  V30 63 1 16 56
M  V30 64 1 19 57
M  V30 65 1 23 58
M  V30 66 1 28 59
M  V30 67 1 29 60 CFG=3
M  V30 68 1 30 61
M  V30 69 1 30 62
M  V30 70 1 31 63
M  V30 71 1 31 64
M  V30 72 1 32 65
M  V30 73 1 33 66
M  V30 74 1 33 67
M  V30 75 1 36 68
M  V30 76 1 37 69
M  V30 77 1 40 70
M  V30 78 1 41 71
M  V30 END BOND
M  V30 END CTAB
M  END
>  <Dataset>  (718) 
ChEMBL_Kinases

>  <Ligand_Instance>  (718) 
nan

>  <PDB_ID>  (718) 
nan

>  <Standardized_SMILES>  (718) 
c1cc(-c2nc(N[C@@H]3CCNC3)c3sccc3n2)cc(Sc2cc(-c3nc(N[C@@H]4CCNC4)c4sccc4n3)ccn2)n1

>  <Name>  (718) 
nan

>  <Pocket>  (718) 
nan

>  <ATP_Site>  (718) 
nan

>  <Peripheral>  (718) 
nan

>  <Num_H_Atoms_ProtBoundConf>  (718) 
nan

>  <Num_Resolved_Atoms>  (718) 
nan

>  <Num_Not_Resolved_Atoms>  (718) 
nan

$$$$
CHEMBL522689
     RDKit          3D

  0  0  0  0  0  0  0  0  0  0999 V3000
M  V30 BEGIN CTAB
M  V30 COUNTS 50 53 0 0 0
M  V30 BEGIN ATOM
M  V30 1 C 3.213166 -5.500271 0.814693 0
M  V30 2 C 4.370111 -4.544771 0.708033 0
M  V30 3 C 4.371914 -3.554436 1.850495 0 CFG=2
M  V30 4 C 4.478956 -4.352284 3.130683 0
M  V30 5 N 3.219817 -2.727273 1.781343 0
M  V30 6 C 3.039372 -1.837816 0.669998 0
M  V30 7 N 3.939650 -1.760667 -0.311031 0
M  V30 8 N 3.852306 -0.969492 -1.358414 0
M  V30 9 C 2.809011 -0.123268 -1.557220 0
M  V30 10 C 1.843839 -0.178268 -0.543108 0
M  V30 11 C 0.785247 0.681646 -0.737934 0
M  V30 12 C -0.214187 0.712705 0.193583 0
M  V30 13 C -1.473438 1.506133 0.305251 0
M  V30 14 C -1.584167 2.707203 0.967919 0
M  V30 15 C -0.340198 3.208904 1.562701 0
M  V30 16 C -2.810232 3.310528 1.019413 0
M  V30 17 C -3.858071 2.642599 0.384826 0
M  V30 18 C -3.572075 1.375974 -0.274328 0
M  V30 19 C -4.806792 1.100647 -0.732346 0
M  V30 20 N -6.064000 0.820207 -1.198765 0
M  V30 21 C -6.868846 1.951300 -0.713715 0
M  V30 22 N -4.239036 -0.072017 -1.275239 0
M  V30 23 O -2.990510 -0.179844 -1.035380 0
M  V30 24 C -2.389136 0.692098 -0.384247 0
M  V30 25 C -0.112761 -0.138025 1.310736 0
M  V30 26 C 0.936677 -1.012628 1.538129 0
M  V30 27 C 1.919179 -1.004009 0.564058 0
M  V30 28 H 3.545406 -6.510785 1.167651 0
M  V30 29 H 2.457040 -5.145890 1.570435 0
M  V30 30 H 2.637226 -5.623495 -0.124048 0
M  V30 31 H 4.303664 -4.047342 -0.261991 0
M  V30 32 H 5.307692 -5.143512 0.802308 0
M  V30 33 H 5.274338 -2.910656 1.704804 0
M  V30 34 H 3.815476 -3.963834 3.922371 0
M  V30 35 H 4.247540 -5.427835 2.954217 0
M  V30 36 H 5.532109 -4.331136 3.490259 0
M  V30 37 H 2.570413 -2.839763 2.580241 0
M  V30 38 H 2.717861 0.536908 -2.404621 0
M  V30 39 H 0.578006 1.375758 -1.531304 0
M  V30 40 H -0.476362 3.256884 2.666146 0
M  V30 41 H 0.532058 2.586337 1.391419 0
M  V30 42 H -0.199403 4.271140 1.232706 0
M  V30 43 H -2.798718 4.231796 1.554301 0
M  V30 44 H -4.778490 3.252143 0.518986 0
M  V30 45 H -6.691138 0.214060 -1.712770 0
M  V30 46 H -6.804934 1.948609 0.416969 0
M  V30 47 H -7.960342 1.802743 -0.895799 0
M  V30 48 H -6.520601 2.922034 -1.068891 0
M  V30 49 H -0.851586 -0.200650 2.123213 0
M  V30 50 H 1.008470 -1.649826 2.392528 0
M  V30 END ATOM
M  V30 BEGIN BOND
M  V30 1 1 1 2
M  V30 2 1 2 3
M  V30 3 1 3 4
M  V30 4 1 3 5
M  V30 5 1 5 6
M  V30 6 2 6 7
M  V30 7 1 7 8
M  V30 8 2 8 9
M  V30 9 1 9 10
M  V30 10 2 10 11
M  V30 11 1 11 12
M  V30 12 1 12 13
M  V30 13 2 13 14
M  V30 14 1 14 15
M  V30 15 1 14 16
M  V30 16 2 16 17
M  V30 17 1 17 18
M  V30 18 1 18 19
M  V30 19 1 19 20
M  V30 20 1 20 21
M  V30 21 2 19 22
M  V30 22 1 22 23
M  V30 23 1 23 24
M  V30 24 2 12 25
M  V30 25 1 25 26
M  V30 26 2 26 27
M  V30 27 1 27 6
M  V30 28 1 27 10
M  V30 29 1 24 13
M  V30 30 2 24 18
M  V30 31 1 1 28
M  V30 32 1 1 29
M  V30 33 1 1 30
M  V30 34 1 2 31
M  V30 35 1 2 32
M  V30 36 1 3 33 CFG=3
M  V30 37 1 4 34
M  V30 38 1 4 35
M  V30 39 1 4 36
M  V30 40 1 5 37
M  V30 41 1 9 38
M  V30 42 1 11 39
M  V30 43 1 15 40
M  V30 44 1 15 41
M  V30 45 1 15 42
M  V30 46 1 16 43
M  V30 47 1 17 44
M  V30 48 1 20 45
M  V30 49 1 21 46
M  V30 50 1 21 47
M  V30 51 1 21 48
M  V30 52 1 25 49
M  V30 53 1 26 50
M  V30 END BOND
M  V30 END CTAB
M  END
>  <Dataset>  (719) 
ChEMBL_Kinases

>  <Ligand_Instance>  (719) 
nan

>  <PDB_ID>  (719) 
nan

>  <Standardized_SMILES>  (719) 
CC[C@H](C)Nc1nncc2cc(-c3c(C)ccc4c(NC)noc34)ccc12

>  <Name>  (719) 
nan

>  <Pocket>  (719) 
nan

>  <ATP_Site>  (719) 
nan

>  <Peripheral>  (719) 
nan

>  <Num_H_Atoms_ProtBoundConf>  (719) 
nan

>  <Num_Resolved_Atoms>  (719) 
nan

>  <Num_Not_Resolved_Atoms>  (719) 
nan

$$$$
CHEMBL3703710
     RDKit          3D

  0  0  0  0  0  0  0  0  0  0999 V3000
M  V30 BEGIN CTAB
M  V30 COUNTS 49 52 0 0 0
M  V30 BEGIN ATOM
M  V30 1 C 0.323811 -3.524921 -6.521710 0
M  V30 2 C 0.606481 -4.384928 -5.329212 0
M  V30 3 C 0.371304 -3.866259 -4.064648 0
M  V30 4 C 0.630501 -4.653723 -2.957333 0
M  V30 5 C 0.443684 -4.272138 -1.567085 0
M  V30 6 N -0.133110 -5.068216 -0.648017 0
M  V30 7 N -0.170244 -4.464867 0.529959 0
M  V30 8 C 0.384295 -3.242113 0.428225 0
M  V30 9 C 0.643248 -2.153099 1.264047 0
M  V30 10 C 1.266408 -1.006653 0.758508 0
M  V30 11 N 1.442305 -0.010432 1.760235 0
M  V30 12 C 0.383710 0.929981 1.917070 0
M  V30 13 O -0.641700 0.855853 1.184661 0
M  V30 14 N 0.493714 1.948245 2.902843 0
M  V30 15 C -0.620855 2.881321 3.013630 0
M  V30 16 C -0.063996 4.255725 2.705538 0
M  V30 17 O 0.942871 4.584420 3.617540 0
M  V30 18 C -1.214655 2.876413 4.390127 0
M  V30 19 C -0.465399 2.896074 5.545717 0
M  V30 20 C -1.073878 2.890789 6.792139 0
M  V30 21 C -2.449236 2.865665 6.909488 0
M  V30 22 C -3.258157 2.845019 5.780381 0
M  V30 23 C -2.589119 2.851615 4.576891 0
M  V30 24 N 1.619394 -0.951196 -0.541531 0
M  V30 25 C 1.392401 -1.974131 -1.390719 0
M  V30 26 C 0.776192 -3.111989 -0.898296 0
M  V30 27 C 1.119078 -5.939241 -3.177213 0
M  V30 28 C 1.338727 -6.414019 -4.472582 0
M  V30 29 N 1.079398 -5.629036 -5.544731 0
M  V30 30 H 0.292598 -2.446671 -6.262636 0
M  V30 31 H 1.049871 -3.773434 -7.322893 0
M  V30 32 H -0.681704 -3.761071 -6.930320 0
M  V30 33 H -0.001740 -2.888412 -3.868818 0
M  V30 34 H -0.539651 -4.780880 1.450108 0
M  V30 35 H 0.320986 -2.300483 2.286188 0
M  V30 36 H 2.286268 0.063019 2.372869 0
M  V30 37 H 1.314166 2.062512 3.540322 0
M  V30 38 H -1.389516 2.633301 2.254504 0
M  V30 39 H -0.858016 5.026003 2.670490 0
M  V30 40 H 0.453040 4.200369 1.718213 0
M  V30 41 H 1.374074 5.399714 3.260870 0
M  V30 42 H 0.613579 2.915268 5.445749 0
M  V30 43 H -0.490441 2.906256 7.705291 0
M  V30 44 H -2.978468 2.860863 7.873538 0
M  V30 45 H -4.343282 2.824398 5.754308 0
M  V30 46 H -3.166845 2.836328 3.642108 0
M  V30 47 H 1.698476 -1.865290 -2.416711 0
M  V30 48 H 1.339148 -6.599519 -2.337198 0
M  V30 49 H 1.723184 -7.433882 -4.554305 0
M  V30 END ATOM
M  V30 BEGIN BOND
M  V30 1 1 1 2
M  V30 2 2 2 3
M  V30 3 1 3 4
M  V30 4 1 4 5
M  V30 5 2 5 6
M  V30 6 1 6 7
M  V30 7 1 7 8
M  V30 8 2 8 9
M  V30 9 1 9 10
M  V30 10 1 10 11
M  V30 11 1 11 12
M  V30 12 2 12 13
M  V30 13 1 12 14
M  V30 14 1 14 15
M  V30 15 1 15 16
M  V30 16 1 16 17
M  V30 17 1 15 18
M  V30 18 2 18 19
M  V30 19 1 19 20
M  V30 20 2 20 21
M  V30 21 1 21 22
M  V30 22 2 22 23
M  V30 23 2 10 24
M  V30 24 1 24 25
M  V30 25 2 25 26
M  V30 26 2 4 27
M  V30 27 1 27 28
M  V30 28 2 28 29
M  V30 29 1 29 2
M  V30 30 1 26 5
M  V30 31 1 26 8
M  V30 32 1 23 18
M  V30 33 1 1 30
M  V30 34 1 1 31
M  V30 35 1 1 32
M  V30 36 1 3 33
M  V30 37 1 7 34
M  V30 38 1 9 35
M  V30 39 1 11 36
M  V30 40 1 14 37
M  V30 41 1 15 38
M  V30 42 1 16 39
M  V30 43 1 16 40
M  V30 44 1 17 41
M  V30 45 1 19 42
M  V30 46 1 20 43
M  V30 47 1 21 44
M  V30 48 1 22 45
M  V30 49 1 23 46
M  V30 50 1 25 47
M  V30 51 1 27 48
M  V30 52 1 28 49
M  V30 END BOND
M  V30 END CTAB
M  END
>  <Dataset>  (720) 
ChEMBL_Kinases

>  <Ligand_Instance>  (720) 
nan

>  <PDB_ID>  (720) 
nan

>  <Standardized_SMILES>  (720) 
Cc1cc(-c2n[nH]c3cc(NC(=O)NC(CO)c4ccccc4)ncc23)ccn1

>  <Name>  (720) 
nan

>  <Pocket>  (720) 
nan

>  <ATP_Site>  (720) 
nan

>  <Peripheral>  (720) 
nan

>  <Num_H_Atoms_ProtBoundConf>  (720) 
nan

>  <Num_Resolved_Atoms>  (720) 
nan

>  <Num_Not_Resolved_Atoms>  (720) 
nan

$$$$
CHEMBL3703712
     RDKit          3D

  0  0  0  0  0  0  0  0  0  0999 V3000
M  V30 BEGIN CTAB
M  V30 COUNTS 44 47 0 0 0
M  V30 BEGIN ATOM
M  V30 1 C 0.237927 -8.144654 0.228962 0
M  V30 2 C -0.043021 -6.846857 -0.464592 0
M  V30 3 C 0.879103 -5.822396 -0.383351 0
M  V30 4 C 0.660327 -4.609021 -1.008622 0
M  V30 5 C 1.559369 -3.460463 -0.994690 0
M  V30 6 N 2.890948 -3.468817 -1.191914 0
M  V30 7 N 3.403585 -2.249475 -1.110518 0
M  V30 8 C 2.411661 -1.378877 -0.852333 0
M  V30 9 C 2.365048 -0.010298 -0.669188 0
M  V30 10 C 1.161399 0.634469 -0.408663 0
M  V30 11 N 1.009651 2.036140 -0.206056 0
M  V30 12 C 1.079726 2.722428 1.035179 0
M  V30 13 O 1.293452 1.978269 2.008856 0
M  V30 14 N 0.913808 4.107215 1.077164 0
M  V30 15 C 0.968329 4.889426 2.285325 0
M  V30 16 C -0.234654 4.799949 3.127784 0
M  V30 17 C -1.314998 5.650085 2.998605 0
M  V30 18 C -2.475323 5.635328 3.743754 0
M  V30 19 N -2.578229 4.689219 4.710012 0
M  V30 20 C -1.570603 3.818336 4.904967 0
M  V30 21 C -0.407516 3.858757 4.133543 0
M  V30 22 N 0.046902 -0.139092 -0.343918 0
M  V30 23 C 0.079462 -1.474345 -0.520612 0
M  V30 24 C 1.256251 -2.131834 -0.778923 0
M  V30 25 C -0.520655 -4.436654 -1.730366 0
M  V30 26 C -1.426832 -5.490296 -1.790632 0
M  V30 27 N -1.192861 -6.669089 -1.171378 0
M  V30 28 H 0.819114 -8.820632 -0.445985 0
M  V30 29 H -0.774771 -8.601872 0.405354 0
M  V30 30 H 0.712144 -8.001310 1.212460 0
M  V30 31 H 1.805757 -5.909985 0.162900 0
M  V30 32 H 4.411365 -1.984871 -1.225103 0
M  V30 33 H 3.252898 0.602200 -0.721220 0
M  V30 34 H 0.834547 2.563809 -1.083356 0
M  V30 35 H 0.735594 4.670869 0.212963 0
M  V30 36 H 1.804418 4.426476 2.890055 0
M  V30 37 H 1.298953 5.932015 2.105607 0
M  V30 38 H -1.262016 6.429205 2.223124 0
M  V30 39 H -3.262937 6.350187 3.559463 0
M  V30 40 H -1.720479 3.092340 5.691195 0
M  V30 41 H 0.376900 3.140694 4.324303 0
M  V30 42 H -0.848022 -2.024484 -0.453071 0
M  V30 43 H -0.853508 -3.566164 -2.278012 0
M  V30 44 H -2.384325 -5.456752 -2.331486 0
M  V30 END ATOM
M  V30 BEGIN BOND
M  V30 1 1 1 2
M  V30 2 2 2 3
M  V30 3 1 3 4
M  V30 4 1 4 5
M  V30 5 2 5 6
M  V30 6 1 6 7
M  V30 7 1 7 8
M  V30 8 2 8 9
M  V30 9 1 9 10
M  V30 10 1 10 11
M  V30 11 1 11 12
M  V30 12 2 12 13
M  V30 13 1 12 14
M  V30 14 1 14 15
M  V30 15 1 15 16
M  V30 16 2 16 17
M  V30 17 1 17 18
M  V30 18 2 18 19
M  V30 19 1 19 20
M  V30 20 2 20 21
M  V30 21 2 10 22
M  V30 22 1 22 23
M  V30 23 2 23 24
M  V30 24 2 4 25
M  V30 25 1 25 26
M  V30 26 2 26 27
M  V30 27 1 27 2
M  V30 28 1 24 5
M  V30 29 1 24 8
M  V30 30 1 21 16
M  V30 31 1 1 28
M  V30 32 1 1 29
M  V30 33 1 1 30
M  V30 34 1 3 31
M  V30 35 1 7 32
M  V30 36 1 9 33
M  V30 37 1 11 34
M  V30 38 1 14 35
M  V30 39 1 15 36
M  V30 40 1 15 37
M  V30 41 1 17 38
M  V30 42 1 18 39
M  V30 43 1 20 40
M  V30 44 1 21 41
M  V30 45 1 23 42
M  V30 46 1 25 43
M  V30 47 1 26 44
M  V30 END BOND
M  V30 END CTAB
M  END
>  <Dataset>  (721) 
ChEMBL_Kinases

>  <Ligand_Instance>  (721) 
nan

>  <PDB_ID>  (721) 
nan

>  <Standardized_SMILES>  (721) 
Cc1cc(-c2n[nH]c3cc(NC(=O)NCc4ccncc4)ncc23)ccn1

>  <Name>  (721) 
nan

>  <Pocket>  (721) 
nan

>  <ATP_Site>  (721) 
nan

>  <Peripheral>  (721) 
nan

>  <Num_H_Atoms_ProtBoundConf>  (721) 
nan

>  <Num_Resolved_Atoms>  (721) 
nan

>  <Num_Not_Resolved_Atoms>  (721) 
nan

$$$$
CHEMBL3703713
     RDKit          3D

  0  0  0  0  0  0  0  0  0  0999 V3000
M  V30 BEGIN CTAB
M  V30 COUNTS 43 46 0 0 0
M  V30 BEGIN ATOM
M  V30 1 C -1.715571 -5.783455 1.540799 0
M  V30 2 C -0.630285 -5.780819 0.521271 0
M  V30 3 C 0.207637 -4.682809 0.420279 0
M  V30 4 C 1.239117 -4.599225 -0.497939 0
M  V30 5 C 2.120123 -3.451990 -0.608637 0
M  V30 6 N 3.455796 -3.425687 -0.733723 0
M  V30 7 N 3.903526 -2.165691 -0.806867 0
M  V30 8 C 2.829877 -1.364028 -0.726845 0
M  V30 9 C 2.784915 0.015633 -0.757071 0
M  V30 10 C 1.559773 0.644407 -0.658618 0
M  V30 11 N 1.247266 2.034894 -0.664181 0
M  V30 12 C 1.186126 2.826174 0.515079 0
M  V30 13 O 1.429686 2.213239 1.589621 0
M  V30 14 N 0.879454 4.207505 0.547774 0
M  V30 15 C 0.856140 4.879931 1.839901 0
M  V30 16 C -0.132953 4.308026 2.772345 0
M  V30 17 N 0.103783 3.303540 3.645794 0
M  V30 18 N -0.993126 3.032281 4.331127 0
M  V30 19 C -1.946580 3.880306 3.885506 0
M  V30 20 C -3.358699 3.935816 4.378922 0
M  V30 21 O -1.403047 4.630430 2.954340 0
M  V30 22 N 0.423159 -0.104455 -0.534051 0
M  V30 23 C 0.487742 -1.467127 -0.506079 0
M  V30 24 C 1.688299 -2.141096 -0.601112 0
M  V30 25 C 1.411813 -5.688620 -1.342472 0
M  V30 26 C 0.566179 -6.793293 -1.238394 0
M  V30 27 N -0.437535 -6.830205 -0.317080 0
M  V30 28 H -1.347862 -5.452786 2.540765 0
M  V30 29 H -2.543832 -5.115549 1.201762 0
M  V30 30 H -2.128717 -6.795275 1.671812 0
M  V30 31 H 0.030567 -3.872557 1.094166 0
M  V30 32 H 4.897921 -1.865073 -0.907004 0
M  V30 33 H 3.594573 0.698160 -0.849518 0
M  V30 34 H 1.043856 2.552755 -1.548026 0
M  V30 35 H 0.693166 4.622343 -0.396603 0
M  V30 36 H 1.866281 4.731429 2.280453 0
M  V30 37 H 0.747015 5.976687 1.726767 0
M  V30 38 H -3.488459 4.855154 5.003343 0
M  V30 39 H -3.575803 3.002482 4.947714 0
M  V30 40 H -4.090060 3.996742 3.564412 0
M  V30 41 H -0.415117 -2.054109 -0.407318 0
M  V30 42 H 2.208257 -5.655215 -2.070965 0
M  V30 43 H 0.720566 -7.638251 -1.912658 0
M  V30 END ATOM
M  V30 BEGIN BOND
M  V30 1 1 1 2
M  V30 2 2 2 3
M  V30 3 1 3 4
M  V30 4 1 4 5
M  V30 5 2 5 6
M  V30 6 1 6 7
M  V30 7 1 7 8
M  V30 8 2 8 9
M  V30 9 1 9 10
M  V30 10 1 10 11
M  V30 11 1 11 12
M  V30 12 2 12 13
M  V30 13 1 12 14
M  V30 14 1 14 15
M  V30 15 1 15 16
M  V30 16 2 16 17
M  V30 17 1 17 18
M  V30 18 2 18 19
M  V30 19 1 19 20
M  V30 20 1 19 21
M  V30 21 2 10 22
M  V30 22 1 22 23
M  V30 23 2 23 24
M  V30 24 2 4 25
M  V30 25 1 25 26
M  V30 26 2 26 27
M  V30 27 1 27 2
M  V30 28 1 24 5
M  V30 29 1 24 8
M  V30 30 1 21 16
M  V30 31 1 1 28
M  V30 32 1 1 29
M  V30 33 1 1 30
M  V30 34 1 3 31
M  V30 35 1 7 32
M  V30 36 1 9 33
M  V30 37 1 11 34
M  V30 38 1 14 35
M  V30 39 1 15 36
M  V30 40 1 15 37
M  V30 41 1 20 38
M  V30 42 1 20 39
M  V30 43 1 20 40
M  V30 44 1 23 41
M  V30 45 1 25 42
M  V30 46 1 26 43
M  V30 END BOND
M  V30 END CTAB
M  END
>  <Dataset>  (722) 
ChEMBL_Kinases

>  <Ligand_Instance>  (722) 
nan

>  <PDB_ID>  (722) 
nan

>  <Standardized_SMILES>  (722) 
Cc1cc(-c2n[nH]c3cc(NC(=O)NCc4nnc(C)o4)ncc23)ccn1

>  <Name>  (722) 
nan

>  <Pocket>  (722) 
nan

>  <ATP_Site>  (722) 
nan

>  <Peripheral>  (722) 
nan

>  <Num_H_Atoms_ProtBoundConf>  (722) 
nan

>  <Num_Resolved_Atoms>  (722) 
nan

>  <Num_Not_Resolved_Atoms>  (722) 
nan

$$$$
CHEMBL3703714
     RDKit          3D

  0  0  0  0  0  0  0  0  0  0999 V3000
M  V30 BEGIN CTAB
M  V30 COUNTS 44 47 0 0 0
M  V30 BEGIN ATOM
M  V30 1 C 0.213359 -7.888294 0.746638 0
M  V30 2 C 0.024156 -6.659714 -0.029556 0
M  V30 3 C 0.932323 -5.619729 -0.017174 0
M  V30 4 C 0.652474 -4.510610 -0.787748 0
M  V30 5 C 1.562021 -3.371514 -0.832013 0
M  V30 6 N 2.904084 -3.474977 -0.977694 0
M  V30 7 N 3.461709 -2.254658 -0.978898 0
M  V30 8 C 2.438792 -1.393287 -0.830969 0
M  V30 9 C 2.499891 -0.014653 -0.770895 0
M  V30 10 C 1.297719 0.647037 -0.611652 0
M  V30 11 N 1.127837 2.077352 -0.521747 0
M  V30 12 C 1.184939 2.653276 0.776747 0
M  V30 13 O 1.378945 1.895546 1.775334 0
M  V30 14 N 1.035324 4.023600 0.990963 0
M  V30 15 C 1.057223 4.798113 2.217452 0
M  V30 16 C -0.223788 4.627251 2.937496 0
M  V30 17 C -1.295512 5.463643 2.696763 0
M  V30 18 C -2.468461 5.271310 3.389216 0
M  V30 19 C -2.613699 4.250129 4.335653 0
M  V30 20 N -1.535080 3.444804 4.546192 0
M  V30 21 C -0.364700 3.621101 3.868873 0
M  V30 22 N 0.098920 0.007820 -0.515720 0
M  V30 23 C 0.033451 -1.353067 -0.574379 0
M  V30 24 C 1.222361 -2.037843 -0.733323 0
M  V30 25 C -0.508709 -4.441016 -1.553907 0
M  V30 26 C -1.386447 -5.520539 -1.525818 0
M  V30 27 N -1.095494 -6.597269 -0.765876 0
M  V30 28 H 0.702967 -8.682105 0.131953 0
M  V30 29 H -0.776864 -8.329902 1.043240 0
M  V30 30 H 0.818669 -7.758104 1.661035 0
M  V30 31 H 1.830771 -5.676266 0.576586 0
M  V30 32 H 4.478627 -2.032966 -1.075378 0
M  V30 33 H 3.362737 0.603686 -0.832610 0
M  V30 34 H 0.967584 2.693184 -1.366704 0
M  V30 35 H 0.879123 4.600453 0.113558 0
M  V30 36 H 1.899490 4.350207 2.824286 0
M  V30 37 H 1.322211 5.846824 2.047024 0
M  V30 38 H -1.249348 6.263726 1.985193 0
M  V30 39 H -3.362948 5.871103 3.272375 0
M  V30 40 H -3.519711 4.063553 4.902905 0
M  V30 41 H 0.414517 2.919053 4.126957 0
M  V30 42 H -0.891911 -1.906612 -0.502513 0
M  V30 43 H -0.801034 -3.612334 -2.182220 0
M  V30 44 H -2.310635 -5.528129 -2.102057 0
M  V30 END ATOM
M  V30 BEGIN BOND
M  V30 1 1 1 2
M  V30 2 2 2 3
M  V30 3 1 3 4
M  V30 4 1 4 5
M  V30 5 2 5 6
M  V30 6 1 6 7
M  V30 7 1 7 8
M  V30 8 2 8 9
M  V30 9 1 9 10
M  V30 10 1 10 11
M  V30 11 1 11 12
M  V30 12 2 12 13
M  V30 13 1 12 14
M  V30 14 1 14 15
M  V30 15 1 15 16
M  V30 16 2 16 17
M  V30 17 1 17 18
M  V30 18 2 18 19
M  V30 19 1 19 20
M  V30 20 2 20 21
M  V30 21 2 10 22
M  V30 22 1 22 23
M  V30 23 2 23 24
M  V30 24 2 4 25
M  V30 25 1 25 26
M  V30 26 2 26 27
M  V30 27 1 27 2
M  V30 28 1 24 5
M  V30 29 1 24 8
M  V30 30 1 21 16
M  V30 31 1 1 28
M  V30 32 1 1 29
M  V30 33 1 1 30
M  V30 34 1 3 31
M  V30 35 1 7 32
M  V30 36 1 9 33
M  V30 37 1 11 34
M  V30 38 1 14 35
M  V30 39 1 15 36
M  V30 40 1 15 37
M  V30 41 1 17 38
M  V30 42 1 18 39
M  V30 43 1 19 40
M  V30 44 1 21 41
M  V30 45 1 23 42
M  V30 46 1 25 43
M  V30 47 1 26 44
M  V30 END BOND
M  V30 END CTAB
M  END
>  <Dataset>  (723) 
ChEMBL_Kinases

>  <Ligand_Instance>  (723) 
nan

>  <PDB_ID>  (723) 
nan

>  <Standardized_SMILES>  (723) 
Cc1cc(-c2n[nH]c3cc(NC(=O)NCc4cccnc4)ncc23)ccn1

>  <Name>  (723) 
nan

>  <Pocket>  (723) 
nan

>  <ATP_Site>  (723) 
nan

>  <Peripheral>  (723) 
nan

>  <Num_H_Atoms_ProtBoundConf>  (723) 
nan

>  <Num_Resolved_Atoms>  (723) 
nan

>  <Num_Not_Resolved_Atoms>  (723) 
nan

$$$$
CHEMBL3703715
     RDKit          3D

  0  0  0  0  0  0  0  0  0  0999 V3000
M  V30 BEGIN CTAB
M  V30 COUNTS 49 52 0 0 0
M  V30 BEGIN ATOM
M  V30 1 C 3.043679 -7.267785 0.462926 0
M  V30 2 C 3.043986 -6.546062 -0.841530 0
M  V30 3 C 2.743861 -5.182657 -0.909599 0
M  V30 4 C 2.732863 -4.473227 -2.101872 0
M  V30 5 C 2.413421 -3.048265 -2.138450 0
M  V30 6 N 3.083712 -2.080883 -2.829727 0
M  V30 7 N 2.496050 -0.894016 -2.619546 0
M  V30 8 C 1.456240 -1.124990 -1.794257 0
M  V30 9 C 0.549314 -0.212915 -1.291372 0
M  V30 10 C -0.453505 -0.660710 -0.452010 0
M  V30 11 N -1.496307 0.074103 0.185348 0
M  V30 12 C -1.220003 0.618881 1.489018 0
M  V30 13 O -0.125118 0.466423 2.049741 0
M  V30 14 N -2.292622 1.337462 2.073642 0
M  V30 15 C -2.039449 1.910112 3.409538 0 CFG=2
M  V30 16 C -3.083156 1.449887 4.392533 0
M  V30 17 O -2.869851 1.944357 5.669181 0
M  V30 18 C -2.204559 3.373033 3.220215 0
M  V30 19 C -1.510140 3.846921 2.095762 0
M  V30 20 C -1.508874 5.180830 1.701333 0
M  V30 21 C -2.210719 6.100595 2.425952 0
M  V30 22 C -2.896794 5.654428 3.530169 0
M  V30 23 C -2.896383 4.337661 3.917122 0
M  V30 24 N -0.546172 -1.984360 -0.124972 0
M  V30 25 C 0.350696 -2.882262 -0.623127 0
M  V30 26 C 1.361829 -2.464051 -1.462895 0
M  V30 27 C 3.034065 -5.153740 -3.273862 0
M  V30 28 C 3.332759 -6.518090 -3.192523 0
M  V30 29 N 3.328828 -7.157991 -2.006851 0
M  V30 30 H 3.589011 -6.692931 1.241219 0
M  V30 31 H 2.038276 -7.578591 0.788806 0
M  V30 32 H 3.630470 -8.216639 0.309365 0
M  V30 33 H 2.521157 -4.713805 0.024822 0
M  V30 34 H 2.793610 0.032464 -3.022659 0
M  V30 35 H 0.507845 0.844098 -1.465625 0
M  V30 36 H -2.408626 0.185564 -0.313546 0
M  V30 37 H -3.239914 1.508053 1.669090 0
M  V30 38 H -1.008826 1.669798 3.739955 0
M  V30 39 H -3.137779 0.348750 4.487361 0
M  V30 40 H -4.056071 1.892882 4.067283 0
M  V30 41 H -2.080320 1.446152 6.048304 0
M  V30 42 H -0.912850 3.213395 1.434803 0
M  V30 43 H -0.973985 5.532939 0.839071 0
M  V30 44 H -2.288573 7.154021 2.225898 0
M  V30 45 H -3.482165 6.292753 4.172301 0
M  V30 46 H -3.415569 3.960702 4.758828 0
M  V30 47 H 0.291047 -3.933079 -0.374436 0
M  V30 48 H 3.040117 -4.643387 -4.241045 0
M  V30 49 H 3.568394 -7.053280 -4.104082 0
M  V30 END ATOM
M  V30 BEGIN BOND
M  V30 1 1 1 2
M  V30 2 2 2 3
M  V30 3 1 3 4
M  V30 4 1 4 5
M  V30 5 2 5 6
M  V30 6 1 6 7
M  V30 7 1 7 8
M  V30 8 2 8 9
M  V30 9 1 9 10
M  V30 10 1 10 11
M  V30 11 1 11 12
M  V30 12 2 12 13
M  V30 13 1 12 14
M  V30 14 1 14 15
M  V30 15 1 15 16
M  V30 16 1 16 17
M  V30 17 1 15 18
M  V30 18 2 18 19
M  V30 19 1 19 20
M  V30 20 2 20 21
M  V30 21 1 21 22
M  V30 22 2 22 23
M  V30 23 2 10 24
M  V30 24 1 24 25
M  V30 25 2 25 26
M  V30 26 2 4 27
M  V30 27 1 27 28
M  V30 28 2 28 29
M  V30 29 1 29 2
M  V30 30 1 26 5
M  V30 31 1 26 8
M  V30 32 1 23 18
M  V30 33 1 1 30
M  V30 34 1 1 31
M  V30 35 1 1 32
M  V30 36 1 3 33
M  V30 37 1 7 34
M  V30 38 1 9 35
M  V30 39 1 11 36
M  V30 40 1 14 37
M  V30 41 1 15 38 CFG=1
M  V30 42 1 16 39
M  V30 43 1 16 40
M  V30 44 1 17 41
M  V30 45 1 19 42
M  V30 46 1 20 43
M  V30 47 1 21 44
M  V30 48 1 22 45
M  V30 49 1 23 46
M  V30 50 1 25 47
M  V30 51 1 27 48
M  V30 52 1 28 49
M  V30 END BOND
M  V30 END CTAB
M  END
>  <Dataset>  (724) 
ChEMBL_Kinases

>  <Ligand_Instance>  (724) 
nan

>  <PDB_ID>  (724) 
nan

>  <Standardized_SMILES>  (724) 
Cc1cc(-c2n[nH]c3cc(NC(=O)N[C@H](CO)c4ccccc4)ncc23)ccn1

>  <Name>  (724) 
nan

>  <Pocket>  (724) 
nan

>  <ATP_Site>  (724) 
nan

>  <Peripheral>  (724) 
nan

>  <Num_H_Atoms_ProtBoundConf>  (724) 
nan

>  <Num_Resolved_Atoms>  (724) 
nan

>  <Num_Not_Resolved_Atoms>  (724) 
nan

$$$$
CHEMBL522717
     RDKit          3D

  0  0  0  0  0  0  0  0  0  0999 V3000
M  V30 BEGIN CTAB
M  V30 COUNTS 37 39 0 0 0
M  V30 BEGIN ATOM
M  V30 1 C -1.516242 -2.384436 1.999613 0
M  V30 2 C -0.553441 -3.396441 2.577356 0
M  V30 3 C -1.147308 -4.764519 2.361888 0
M  V30 4 C 0.805431 -3.322896 1.914485 0
M  V30 5 C 1.454262 -1.991667 2.065768 0
M  V30 6 C 1.109819 -1.048834 0.970890 0
M  V30 7 N 1.193526 0.289489 0.890106 0
M  V30 8 C 0.754566 0.670910 -0.323707 0
M  V30 9 C 0.694018 2.054106 -0.785536 0
M  V30 10 C 0.230380 2.361752 -2.046529 0
M  V30 11 C 0.163090 3.671383 -2.509452 0
M  V30 12 N 0.567573 4.681894 -1.692319 0
M  V30 13 C 1.023682 4.368652 -0.449453 0
M  V30 14 N 1.429934 5.471976 0.351669 0
M  V30 15 N 1.079028 3.074025 -0.020589 0
M  V30 16 C 0.371267 -0.427099 -1.066929 0
M  V30 17 C 0.604149 -1.504428 -0.229340 0
M  V30 18 C 0.381453 -2.922668 -0.488469 0
M  V30 19 O -0.080244 -3.315610 -1.589424 0
M  V30 20 N 0.718887 -3.829656 0.580443 0
M  V30 21 H -1.120817 -1.341734 2.150730 0
M  V30 22 H -2.434887 -2.420985 2.623042 0
M  V30 23 H -1.793871 -2.610776 0.969997 0
M  V30 24 H -0.507060 -3.220477 3.671755 0
M  V30 25 H -2.045966 -4.897924 3.001895 0
M  V30 26 H -1.485128 -4.803241 1.306124 0
M  V30 27 H -0.403925 -5.563660 2.499399 0
M  V30 28 H 1.443447 -4.054051 2.493444 0
M  V30 29 H 2.559645 -2.056482 2.127712 0
M  V30 30 H 1.114247 -1.513512 3.011607 0
M  V30 31 H 1.545640 0.921681 1.656172 0
M  V30 32 H -0.093231 1.553399 -2.700288 0
M  V30 33 H -0.208998 3.883277 -3.513708 0
M  V30 34 H 0.569188 5.601180 0.953923 0
M  V30 35 H 2.301672 6.058662 0.410615 0
M  V30 36 H -0.015332 -0.395281 -2.068631 0
M  V30 37 H 0.889193 -4.832432 0.338714 0
M  V30 END ATOM
M  V30 BEGIN BOND
M  V30 1 1 1 2
M  V30 2 1 2 3
M  V30 3 1 2 4
M  V30 4 1 4 5
M  V30 5 1 5 6
M  V30 6 1 6 7
M  V30 7 1 7 8
M  V30 8 1 8 9
M  V30 9 2 9 10
M  V30 10 1 10 11
M  V30 11 2 11 12
M  V30 12 1 12 13
M  V30 13 1 13 14
M  V30 14 2 13 15
M  V30 15 2 8 16
M  V30 16 1 16 17
M  V30 17 1 17 18
M  V30 18 2 18 19
M  V30 19 1 18 20
M  V30 20 1 20 4
M  V30 21 2 17 6
M  V30 22 1 15 9
M  V30 23 1 1 21
M  V30 24 1 1 22
M  V30 25 1 1 23
M  V30 26 1 2 24
M  V30 27 1 3 25
M  V30 28 1 3 26
M  V30 29 1 3 27
M  V30 30 1 4 28
M  V30 31 1 5 29
M  V30 32 1 5 30
M  V30 33 1 7 31
M  V30 34 1 10 32
M  V30 35 1 11 33
M  V30 36 1 14 34
M  V30 37 1 14 35
M  V30 38 1 16 36
M  V30 39 1 20 37
M  V30 END BOND
M  V30 END CTAB
M  END
>  <Dataset>  (725) 
ChEMBL_Kinases

>  <Ligand_Instance>  (725) 
nan

>  <PDB_ID>  (725) 
nan

>  <Standardized_SMILES>  (725) 
CC(C)C1Cc2[nH]c(-c3ccnc(N)n3)cc2C(=O)N1

>  <Name>  (725) 
nan

>  <Pocket>  (725) 
nan

>  <ATP_Site>  (725) 
nan

>  <Peripheral>  (725) 
nan

>  <Num_H_Atoms_ProtBoundConf>  (725) 
nan

>  <Num_Resolved_Atoms>  (725) 
nan

>  <Num_Not_Resolved_Atoms>  (725) 
nan

$$$$
CHEMBL522751
     RDKit          3D

  0  0  0  0  0  0  0  0  0  0999 V3000
M  V30 BEGIN CTAB
M  V30 COUNTS 40 44 0 0 0
M  V30 BEGIN ATOM
M  V30 1 C -1.271121 -5.018082 2.486834 0
M  V30 2 N -0.721807 -3.708201 2.146454 0
M  V30 3 C 0.416634 -3.452174 1.481818 0
M  V30 4 C 0.606031 -2.069056 1.347276 0
M  V30 5 C 1.780845 -1.542198 0.664130 0
M  V30 6 C 1.848616 -0.551647 -0.243338 0
M  V30 7 C 0.849751 0.316893 -0.855113 0
M  V30 8 C -0.383649 -0.046132 -1.410443 0
M  V30 9 O -0.982036 1.046928 -1.823037 0
M  V30 10 C -0.261578 2.099096 -1.592638 0
M  V30 11 C -0.478660 3.436951 -1.846031 0
M  V30 12 C 0.467059 4.382011 -1.490953 0
M  V30 13 C 1.663775 4.012602 -0.868360 0
M  V30 14 C 1.820136 2.659970 -0.643702 0
M  V30 15 C 0.904938 1.689198 -0.982346 0
M  V30 16 C 3.244371 -0.394357 -0.640038 0
M  V30 17 O 3.934445 0.323834 -1.416757 0
M  V30 18 N 4.040070 -1.353685 0.084298 0
M  V30 19 C 3.129015 -2.072726 0.900901 0
M  V30 20 O 3.401607 -3.023184 1.713064 0
M  V30 21 C -0.504909 -1.546353 1.982961 0
M  V30 22 C -0.777610 -0.209849 2.123451 0
M  V30 23 C -1.927677 0.161885 2.788592 0
M  V30 24 I -2.483387 2.162900 3.084698 0
M  V30 25 C -2.757119 -0.817568 3.286121 0
M  V30 26 C -2.477197 -2.161339 3.142082 0
M  V30 27 C -1.314878 -2.548629 2.470262 0
M  V30 28 H -1.942705 -5.381531 1.691238 0
M  V30 29 H -0.391446 -5.707864 2.524014 0
M  V30 30 H -1.829559 -4.993812 3.456693 0
M  V30 31 H 1.064386 -4.241151 1.119496 0
M  V30 32 H -0.760358 -1.076923 -1.476072 0
M  V30 33 H -1.376465 3.830024 -2.323821 0
M  V30 34 H 0.351931 5.450924 -1.662092 0
M  V30 35 H 2.434412 4.725652 -0.570441 0
M  V30 36 H 2.746179 2.383498 -0.154759 0
M  V30 37 H 5.071538 -1.598073 0.118542 0
M  V30 38 H -0.165659 0.577418 1.767368 0
M  V30 39 H -3.676993 -0.616598 3.817606 0
M  V30 40 H -3.087445 -2.977099 3.507869 0
M  V30 END ATOM
M  V30 BEGIN BOND
M  V30 1 1 1 2
M  V30 2 1 2 3
M  V30 3 2 3 4
M  V30 4 1 4 5
M  V30 5 2 5 6
M  V30 6 1 6 7
M  V30 7 2 7 8
M  V30 8 1 8 9
M  V30 9 1 9 10
M  V30 10 2 10 11
M  V30 11 1 11 12
M  V30 12 2 12 13
M  V30 13 1 13 14
M  V30 14 2 14 15
M  V30 15 1 6 16
M  V30 16 2 16 17
M  V30 17 1 16 18
M  V30 18 1 18 19
M  V30 19 2 19 20
M  V30 20 1 4 21
M  V30 21 2 21 22
M  V30 22 1 22 23
M  V30 23 1 23 24
M  V30 24 2 23 25
M  V30 25 1 25 26
M  V30 26 2 26 27
M  V30 27 1 27 2
M  V30 28 1 19 5
M  V30 29 1 27 21
M  V30 30 1 15 7
M  V30 31 1 15 10
M  V30 32 1 1 28
M  V30 33 1 1 29
M  V30 34 1 1 30
M  V30 35 1 3 31
M  V30 36 1 8 32
M  V30 37 1 11 33
M  V30 38 1 12 34
M  V30 39 1 13 35
M  V30 40 1 14 36
M  V30 41 1 18 37
M  V30 42 1 22 38
M  V30 43 1 25 39
M  V30 44 1 26 40
M  V30 END BOND
M  V30 END CTAB
M  END
>  <Dataset>  (726) 
ChEMBL_Kinases

>  <Ligand_Instance>  (726) 
nan

>  <PDB_ID>  (726) 
nan

>  <Standardized_SMILES>  (726) 
Cn1cc(C2=C(c3coc4ccccc34)C(=O)NC2=O)c2cc(I)ccc21

>  <Name>  (726) 
nan

>  <Pocket>  (726) 
nan

>  <ATP_Site>  (726) 
nan

>  <Peripheral>  (726) 
nan

>  <Num_H_Atoms_ProtBoundConf>  (726) 
nan

>  <Num_Resolved_Atoms>  (726) 
nan

>  <Num_Not_Resolved_Atoms>  (726) 
nan

$$$$
CHEMBL522760
     RDKit          3D

  0  0  0  0  0  0  0  0  0  0999 V3000
M  V30 BEGIN CTAB
M  V30 COUNTS 44 48 0 0 0
M  V30 BEGIN ATOM
M  V30 1 C 2.982036 -0.763889 5.704065 0
M  V30 2 O 3.303916 -0.453709 4.349587 0
M  V30 3 C 2.495216 -0.917515 3.317322 0
M  V30 4 C 1.370522 -1.688941 3.640831 0
M  V30 5 C 0.551071 -2.163261 2.649382 0
M  V30 6 C 0.883354 -1.847831 1.350365 0
M  V30 7 C 1.964908 -1.100646 0.992598 0
M  V30 8 C 2.520791 -0.643243 -0.207565 0
M  V30 9 C 1.947286 -0.852859 -1.554245 0
M  V30 10 C 0.678383 -0.557702 -1.897190 0
M  V30 11 C -0.300386 0.018035 -0.974581 0
M  V30 12 C 0.072434 1.046223 -0.097931 0
M  V30 13 N -0.965766 1.426630 0.679774 0
M  V30 14 C -1.001145 2.445501 1.710019 0
M  V30 15 C -2.014204 0.663215 0.325877 0
M  V30 16 C -3.327295 0.598114 0.772796 0
M  V30 17 C -4.188162 -0.317111 0.201652 0
M  V30 18 Cl -5.846823 -0.410531 0.756950 0
M  V30 19 C -3.767276 -1.180301 -0.817498 0
M  V30 20 F -4.587508 -2.081185 -1.390038 0
M  V30 21 C -2.454139 -1.126462 -1.275765 0
M  V30 22 C -1.625963 -0.200745 -0.681094 0
M  V30 23 C 0.511048 -0.909266 -3.299032 0
M  V30 24 O -0.511205 -0.797168 -4.017165 0
M  V30 25 N 1.740816 -1.444226 -3.830271 0
M  V30 26 C 2.628181 -1.398690 -2.714376 0
M  V30 27 O 3.833067 -1.791603 -2.774929 0
M  V30 28 C 3.653616 0.079922 0.140353 0
M  V30 29 O 3.768561 0.061222 1.446629 0
M  V30 30 C 2.786987 -0.628061 1.994870 0
M  V30 31 H 3.075098 -1.884855 5.799931 0
M  V30 32 H 1.943341 -0.527998 5.972740 0
M  V30 33 H 3.744511 -0.364857 6.395623 0
M  V30 34 H 1.161962 -1.901614 4.665959 0
M  V30 35 H -0.336958 -2.770750 2.878372 0
M  V30 36 H 0.226049 -2.248070 0.595763 0
M  V30 37 H 1.041142 1.519140 -0.002698 0
M  V30 38 H -1.996386 2.897319 1.820908 0
M  V30 39 H -0.705407 2.028945 2.709244 0
M  V30 40 H -0.258248 3.263845 1.505629 0
M  V30 41 H -3.618971 1.280757 1.562762 0
M  V30 42 H -2.120847 -1.779262 -2.047705 0
M  V30 43 H 1.894892 -1.776191 -4.819584 0
M  V30 44 H 4.245384 0.528853 -0.660748 0
M  V30 END ATOM
M  V30 BEGIN BOND
M  V30 1 1 1 2
M  V30 2 1 2 3
M  V30 3 2 3 4
M  V30 4 1 4 5
M  V30 5 2 5 6
M  V30 6 1 6 7
M  V30 7 1 7 8
M  V30 8 1 8 9
M  V30 9 2 9 10
M  V30 10 1 10 11
M  V30 11 2 11 12
M  V30 12 1 12 13
M  V30 13 1 13 14
M  V30 14 1 13 15
M  V30 15 2 15 16
M  V30 16 1 16 17
M  V30 17 1 17 18
M  V30 18 2 17 19
M  V30 19 1 19 20
M  V30 20 1 19 21
M  V30 21 2 21 22
M  V30 22 1 10 23
M  V30 23 2 23 24
M  V30 24 1 23 25
M  V30 25 1 25 26
M  V30 26 2 26 27
M  V30 27 2 8 28
M  V30 28 1 28 29
M  V30 29 1 29 30
M  V30 30 1 30 3
M  V30 31 2 30 7
M  V30 32 1 26 9
M  V30 33 1 22 11
M  V30 34 1 22 15
M  V30 35 1 1 31
M  V30 36 1 1 32
M  V30 37 1 1 33
M  V30 38 1 4 34
M  V30 39 1 5 35
M  V30 40 1 6 36
M  V30 41 1 12 37
M  V30 42 1 14 38
M  V30 43 1 14 39
M  V30 44 1 14 40
M  V30 45 1 16 41
M  V30 46 1 21 42
M  V30 47 1 25 43
M  V30 48 1 28 44
M  V30 END BOND
M  V30 END CTAB
M  END
>  <Dataset>  (727) 
ChEMBL_Kinases

>  <Ligand_Instance>  (727) 
nan

>  <PDB_ID>  (727) 
nan

>  <Standardized_SMILES>  (727) 
COc1cccc2c(C3=C(c4cn(C)c5cc(Cl)c(F)cc45)C(=O)NC3=O)coc12

>  <Name>  (727) 
nan

>  <Pocket>  (727) 
nan

>  <ATP_Site>  (727) 
nan

>  <Peripheral>  (727) 
nan

>  <Num_H_Atoms_ProtBoundConf>  (727) 
nan

>  <Num_Resolved_Atoms>  (727) 
nan

>  <Num_Not_Resolved_Atoms>  (727) 
nan

$$$$
CHEMBL522800
     RDKit          3D

  0  0  0  0  0  0  0  0  0  0999 V3000
M  V30 BEGIN CTAB
M  V30 COUNTS 52 56 0 0 0
M  V30 BEGIN ATOM
M  V30 1 C 0.166919 -5.657351 3.456108 0
M  V30 2 N 0.927886 -4.896274 2.508361 0
M  V30 3 C 1.631191 -3.787167 3.061463 0
M  V30 4 C 2.876118 -3.535942 2.251739 0
M  V30 5 C 2.595233 -3.490996 0.766340 0
M  V30 6 C 1.866332 -2.235386 0.478733 0
M  V30 7 C 2.632491 -1.169708 0.019069 0
M  V30 8 C 2.077373 0.065706 -0.298323 0
M  V30 9 C 0.734438 0.223494 -0.148966 0
M  V30 10 C -0.129864 1.276933 -0.361854 0
M  V30 11 C 0.186705 2.603199 -0.837264 0
M  V30 12 C -0.091158 3.638274 0.058700 0
M  V30 13 C 0.167702 4.972663 -0.274094 0
M  V30 14 N 0.696663 5.289366 -1.479928 0
M  V30 15 C 0.955138 4.267797 -2.325978 0
M  V30 16 N 0.716905 2.989770 -2.030950 0
M  V30 17 C -1.400701 0.874336 -0.042621 0
M  V30 18 C -2.691210 1.573743 -0.078786 0
M  V30 19 C -3.079543 1.955963 -1.339538 0
M  V30 20 C -4.268145 2.626299 -1.563760 0
M  V30 21 C -5.064532 2.904727 -0.472278 0
M  V30 22 F -6.258384 3.554467 -0.525580 0
M  V30 23 C -4.690953 2.525809 0.822075 0
M  V30 24 C -3.492343 1.854794 1.012857 0
M  V30 25 N -1.367291 -0.401286 0.365988 0
M  V30 26 C -0.078114 -0.798549 0.303088 0
M  V30 27 C 0.515460 -2.005941 0.605565 0
M  V30 28 C 1.893357 -4.735573 0.356873 0
M  V30 29 C 1.654243 -5.661713 1.544991 0
M  V30 30 H 0.761590 -6.219703 4.196691 0
M  V30 31 H -0.477286 -6.360197 2.888145 0
M  V30 32 H -0.533816 -4.930798 3.946515 0
M  V30 33 H 0.980271 -2.886651 3.062564 0
M  V30 34 H 1.924725 -3.944531 4.126759 0
M  V30 35 H 3.587449 -4.380403 2.479438 0
M  V30 36 H 3.351142 -2.574609 2.599933 0
M  V30 37 H 3.611485 -3.411844 0.265978 0
M  V30 38 H 3.716255 -1.246393 -0.117889 0
M  V30 39 H 2.669068 0.901522 -0.657490 0
M  V30 40 H -0.519469 3.436809 1.048135 0
M  V30 41 H -0.078619 5.730215 0.484434 0
M  V30 42 H 1.384761 4.473338 -3.317226 0
M  V30 43 H -2.489110 1.762787 -2.241327 0
M  V30 44 H -4.618107 2.947618 -2.537527 0
M  V30 45 H -5.307835 2.736911 1.699968 0
M  V30 46 H -3.118233 1.522727 1.969321 0
M  V30 47 H -2.154061 -1.037637 0.689315 0
M  V30 48 H -0.084509 -2.813999 0.948874 0
M  V30 49 H 0.934813 -4.550168 -0.181563 0
M  V30 50 H 2.550751 -5.298305 -0.347281 0
M  V30 51 H 2.607210 -6.076998 1.924537 0
M  V30 52 H 0.983951 -6.497690 1.221353 0
M  V30 END ATOM
M  V30 BEGIN BOND
M  V30 1 1 1 2
M  V30 2 1 2 3
M  V30 3 1 3 4
M  V30 4 1 4 5
M  V30 5 1 5 6
M  V30 6 2 6 7
M  V30 7 1 7 8
M  V30 8 2 8 9
M  V30 9 1 9 10
M  V30 10 1 10 11
M  V30 11 2 11 12
M  V30 12 1 12 13
M  V30 13 2 13 14
M  V30 14 1 14 15
M  V30 15 2 15 16
M  V30 16 2 10 17
M  V30 17 1 17 18
M  V30 18 2 18 19
M  V30 19 1 19 20
M  V30 20 2 20 21
M  V30 21 1 21 22
M  V30 22 1 21 23
M  V30 23 2 23 24
M  V30 24 1 17 25
M  V30 25 1 25 26
M  V30 26 2 26 27
M  V30 27 1 5 28
M  V30 28 1 28 29
M  V30 29 1 29 2
M  V30 30 1 27 6
M  V30 31 1 26 9
M  V30 32 1 16 11
M  V30 33 1 24 18
M  V30 34 1 1 30
M  V30 35 1 1 31
M  V30 36 1 1 32
M  V30 37 1 3 33
M  V30 38 1 3 34
M  V30 39 1 4 35
M  V30 40 1 4 36
M  V30 41 1 5 37
M  V30 42 1 7 38
M  V30 43 1 8 39
M  V30 44 1 12 40
M  V30 45 1 13 41
M  V30 46 1 15 42
M  V30 47 1 19 43
M  V30 48 1 20 44
M  V30 49 1 23 45
M  V30 50 1 24 46
M  V30 51 1 25 47
M  V30 52 1 27 48
M  V30 53 1 28 49
M  V30 54 1 28 50
M  V30 55 1 29 51
M  V30 56 1 29 52
M  V30 END BOND
M  V30 END CTAB
M  END
>  <Dataset>  (728) 
ChEMBL_Kinases

>  <Ligand_Instance>  (728) 
nan

>  <PDB_ID>  (728) 
nan

>  <Standardized_SMILES>  (728) 
CN1CCC(c2ccc3c(-c4ccncn4)c(-c4ccc(F)cc4)[nH]c3c2)CC1

>  <Name>  (728) 
nan

>  <Pocket>  (728) 
nan

>  <ATP_Site>  (728) 
nan

>  <Peripheral>  (728) 
nan

>  <Num_H_Atoms_ProtBoundConf>  (728) 
nan

>  <Num_Resolved_Atoms>  (728) 
nan

>  <Num_Not_Resolved_Atoms>  (728) 
nan

$$$$
CHEMBL3704369
     RDKit          3D

  0  0  0  0  0  0  0  0  0  0999 V3000
M  V30 BEGIN CTAB
M  V30 COUNTS 64 68 0 0 0
M  V30 BEGIN ATOM
M  V30 1 C 5.084937 3.851002 3.459392 0
M  V30 2 N 5.727484 2.599142 3.112470 0
M  V30 3 C 5.117598 1.481887 3.749833 0
M  V30 4 C 4.758702 0.334614 2.866972 0
M  V30 5 C 3.764379 0.833579 1.872022 0
M  V30 6 N 2.553795 0.527398 1.444035 0
M  V30 7 C 1.941252 1.115829 0.597068 0
M  V30 8 N 0.569022 0.687077 0.178089 0
M  V30 9 C -0.310899 1.356297 1.034234 0
M  V30 10 O 0.213472 2.108071 1.894762 0
M  V30 11 C -1.765609 1.233669 0.984143 0
M  V30 12 C -2.452206 2.025881 1.899136 0
M  V30 13 C -3.852990 1.959233 1.904540 0
M  V30 14 C -4.556699 1.128481 1.025293 0
M  V30 15 C -3.804789 0.356884 0.129744 0
M  V30 16 C -4.538642 -0.522740 -0.804235 0
M  V30 17 C -4.217565 -0.141076 -2.231873 0
M  V30 18 C -4.858753 -1.093935 -3.212047 0
M  V30 19 C -4.724093 -2.540958 -2.835692 0
M  V30 20 N -3.830236 -2.622810 -1.698207 0
M  V30 21 C -2.611012 -3.289173 -1.880802 0
M  V30 22 O -2.430368 -3.749659 -3.036612 0
M  V30 23 N -1.704510 -3.397744 -0.809833 0
M  V30 24 C -0.437388 -3.956852 -0.581258 0
M  V30 25 C 0.740671 -3.268984 -0.780715 0
M  V30 26 C 1.979675 -3.816365 -0.556054 0
M  V30 27 C 2.021355 -5.102924 -0.114739 0
M  V30 28 C 0.879139 -5.878591 0.115651 0
M  V30 29 C 1.006855 -7.223874 0.580341 0
M  V30 30 N 1.096483 -8.322698 0.945793 0
M  V30 31 C -0.361069 -5.277763 -0.127541 0
M  V30 32 C -4.369414 -1.977525 -0.516963 0
M  V30 33 C -2.415609 0.399692 0.098655 0
M  V30 34 S 3.039394 2.431026 0.105139 0
M  V30 35 C 4.365778 1.882143 1.323721 0
M  V30 36 C 5.725538 2.367212 1.683509 0
M  V30 37 H 4.003356 3.624018 3.551976 0
M  V30 38 H 5.167085 4.631917 2.695394 0
M  V30 39 H 5.450670 4.214795 4.418071 0
M  V30 40 H 5.802732 1.162609 4.584089 0
M  V30 41 H 4.213122 1.873183 4.301033 0
M  V30 42 H 5.642932 -0.058288 2.350554 0
M  V30 43 H 4.345708 -0.499604 3.472425 0
M  V30 44 H 0.226624 0.064483 -0.555104 0
M  V30 45 H -1.987574 2.695217 2.613364 0
M  V30 46 H -4.425514 2.561132 2.601920 0
M  V30 47 H -5.638819 1.093019 1.046092 0
M  V30 48 H -5.618324 -0.294493 -0.659973 0
M  V30 49 H -4.694337 0.858475 -2.430889 0
M  V30 50 H -3.139147 0.000422 -2.421536 0
M  V30 51 H -4.445039 -0.980860 -4.233623 0
M  V30 52 H -5.957007 -0.863965 -3.315930 0
M  V30 53 H -4.379993 -3.176019 -3.691387 0
M  V30 54 H -5.715796 -2.934944 -2.460173 0
M  V30 55 H -1.849952 -3.016534 0.150041 0
M  V30 56 H 0.630541 -2.251933 -1.131467 0
M  V30 57 H 2.877709 -3.228064 -0.729229 0
M  V30 58 H 2.980848 -5.599980 0.084228 0
M  V30 59 H -1.210490 -5.913015 0.063205 0
M  V30 60 H -5.334665 -2.484732 -0.317027 0
M  V30 61 H -3.714919 -2.217269 0.323470 0
M  V30 62 H -1.834930 -0.193678 -0.590377 0
M  V30 63 H 6.002877 3.279974 1.120364 0
M  V30 64 H 6.469089 1.573312 1.476235 0
M  V30 END ATOM
M  V30 BEGIN BOND
M  V30 1 1 1 2
M  V30 2 1 2 3
M  V30 3 1 3 4
M  V30 4 1 4 5
M  V30 5 1 5 6
M  V30 6 2 6 7
M  V30 7 1 7 8
M  V30 8 1 8 9
M  V30 9 2 9 10
M  V30 10 1 9 11
M  V30 11 2 11 12
M  V30 12 1 12 13
M  V30 13 2 13 14
M  V30 14 1 14 15
M  V30 15 1 15 16
M  V30 16 1 16 17
M  V30 17 1 17 18
M  V30 18 1 18 19
M  V30 19 1 19 20
M  V30 20 1 20 21
M  V30 21 2 21 22
M  V30 22 1 21 23
M  V30 23 1 23 24
M  V30 24 2 24 25
M  V30 25 1 25 26
M  V30 26 2 26 27
M  V30 27 1 27 28
M  V30 28 1 28 29
M  V30 29 3 29 30
M  V30 30 2 28 31
M  V30 31 1 20 32
M  V30 32 2 15 33
M  V30 33 1 7 34
M  V30 34 1 34 35
M  V30 35 1 35 36
M  V30 36 1 36 2
M  V30 37 2 35 5
M  V30 38 1 33 11
M  V30 39 1 32 16
M  V30 40 1 31 24
M  V30 41 1 1 37
M  V30 42 1 1 38
M  V30 43 1 1 39
M  V30 44 1 3 40
M  V30 45 1 3 41
M  V30 46 1 4 42
M  V30 47 1 4 43
M  V30 48 1 8 44
M  V30 49 1 12 45
M  V30 50 1 13 46
M  V30 51 1 14 47
M  V30 52 1 16 48
M  V30 53 1 17 49
M  V30 54 1 17 50
M  V30 55 1 18 51
M  V30 56 1 18 52
M  V30 57 1 19 53
M  V30 58 1 19 54
M  V30 59 1 23 55
M  V30 60 1 25 56
M  V30 61 1 26 57
M  V30 62 1 27 58
M  V30 63 1 31 59
M  V30 64 1 32 60
M  V30 65 1 32 61
M  V30 66 1 33 62
M  V30 67 1 36 63
M  V30 68 1 36 64
M  V30 END BOND
M  V30 END CTAB
M  END
>  <Dataset>  (729) 
ChEMBL_Kinases

>  <Ligand_Instance>  (729) 
nan

>  <PDB_ID>  (729) 
nan

>  <Standardized_SMILES>  (729) 
CN1CCc2nc(NC(=O)c3cccc(C4CCCN(C(=O)Nc5cccc(C#N)c5)C4)c3)sc2C1

>  <Name>  (729) 
nan

>  <Pocket>  (729) 
nan

>  <ATP_Site>  (729) 
nan

>  <Peripheral>  (729) 
nan

>  <Num_H_Atoms_ProtBoundConf>  (729) 
nan

>  <Num_Resolved_Atoms>  (729) 
nan

>  <Num_Not_Resolved_Atoms>  (729) 
nan

$$$$
CHEMBL522890
     RDKit          3D

  0  0  0  0  0  0  0  0  0  0999 V3000
M  V30 BEGIN CTAB
M  V30 COUNTS 45 48 0 0 0
M  V30 BEGIN ATOM
M  V30 1 N 6.768778 -4.267186 0.371915 0
M  V30 2 C 5.714963 -4.119237 1.318169 0
M  V30 3 N 5.800997 -4.419771 2.634800 0
M  V30 4 C 4.754660 -4.249753 3.462540 0
M  V30 5 C 3.546702 -3.756681 2.984055 0
M  V30 6 C 3.476747 -3.456396 1.643260 0
M  V30 7 C 2.224370 -2.931700 1.080734 0
M  V30 8 C 1.059619 -2.696570 1.779452 0
M  V30 9 C 0.165587 -2.213233 0.851456 0
M  V30 10 C 0.745303 -2.144540 -0.394421 0
M  V30 11 N 2.003160 -2.596271 -0.192492 0
M  V30 12 C 0.034573 -1.665136 -1.594312 0
M  V30 13 C -1.029165 -0.665339 -1.197023 0 CFG=2
M  V30 14 C -0.392228 0.574500 -0.556318 0
M  V30 15 O -1.430985 1.391177 -0.174485 0
M  V30 16 C -1.088631 2.570403 0.427989 0
M  V30 17 C -2.390798 3.262625 0.739535 0
M  V30 18 C -2.885079 2.937271 1.986250 0
M  V30 19 C -4.074936 3.473225 2.456422 0
M  V30 20 C -4.753158 4.357161 1.614656 0
M  V30 21 C -4.234744 4.668323 0.364802 0
M  V30 22 C -3.063719 4.136857 -0.090322 0
M  V30 23 N -1.880326 -1.323668 -0.221234 0
M  V30 24 C -1.241797 -1.782260 0.987581 0
M  V30 25 O -1.861404 -1.807342 2.084696 0
M  V30 26 N 4.535333 -3.634915 0.837294 0
M  V30 27 H 7.200231 -3.342491 0.181229 0
M  V30 28 H 6.681070 -5.284409 0.245149 0
M  V30 29 H 4.862130 -4.502102 4.512372 0
M  V30 30 H 2.683837 -3.605943 3.616199 0
M  V30 31 H 0.867007 -2.852190 2.835592 0
M  V30 32 H 2.715159 -2.669279 -0.961602 0
M  V30 33 H -0.529482 -2.539776 -2.013032 0
M  V30 34 H 0.721819 -1.273443 -2.357848 0
M  V30 35 H -1.581758 -0.299844 -2.063231 0
M  V30 36 H 0.317218 1.035460 -1.244041 0
M  V30 37 H 0.163302 0.207118 0.335432 0
M  V30 38 H -0.528656 3.189707 -0.312402 0
M  V30 39 H -0.451972 2.497385 1.317231 0
M  V30 40 H -2.392663 2.248303 2.687843 0
M  V30 41 H -4.458011 3.210087 3.443817 0
M  V30 42 H -5.694450 4.799435 1.951365 0
M  V30 43 H -4.747056 5.360071 -0.317156 0
M  V30 44 H -2.576698 4.307126 -1.030366 0
M  V30 45 H -2.926016 -1.499762 -0.311402 0
M  V30 END ATOM
M  V30 BEGIN BOND
M  V30 1 1 1 2
M  V30 2 2 2 3
M  V30 3 1 3 4
M  V30 4 2 4 5
M  V30 5 1 5 6
M  V30 6 1 6 7
M  V30 7 2 7 8
M  V30 8 1 8 9
M  V30 9 2 9 10
M  V30 10 1 10 11
M  V30 11 1 10 12
M  V30 12 1 12 13
M  V30 13 1 13 14
M  V30 14 1 14 15
M  V30 15 1 15 16
M  V30 16 1 16 17
M  V30 17 2 17 18
M  V30 18 1 18 19
M  V30 19 2 19 20
M  V30 20 1 20 21
M  V30 21 2 21 22
M  V30 22 1 13 23
M  V30 23 1 23 24
M  V30 24 2 24 25
M  V30 25 2 6 26
M  V30 26 1 26 2
M  V30 27 1 11 7
M  V30 28 1 22 17
M  V30 29 1 24 9
M  V30 30 1 1 27
M  V30 31 1 1 28
M  V30 32 1 4 29
M  V30 33 1 5 30
M  V30 34 1 8 31
M  V30 35 1 11 32
M  V30 36 1 12 33
M  V30 37 1 12 34
M  V30 38 1 13 35 CFG=3
M  V30 39 1 14 36
M  V30 40 1 14 37
M  V30 41 1 16 38
M  V30 42 1 16 39
M  V30 43 1 18 40
M  V30 44 1 19 41
M  V30 45 1 20 42
M  V30 46 1 21 43
M  V30 47 1 22 44
M  V30 48 1 23 45
M  V30 END BOND
M  V30 END CTAB
M  END
>  <Dataset>  (730) 
ChEMBL_Kinases

>  <Ligand_Instance>  (730) 
nan

>  <PDB_ID>  (730) 
nan

>  <Standardized_SMILES>  (730) 
Nc1nccc(-c2cc3c([nH]2)C[C@H](COCc2ccccc2)NC3=O)n1

>  <Name>  (730) 
nan

>  <Pocket>  (730) 
nan

>  <ATP_Site>  (730) 
nan

>  <Peripheral>  (730) 
nan

>  <Num_H_Atoms_ProtBoundConf>  (730) 
nan

>  <Num_Resolved_Atoms>  (730) 
nan

>  <Num_Not_Resolved_Atoms>  (730) 
nan

$$$$
CHEMBL370379
     RDKit          3D

  0  0  0  0  0  0  0  0  0  0999 V3000
M  V30 BEGIN CTAB
M  V30 COUNTS 41 45 0 0 0
M  V30 BEGIN ATOM
M  V30 1 C 2.184227 -5.435686 2.542511 0
M  V30 2 N 2.421808 -3.996495 2.561763 0
M  V30 3 N 3.430303 -3.241164 3.010772 0
M  V30 4 C 3.165696 -1.950478 2.791399 0
M  V30 5 N 3.974230 -0.830772 3.115951 0
M  V30 6 C 1.932072 -1.894542 2.175548 0
M  V30 7 C 1.206788 -0.802854 1.741287 0
M  V30 8 C -0.019943 -1.015688 1.146927 0
M  V30 9 C -0.945423 -0.018193 0.620437 0
M  V30 10 C -0.740105 0.868596 -0.397544 0
M  V30 11 C 0.467441 1.026303 -1.199686 0
M  V30 12 C 1.003114 2.307341 -1.061847 0
M  V30 13 C 2.149751 2.683403 -1.730805 0
M  V30 14 C 2.790765 1.780881 -2.557974 0
M  V30 15 C 2.254304 0.526916 -2.684161 0
M  V30 16 C 1.110172 0.127305 -2.026645 0
M  V30 17 N -1.867106 1.586551 -0.534243 0
M  V30 18 N -2.773440 1.197485 0.346261 0
M  V30 19 C -4.029011 1.677227 0.521829 0
M  V30 20 C -4.806392 1.099370 1.527342 0
M  V30 21 C -4.253719 0.082073 2.276298 0
M  V30 22 C -2.978777 -0.402535 2.095380 0
M  V30 23 C -2.243782 0.199959 1.087129 0
M  V30 24 N -0.440622 -2.302790 1.025833 0
M  V30 25 N 0.275438 -3.335770 1.451605 0
M  V30 26 C 1.480002 -3.194631 2.039758 0
M  V30 27 H 2.218227 -5.839049 1.509745 0
M  V30 28 H 2.855551 -5.955647 3.234530 0
M  V30 29 H 1.127009 -5.638009 2.886894 0
M  V30 30 H 4.845005 -0.945178 3.688183 0
M  V30 31 H 3.716446 0.121032 2.791516 0
M  V30 32 H 1.500690 0.228936 1.817354 0
M  V30 33 H 0.614790 3.126887 -0.449660 0
M  V30 34 H 2.614105 3.662934 -1.664780 0
M  V30 35 H 3.696362 2.043569 -3.100683 0
M  V30 36 H 2.688644 -0.232141 -3.305207 0
M  V30 37 H 0.610534 -0.828043 -2.057100 0
M  V30 38 H -4.411000 2.485676 -0.103168 0
M  V30 39 H -5.811071 1.469277 1.681800 0
M  V30 40 H -4.898397 -0.325551 3.036579 0
M  V30 41 H -2.561849 -1.212556 2.703951 0
M  V30 END ATOM
M  V30 BEGIN BOND
M  V30 1 1 1 2
M  V30 2 1 2 3
M  V30 3 2 3 4
M  V30 4 1 4 5
M  V30 5 1 4 6
M  V30 6 2 6 7
M  V30 7 1 7 8
M  V30 8 1 8 9
M  V30 9 1 9 10
M  V30 10 1 10 11
M  V30 11 2 11 12
M  V30 12 1 12 13
M  V30 13 2 13 14
M  V30 14 1 14 15
M  V30 15 2 15 16
M  V30 16 2 10 17
M  V30 17 1 17 18
M  V30 18 1 18 19
M  V30 19 2 19 20
M  V30 20 1 20 21
M  V30 21 2 21 22
M  V30 22 1 22 23
M  V30 23 2 8 24
M  V30 24 1 24 25
M  V30 25 2 25 26
M  V30 26 1 26 2
M  V30 27 1 26 6
M  V30 28 2 23 9
M  V30 29 1 16 11
M  V30 30 1 23 18
M  V30 31 1 1 27
M  V30 32 1 1 28
M  V30 33 1 1 29
M  V30 34 1 5 30
M  V30 35 1 5 31
M  V30 36 1 7 32
M  V30 37 1 12 33
M  V30 38 1 13 34
M  V30 39 1 14 35
M  V30 40 1 15 36
M  V30 41 1 16 37
M  V30 42 1 19 38
M  V30 43 1 20 39
M  V30 44 1 21 40
M  V30 45 1 22 41
M  V30 END BOND
M  V30 END CTAB
M  END
>  <Dataset>  (731) 
ChEMBL_Kinases

>  <Ligand_Instance>  (731) 
nan

>  <PDB_ID>  (731) 
nan

>  <Standardized_SMILES>  (731) 
Cn1nc(N)c2cc(-c3c(-c4ccccc4)nn4ccccc34)nnc21

>  <Name>  (731) 
nan

>  <Pocket>  (731) 
nan

>  <ATP_Site>  (731) 
nan

>  <Peripheral>  (731) 
nan

>  <Num_H_Atoms_ProtBoundConf>  (731) 
nan

>  <Num_Resolved_Atoms>  (731) 
nan

>  <Num_Not_Resolved_Atoms>  (731) 
nan

$$$$
CHEMBL522900
     RDKit          3D

  0  0  0  0  0  0  0  0  0  0999 V3000
M  V30 BEGIN CTAB
M  V30 COUNTS 52 55 0 0 0
M  V30 BEGIN ATOM
M  V30 1 C 3.411397 -2.137619 5.441609 0
M  V30 2 C 3.090298 -1.167052 4.286072 0
M  V30 3 C 3.511195 0.214700 4.786341 0
M  V30 4 C 1.614277 -1.212954 4.092357 0
M  V30 5 N 3.891392 -1.531689 3.202101 0
M  V30 6 C 3.896953 -0.803154 2.003626 0
M  V30 7 C 2.644187 -0.654050 1.269083 0
M  V30 8 C 1.760758 0.410390 1.412222 0
M  V30 9 C 0.568423 0.592256 0.743873 0
M  V30 10 N 0.237669 -0.369526 -0.136288 0
M  V30 11 C -0.863674 -0.463513 -0.933443 0
M  V30 12 C -1.945649 0.516388 -0.980858 0
M  V30 13 C -2.102557 1.130915 -2.226146 0
M  V30 14 C -3.096321 2.072199 -2.381836 0
M  V30 15 N -3.891194 2.381975 -1.345714 0
M  V30 16 C -3.746196 1.799154 -0.155809 0
M  V30 17 N -4.545972 2.061975 1.011880 0
M  V30 18 N -2.781892 0.879476 0.012085 0
M  V30 19 C -0.751815 -1.634473 -1.662584 0
M  V30 20 C -1.788073 -2.022142 -2.619038 0
M  V30 21 C -3.024170 -2.225879 -2.013861 0
M  V30 22 C -4.169536 -2.599648 -2.713976 0
M  V30 23 C -4.004157 -2.762161 -4.089571 0
M  V30 24 F -5.096959 -3.128085 -4.821780 0
M  V30 25 C -2.793704 -2.566004 -4.706181 0
M  V30 26 C -1.672493 -2.195014 -3.985179 0
M  V30 27 N 0.408379 -2.215429 -1.289707 0
M  V30 28 C 1.025009 -1.450750 -0.354777 0
M  V30 29 C 2.217372 -1.606492 0.331404 0
M  V30 30 H 4.330485 -1.809682 5.967484 0
M  V30 31 H 2.563299 -2.042596 6.157452 0
M  V30 32 H 3.429503 -3.173613 5.080561 0
M  V30 33 H 2.740995 0.981616 4.521242 0
M  V30 34 H 3.603397 0.258115 5.884169 0
M  V30 35 H 4.513233 0.501710 4.376664 0
M  V30 36 H 1.262880 -1.784106 3.211147 0
M  V30 37 H 1.126021 -1.743747 4.963891 0
M  V30 38 H 1.213380 -0.187108 4.172797 0
M  V30 39 H 4.830008 -1.877813 3.438697 0
M  V30 40 H 4.209896 0.252701 2.277141 0
M  V30 41 H 4.708608 -1.130404 1.317573 0
M  V30 42 H 2.057131 1.173615 2.132716 0
M  V30 43 H -0.021468 1.474832 0.956500 0
M  V30 44 H -1.487290 0.911670 -3.081341 0
M  V30 45 H -3.246733 2.571863 -3.341838 0
M  V30 46 H -5.266211 1.472768 1.474374 0
M  V30 47 H -4.378525 2.998631 1.474935 0
M  V30 48 H -3.218055 -2.113319 -0.936377 0
M  V30 49 H -5.121007 -2.756138 -2.248537 0
M  V30 50 H -2.646669 -2.687583 -5.771168 0
M  V30 51 H -0.677119 -2.013629 -4.357383 0
M  V30 52 H 2.835639 -2.488120 0.137085 0
M  V30 END ATOM
M  V30 BEGIN BOND
M  V30 1 1 1 2
M  V30 2 1 2 3
M  V30 3 1 2 4
M  V30 4 1 2 5
M  V30 5 1 5 6
M  V30 6 1 6 7
M  V30 7 1 7 8
M  V30 8 2 8 9
M  V30 9 1 9 10
M  V30 10 1 10 11
M  V30 11 1 11 12
M  V30 12 2 12 13
M  V30 13 1 13 14
M  V30 14 2 14 15
M  V30 15 1 15 16
M  V30 16 1 16 17
M  V30 17 2 16 18
M  V30 18 2 11 19
M  V30 19 1 19 20
M  V30 20 2 20 21
M  V30 21 1 21 22
M  V30 22 2 22 23
M  V30 23 1 23 24
M  V30 24 1 23 25
M  V30 25 2 25 26
M  V30 26 1 19 27
M  V30 27 2 27 28
M  V30 28 1 28 29
M  V30 29 2 29 7
M  V30 30 1 28 10
M  V30 31 1 18 12
M  V30 32 1 26 20
M  V30 33 1 1 30
M  V30 34 1 1 31
M  V30 35 1 1 32
M  V30 36 1 3 33
M  V30 37 1 3 34
M  V30 38 1 3 35
M  V30 39 1 4 36
M  V30 40 1 4 37
M  V30 41 1 4 38
M  V30 42 1 5 39
M  V30 43 1 6 40
M  V30 44 1 6 41
M  V30 45 1 8 42
M  V30 46 1 9 43
M  V30 47 1 13 44
M  V30 48 1 14 45
M  V30 49 1 17 46
M  V30 50 1 17 47
M  V30 51 1 21 48
M  V30 52 1 22 49
M  V30 53 1 25 50
M  V30 54 1 26 51
M  V30 55 1 29 52
M  V30 END BOND
M  V30 END CTAB
M  END
>  <Dataset>  (732) 
ChEMBL_Kinases

>  <Ligand_Instance>  (732) 
nan

>  <PDB_ID>  (732) 
nan

>  <Standardized_SMILES>  (732) 
CC(C)(C)NCc1ccn2c(-c3ccnc(N)n3)c(-c3ccc(F)cc3)nc2c1

>  <Name>  (732) 
nan

>  <Pocket>  (732) 
nan

>  <ATP_Site>  (732) 
nan

>  <Peripheral>  (732) 
nan

>  <Num_H_Atoms_ProtBoundConf>  (732) 
nan

>  <Num_Resolved_Atoms>  (732) 
nan

>  <Num_Not_Resolved_Atoms>  (732) 
nan

$$$$
CHEMBL3703937
     RDKit          3D

  0  0  0  0  0  0  0  0  0  0999 V3000
M  V30 BEGIN CTAB
M  V30 COUNTS 39 42 0 0 0
M  V30 BEGIN ATOM
M  V30 1 N 3.773980 -2.768131 4.099768 0
M  V30 2 C 2.517823 -2.375183 3.583010 0
M  V30 3 C 2.448134 -1.633532 2.426849 0
M  V30 4 C 1.202288 -1.273017 1.968501 0
M  V30 5 C 1.069446 -0.536238 0.825285 0
M  V30 6 N 2.202956 -0.113151 0.093687 0
M  V30 7 C 2.193226 0.609213 -1.124266 0
M  V30 8 C 1.089719 0.715110 -1.941686 0
M  V30 9 C 1.074215 1.431797 -3.118975 0
M  V30 10 C 2.196775 2.099064 -3.550599 0
M  V30 11 C 3.331772 2.027229 -2.771282 0
M  V30 12 Cl 4.830576 2.848740 -3.234808 0
M  V30 13 C 3.284948 1.297037 -1.608574 0
M  V30 14 N -0.189861 -0.242832 0.471517 0
M  V30 15 C -1.293609 -0.609672 1.139818 0
M  V30 16 C -2.500549 -0.197395 0.596371 0
M  V30 17 C -3.621873 -0.587731 1.304158 0
M  V30 18 C -4.946782 -0.202344 0.811768 0
M  V30 19 O -6.026428 -0.511029 1.389759 0
M  V30 20 O -5.072013 0.545348 -0.353128 0
M  V30 21 C -3.524390 -1.331000 2.461137 0
M  V30 22 C -2.259578 -1.703232 2.936894 0
M  V30 23 C -1.120413 -1.351626 2.288208 0
M  V30 24 C 0.133708 -1.697772 2.724698 0
M  V30 25 C 0.201940 -2.436259 3.875917 0
M  V30 26 N 1.444305 -2.787676 4.320710 0
M  V30 27 H 3.893005 -3.780751 3.884519 0
M  V30 28 H 4.696655 -2.926375 4.514967 0
M  V30 29 H 3.366956 -1.386360 1.958304 0
M  V30 30 H 3.160952 -0.299577 0.388649 0
M  V30 31 H 0.151780 0.247710 -1.740745 0
M  V30 32 H 0.201557 1.514116 -3.762673 0
M  V30 33 H 2.214368 2.669220 -4.468008 0
M  V30 34 H 4.214244 1.267803 -1.020526 0
M  V30 35 H -2.529510 0.384591 -0.313945 0
M  V30 36 H -5.887113 1.104909 -0.584871 0
M  V30 37 H -4.454959 -1.597980 2.959167 0
M  V30 38 H -2.301008 -2.265644 3.822869 0
M  V30 39 H -0.580277 -2.788183 4.493667 0
M  V30 END ATOM
M  V30 BEGIN BOND
M  V30 1 1 1 2
M  V30 2 2 2 3
M  V30 3 1 3 4
M  V30 4 2 4 5
M  V30 5 1 5 6
M  V30 6 1 6 7
M  V30 7 2 7 8
M  V30 8 1 8 9
M  V30 9 2 9 10
M  V30 10 1 10 11
M  V30 11 1 11 12
M  V30 12 2 11 13
M  V30 13 1 5 14
M  V30 14 2 14 15
M  V30 15 1 15 16
M  V30 16 2 16 17
M  V30 17 1 17 18
M  V30 18 2 18 19
M  V30 19 1 18 20
M  V30 20 1 17 21
M  V30 21 2 21 22
M  V30 22 1 22 23
M  V30 23 2 23 24
M  V30 24 1 24 25
M  V30 25 2 25 26
M  V30 26 1 26 2
M  V30 27 1 24 4
M  V30 28 1 13 7
M  V30 29 1 23 15
M  V30 30 1 1 27
M  V30 31 1 1 28
M  V30 32 1 3 29
M  V30 33 1 6 30
M  V30 34 1 8 31
M  V30 35 1 9 32
M  V30 36 1 10 33
M  V30 37 1 13 34
M  V30 38 1 16 35
M  V30 39 1 20 36
M  V30 40 1 21 37
M  V30 41 1 22 38
M  V30 42 1 25 39
M  V30 END BOND
M  V30 END CTAB
M  END
>  <Dataset>  (733) 
ChEMBL_Kinases

>  <Ligand_Instance>  (733) 
nan

>  <PDB_ID>  (733) 
nan

>  <Standardized_SMILES>  (733) 
Nc1cc2c(Nc3cccc(Cl)c3)nc3cc(C(=O)O)ccc3c2cn1

>  <Name>  (733) 
nan

>  <Pocket>  (733) 
nan

>  <ATP_Site>  (733) 
nan

>  <Peripheral>  (733) 
nan

>  <Num_H_Atoms_ProtBoundConf>  (733) 
nan

>  <Num_Resolved_Atoms>  (733) 
nan

>  <Num_Not_Resolved_Atoms>  (733) 
nan

$$$$
CHEMBL522996
     RDKit          3D

  0  0  0  0  0  0  0  0  0  0999 V3000
M  V30 BEGIN CTAB
M  V30 COUNTS 33 36 0 0 0
M  V30 BEGIN ATOM
M  V30 1 C 1.644921 -2.400378 2.363445 0
M  V30 2 C 0.723213 -2.436974 1.180614 0 CFG=1
M  V30 3 O -0.414209 -3.131794 1.488849 0
M  V30 4 C -1.473256 -2.380668 1.932281 0 CFG=2
M  V30 5 C -2.726914 -3.213896 1.960543 0
M  V30 6 C -3.499645 -2.693154 0.807899 0
M  V30 7 O -4.650565 -3.175897 0.675459 0
M  V30 8 O -2.728490 -1.758679 0.127276 0
M  V30 9 C -1.859902 -1.214595 1.093240 0 CFG=2
M  V30 10 C -0.696831 -0.497155 0.507876 0
M  V30 11 C 0.470178 -1.123262 0.583756 0
M  V30 12 C 1.631904 -0.471801 0.030889 0
M  V30 13 O 2.792659 -0.966066 0.043024 0
M  V30 14 C 1.579517 0.856886 -0.613696 0
M  V30 15 C 2.685822 1.485474 -1.144437 0
M  V30 16 C 2.539792 2.720301 -1.724305 0
M  V30 17 C 1.315147 3.351969 -1.791481 0
M  V30 18 C 0.209016 2.693056 -1.245808 0
M  V30 19 C 0.320787 1.466957 -0.663407 0
M  V30 20 C -0.859596 0.796909 -0.097649 0
M  V30 21 O -1.963052 1.390158 -0.170110 0
M  V30 22 H 2.184680 -3.345049 2.524658 0
M  V30 23 H 2.331078 -1.513616 2.317506 0
M  V30 24 H 1.024371 -2.221622 3.266981 0
M  V30 25 H 1.243928 -3.040009 0.379330 0
M  V30 26 H -1.220154 -2.071105 2.980789 0
M  V30 27 H -2.478003 -4.290395 1.782003 0
M  V30 28 H -3.305577 -3.069226 2.901378 0
M  V30 29 H -2.388201 -0.475656 1.733625 0
M  V30 30 H 3.628563 0.971123 -1.078889 0
M  V30 31 H 3.414794 3.207500 -2.139225 0
M  V30 32 H 1.191450 4.338539 -2.253349 0
M  V30 33 H -0.726446 3.230053 -1.323959 0
M  V30 END ATOM
M  V30 BEGIN BOND
M  V30 1 1 1 2
M  V30 2 1 2 3
M  V30 3 1 3 4
M  V30 4 1 4 5
M  V30 5 1 5 6
M  V30 6 2 6 7
M  V30 7 1 6 8
M  V30 8 1 8 9
M  V30 9 1 9 10
M  V30 10 2 10 11
M  V30 11 1 11 12
M  V30 12 2 12 13
M  V30 13 1 12 14
M  V30 14 2 14 15
M  V30 15 1 15 16
M  V30 16 2 16 17
M  V30 17 1 17 18
M  V30 18 2 18 19
M  V30 19 1 19 20
M  V30 20 2 20 21
M  V30 21 1 11 2
M  V30 22 1 19 14
M  V30 23 1 9 4
M  V30 24 1 20 10
M  V30 25 1 1 22
M  V30 26 1 1 23
M  V30 27 1 1 24
M  V30 28 1 2 25 CFG=3
M  V30 29 1 4 26 CFG=1
M  V30 30 1 5 27
M  V30 31 1 5 28
M  V30 32 1 9 29 CFG=1
M  V30 33 1 15 30
M  V30 34 1 16 31
M  V30 35 1 17 32
M  V30 36 1 18 33
M  V30 END BOND
M  V30 END CTAB
M  END
>  <Dataset>  (734) 
ChEMBL_Kinases

>  <Ligand_Instance>  (734) 
nan

>  <PDB_ID>  (734) 
nan

>  <Standardized_SMILES>  (734) 
C[C@H]1O[C@@H]2CC(=O)O[C@@H]2C2=C1C(=O)c1ccccc1C2=O

>  <Name>  (734) 
nan

>  <Pocket>  (734) 
nan

>  <ATP_Site>  (734) 
nan

>  <Peripheral>  (734) 
nan

>  <Num_H_Atoms_ProtBoundConf>  (734) 
nan

>  <Num_Resolved_Atoms>  (734) 
nan

>  <Num_Not_Resolved_Atoms>  (734) 
nan

$$$$
CHEMBL370405
     RDKit          3D

  0  0  0  0  0  0  0  0  0  0999 V3000
M  V30 BEGIN CTAB
M  V30 COUNTS 48 51 0 0 0
M  V30 BEGIN ATOM
M  V30 1 C 3.409360 -5.877036 2.297964 0
M  V30 2 C 2.023625 -5.934052 1.692281 0
M  V30 3 C 1.605504 -4.460447 1.495199 0
M  V30 4 N 1.645033 -3.622239 0.744985 0
M  V30 5 C 1.178336 -2.393255 0.849060 0
M  V30 6 C 1.317312 -1.408235 -0.245791 0
M  V30 7 C 0.806375 -1.511295 -1.522606 0
M  V30 8 C 1.057333 -0.458490 -2.403224 0
M  V30 9 C 1.780228 0.640815 -2.031394 0
M  V30 10 C 2.285689 0.731661 -0.751851 0
M  V30 11 C 3.064606 1.940930 -0.386449 0
M  V30 12 C 2.051717 -0.296076 0.138791 0
M  V30 13 C 0.549611 -2.086622 2.050464 0
M  V30 14 C -0.051265 -0.744553 2.374195 0
M  V30 15 C 0.434486 -0.001384 3.426825 0
M  V30 16 C -0.196823 1.208140 3.626746 0
M  V30 17 N -1.212006 1.644647 2.860963 0
M  V30 18 C -1.691300 0.922584 1.830495 0
M  V30 19 N -2.777559 1.387903 1.009448 0
M  V30 20 C -3.324602 0.642930 -0.107781 0
M  V30 21 C -3.895838 1.742807 -0.974996 0
M  V30 22 C -4.291927 2.822410 -0.009493 0
M  V30 23 C -3.433991 2.661229 1.226137 0
M  V30 24 C -1.092170 -0.282635 1.599314 0
M  V30 25 S 0.694778 -3.665162 2.959199 0
M  V30 26 H 3.860389 -6.880433 2.121919 0
M  V30 27 H 4.074465 -5.161997 1.773453 0
M  V30 28 H 3.363255 -5.748588 3.381852 0
M  V30 29 H 1.378688 -6.399957 2.469416 0
M  V30 30 H 1.969682 -6.438950 0.726532 0
M  V30 31 H 0.251115 -2.413697 -1.721501 0
M  V30 32 H 0.634129 -0.584098 -3.400057 0
M  V30 33 H 1.955583 1.441499 -2.743390 0
M  V30 34 H 2.414243 2.805344 -0.635510 0
M  V30 35 H 3.273561 1.995340 0.695437 0
M  V30 36 H 4.032711 2.012379 -0.907980 0
M  V30 37 H 2.485920 -0.139762 1.119364 0
M  V30 38 H 1.245169 -0.395067 4.005616 0
M  V30 39 H 0.164467 1.821679 4.453479 0
M  V30 40 H -4.128755 -0.052704 0.220790 0
M  V30 41 H -2.580029 0.081031 -0.677138 0
M  V30 42 H -4.781976 1.367188 -1.560285 0
M  V30 43 H -3.110743 2.145162 -1.633459 0
M  V30 44 H -4.094281 3.843736 -0.409973 0
M  V30 45 H -5.374343 2.703618 0.208066 0
M  V30 46 H -4.088548 2.656306 2.122894 0
M  V30 47 H -2.719458 3.485608 1.340347 0
M  V30 48 H -1.417729 -0.915424 0.796372 0
M  V30 END ATOM
M  V30 BEGIN BOND
M  V30 1 1 1 2
M  V30 2 1 2 3
M  V30 3 2 3 4
M  V30 4 1 4 5
M  V30 5 1 5 6
M  V30 6 2 6 7
M  V30 7 1 7 8
M  V30 8 2 8 9
M  V30 9 1 9 10
M  V30 10 1 10 11
M  V30 11 2 10 12
M  V30 12 2 5 13
M  V30 13 1 13 14
M  V30 14 2 14 15
M  V30 15 1 15 16
M  V30 16 2 16 17
M  V30 17 1 17 18
M  V30 18 1 18 19
M  V30 19 1 19 20
M  V30 20 1 20 21
M  V30 21 1 21 22
M  V30 22 1 22 23
M  V30 23 2 18 24
M  V30 24 1 13 25
M  V30 25 1 25 3
M  V30 26 1 12 6
M  V30 27 1 24 14
M  V30 28 1 23 19
M  V30 29 1 1 26
M  V30 30 1 1 27
M  V30 31 1 1 28
M  V30 32 1 2 29
M  V30 33 1 2 30
M  V30 34 1 7 31
M  V30 35 1 8 32
M  V30 36 1 9 33
M  V30 37 1 11 34
M  V30 38 1 11 35
M  V30 39 1 11 36
M  V30 40 1 12 37
M  V30 41 1 15 38
M  V30 42 1 16 39
M  V30 43 1 20 40
M  V30 44 1 20 41
M  V30 45 1 21 42
M  V30 46 1 21 43
M  V30 47 1 22 44
M  V30 48 1 22 45
M  V30 49 1 23 46
M  V30 50 1 23 47
M  V30 51 1 24 48
M  V30 END BOND
M  V30 END CTAB
M  END
>  <Dataset>  (735) 
ChEMBL_Kinases

>  <Ligand_Instance>  (735) 
nan

>  <PDB_ID>  (735) 
nan

>  <Standardized_SMILES>  (735) 
CCc1nc(-c2cccc(C)c2)c(-c2ccnc(N3CCCC3)c2)s1

>  <Name>  (735) 
nan

>  <Pocket>  (735) 
nan

>  <ATP_Site>  (735) 
nan

>  <Peripheral>  (735) 
nan

>  <Num_H_Atoms_ProtBoundConf>  (735) 
nan

>  <Num_Resolved_Atoms>  (735) 
nan

>  <Num_Not_Resolved_Atoms>  (735) 
nan

$$$$
CHEMBL3731132
     RDKit          3D

  0  0  0  0  0  0  0  0  0  0999 V3000
M  V30 BEGIN CTAB
M  V30 COUNTS 53 57 0 0 0
M  V30 BEGIN ATOM
M  V30 1 N -0.774939 -2.280514 2.768050 0
M  V30 2 C 0.486767 -2.837315 2.963734 0 CFG=2
M  V30 3 C 1.650043 -2.537373 2.056009 0
M  V30 4 N 2.060108 -1.159336 1.888621 0
M  V30 5 C 1.141827 -0.702483 1.097109 0
M  V30 6 N 1.861396 0.543070 1.470590 0
M  V30 7 C 1.350128 1.714733 0.889291 0
M  V30 8 C 1.947585 3.063910 0.988522 0
M  V30 9 C 1.620803 4.270484 0.578057 0
M  V30 10 C 2.025591 5.511333 0.530945 0
M  V30 11 N 3.258124 5.566027 1.149429 0
M  V30 12 C 3.815683 4.450752 1.660941 0
M  V30 13 C 3.243917 3.163889 1.632648 0
M  V30 14 F 3.882159 2.110211 2.184666 0
M  V30 15 N 0.300028 1.819258 0.051361 0
M  V30 16 C -0.385049 0.734409 -0.320430 0
M  V30 17 C -1.357494 0.308615 -1.124593 0
M  V30 18 C -2.115889 1.446392 -1.710321 0
M  V30 19 C -3.161547 1.224521 -2.543273 0
M  V30 20 C -3.743823 2.403349 -2.924683 0
M  V30 21 C -3.012663 3.450294 -2.291336 0
M  V30 22 N -2.076058 2.767206 -1.600367 0
M  V30 23 C -1.717709 -1.016440 -1.328752 0
M  V30 24 S -0.443854 -1.780693 -0.158757 0
M  V30 25 C 0.238504 -0.245778 0.316314 0
M  V30 26 C 0.350490 -4.397710 3.004793 0
M  V30 27 C -0.218097 -4.970710 1.815276 0
M  V30 28 C -0.006666 -5.412614 0.576205 0
M  V30 29 C -0.354450 -5.962919 -0.575730 0
M  V30 30 C -1.735749 -6.224188 -0.323502 0
M  V30 31 C -2.429040 -5.929607 0.873159 0
M  V30 32 C -1.601814 -5.311019 1.872320 0
M  V30 33 H -0.866574 -1.284902 2.907403 0
M  V30 34 H -1.536494 -2.823722 2.367185 0
M  V30 35 H 0.756633 -2.633842 4.048181 0
M  V30 36 H 2.500635 -3.117649 2.567766 0
M  V30 37 H 1.596175 -3.099652 1.088949 0
M  V30 38 H 2.958008 -1.301511 2.523063 0
M  V30 39 H 0.605484 4.162216 0.087003 0
M  V30 40 H 1.470374 6.311229 0.090720 0
M  V30 41 H 4.803599 4.615254 2.144589 0
M  V30 42 H -3.576941 0.288894 -2.927187 0
M  V30 43 H -4.570147 2.703932 -3.543262 0
M  V30 44 H -3.158412 4.509551 -2.333247 0
M  V30 45 H -1.357294 3.272568 -1.009018 0
M  V30 46 H -2.499459 -1.464541 -1.974776 0
M  V30 47 H -0.235313 -4.712969 3.891024 0
M  V30 48 H 1.390940 -4.786450 3.182571 0
M  V30 49 H 1.129109 -5.196316 0.453233 0
M  V30 50 H 0.187317 -6.172839 -1.449261 0
M  V30 51 H -2.295632 -6.696889 -1.156525 0
M  V30 52 H -3.489652 -6.190840 0.923628 0
M  V30 53 H -2.324603 -5.175259 2.719266 0
M  V30 END ATOM
M  V30 BEGIN BOND
M  V30 1 1 1 2
M  V30 2 1 2 3
M  V30 3 1 3 4
M  V30 4 1 4 5
M  V30 5 2 5 6
M  V30 6 1 6 7
M  V30 7 1 7 8
M  V30 8 2 8 9
M  V30 9 1 9 10
M  V30 10 2 10 11
M  V30 11 1 11 12
M  V30 12 2 12 13
M  V30 13 1 13 14
M  V30 14 2 7 15
M  V30 15 1 15 16
M  V30 16 1 16 17
M  V30 17 1 17 18
M  V30 18 2 18 19
M  V30 19 1 19 20
M  V30 20 2 20 21
M  V30 21 1 21 22
M  V30 22 2 17 23
M  V30 23 1 23 24
M  V30 24 1 24 25
M  V30 25 1 2 26
M  V30 26 1 26 27
M  V30 27 2 27 28
M  V30 28 1 28 29
M  V30 29 2 29 30
M  V30 30 1 30 31
M  V30 31 2 31 32
M  V30 32 1 25 5
M  V30 33 1 32 27
M  V30 34 1 13 8
M  V30 35 2 25 16
M  V30 36 1 22 18
M  V30 37 1 1 33
M  V30 38 1 1 34
M  V30 39 1 2 35 CFG=1
M  V30 40 1 3 36
M  V30 41 1 3 37
M  V30 42 1 4 38
M  V30 43 1 9 39
M  V30 44 1 10 40
M  V30 45 1 12 41
M  V30 46 1 19 42
M  V30 47 1 20 43
M  V30 48 1 21 44
M  V30 49 1 22 45
M  V30 50 1 23 46
M  V30 51 1 26 47
M  V30 52 1 26 48
M  V30 53 1 28 49
M  V30 54 1 29 50
M  V30 55 1 30 51
M  V30 56 1 31 52
M  V30 57 1 32 53
M  V30 END BOND
M  V30 END CTAB
M  END
>  <Dataset>  (736) 
ChEMBL_Kinases

>  <Ligand_Instance>  (736) 
nan

>  <PDB_ID>  (736) 
nan

>  <Standardized_SMILES>  (736) 
N[C@H](CNc1nc(-c2ccncc2F)nc2c(-c3ccc[nH]3)csc12)Cc1ccccc1

>  <Name>  (736) 
nan

>  <Pocket>  (736) 
nan

>  <ATP_Site>  (736) 
nan

>  <Peripheral>  (736) 
nan

>  <Num_H_Atoms_ProtBoundConf>  (736) 
nan

>  <Num_Resolved_Atoms>  (736) 
nan

>  <Num_Not_Resolved_Atoms>  (736) 
nan

$$$$
CHEMBL370406
     RDKit          3D

  0  0  0  0  0  0  0  0  0  0999 V3000
M  V30 BEGIN CTAB
M  V30 COUNTS 50 54 0 0 0
M  V30 BEGIN ATOM
M  V30 1 C 3.904933 -5.959201 -1.083532 0
M  V30 2 O 5.196265 -5.374419 -1.178398 0
M  V30 3 C 5.294360 -4.000226 -0.988844 0
M  V30 4 C 4.216010 -3.199419 -0.717704 0
M  V30 5 C 4.314161 -1.826593 -0.528234 0
M  V30 6 C 3.038208 -1.177270 -0.249096 0
M  V30 7 C 1.860093 -1.649074 -0.780084 0
M  V30 8 C 0.620369 -1.081274 -0.555726 0
M  V30 9 C 0.660959 0.030857 0.268370 0
M  V30 10 C 1.800605 0.564789 0.838540 0
M  V30 11 C 3.011239 -0.064394 0.564902 0
M  V30 12 N 1.482627 1.705197 1.626335 0
M  V30 13 C 0.080430 1.959768 1.594255 0
M  V30 14 O -0.568205 2.849621 2.149161 0
M  V30 15 C -0.440034 0.886942 0.724515 0
M  V30 16 C -1.732112 0.768928 0.474892 0
M  V30 17 C -2.845530 1.601703 0.907312 0
M  V30 18 C -3.171575 2.932517 0.944886 0
M  V30 19 N -4.370556 3.117094 1.508684 0
M  V30 20 C -4.888859 1.931698 1.866416 0
M  V30 21 C -6.087820 1.639912 2.474854 0
M  V30 22 C -7.072109 2.681344 2.856665 0
M  V30 23 C -6.400248 0.320243 2.746979 0
M  V30 24 C -5.497564 -0.665468 2.399066 0
M  V30 25 C -4.316497 -0.308672 1.793220 0
M  V30 26 C -3.957968 0.990552 1.500501 0
M  V30 27 C 5.560344 -1.252915 -0.619436 0
M  V30 28 C 6.683377 -2.007827 -0.890284 0
M  V30 29 C 6.543006 -3.371562 -1.072563 0
M  V30 30 O 7.662941 -4.155003 -1.347312 0
M  V30 31 H 3.959864 -7.056855 -1.247171 0
M  V30 32 H 3.426319 -5.814664 -0.096737 0
M  V30 33 H 3.255817 -5.465570 -1.843206 0
M  V30 34 H 3.288882 -3.740284 -0.666840 0
M  V30 35 H 1.848008 -2.525365 -1.428313 0
M  V30 36 H -0.304239 -1.454108 -0.973396 0
M  V30 37 H 3.891980 0.367135 1.018809 0
M  V30 38 H 2.160603 2.290630 2.162302 0
M  V30 39 H -1.995192 -0.093862 -0.161905 0
M  V30 40 H -2.509638 3.674715 0.541886 0
M  V30 41 H -4.764381 4.083397 1.612397 0
M  V30 42 H -7.041145 2.965106 3.920162 0
M  V30 43 H -6.913961 3.580973 2.203444 0
M  V30 44 H -8.073677 2.294438 2.523272 0
M  V30 45 H -7.313497 -0.009947 3.219983 0
M  V30 46 H -5.725158 -1.720798 2.606546 0
M  V30 47 H -3.629537 -1.113109 1.534434 0
M  V30 48 H 5.560522 -0.167460 -0.457427 0
M  V30 49 H 7.637932 -1.493237 -0.949004 0
M  V30 50 H 7.561169 -5.130418 -1.578312 0
M  V30 END ATOM
M  V30 BEGIN BOND
M  V30 1 1 1 2
M  V30 2 1 2 3
M  V30 3 2 3 4
M  V30 4 1 4 5
M  V30 5 1 5 6
M  V30 6 2 6 7
M  V30 7 1 7 8
M  V30 8 2 8 9
M  V30 9 1 9 10
M  V30 10 2 10 11
M  V30 11 1 10 12
M  V30 12 1 12 13
M  V30 13 2 13 14
M  V30 14 1 13 15
M  V30 15 2 15 16
M  V30 16 1 16 17
M  V30 17 2 17 18
M  V30 18 1 18 19
M  V30 19 1 19 20
M  V30 20 2 20 21
M  V30 21 1 21 22
M  V30 22 1 21 23
M  V30 23 2 23 24
M  V30 24 1 24 25
M  V30 25 2 25 26
M  V30 26 2 5 27
M  V30 27 1 27 28
M  V30 28 2 28 29
M  V30 29 1 29 30
M  V30 30 1 29 3
M  V30 31 1 11 6
M  V30 32 1 26 17
M  V30 33 1 15 9
M  V30 34 1 26 20
M  V30 35 1 1 31
M  V30 36 1 1 32
M  V30 37 1 1 33
M  V30 38 1 4 34
M  V30 39 1 7 35
M  V30 40 1 8 36
M  V30 41 1 11 37
M  V30 42 1 12 38
M  V30 43 1 16 39
M  V30 44 1 18 40
M  V30 45 1 19 41
M  V30 46 1 22 42
M  V30 47 1 22 43
M  V30 48 1 22 44
M  V30 49 1 23 45
M  V30 50 1 24 46
M  V30 51 1 25 47
M  V30 52 1 27 48
M  V30 53 1 28 49
M  V30 54 1 30 50
M  V30 END BOND
M  V30 END CTAB
M  END
>  <Dataset>  (737) 
ChEMBL_Kinases

>  <Ligand_Instance>  (737) 
nan

>  <PDB_ID>  (737) 
nan

>  <Standardized_SMILES>  (737) 
COc1cc(-c2ccc3c(c2)NC(=O)/C3=C\c2c[nH]c3c(C)cccc23)ccc1O

>  <Name>  (737) 
nan

>  <Pocket>  (737) 
nan

>  <ATP_Site>  (737) 
nan

>  <Peripheral>  (737) 
nan

>  <Num_H_Atoms_ProtBoundConf>  (737) 
nan

>  <Num_Resolved_Atoms>  (737) 
nan

>  <Num_Not_Resolved_Atoms>  (737) 
nan

$$$$
CHEMBL523086
     RDKit          3D

  0  0  0  0  0  0  0  0  0  0999 V3000
M  V30 BEGIN CTAB
M  V30 COUNTS 60 64 0 0 0
M  V30 BEGIN ATOM
M  V30 1 N 4.375582 -1.635541 4.289992 0
M  V30 2 C 4.410686 -0.971857 3.020921 0
M  V30 3 N 5.555246 -1.010004 2.285305 0
M  V30 4 C 5.565475 -0.381503 1.101017 0
M  V30 5 C 4.495381 0.304784 0.572989 0
M  V30 6 C 3.336683 0.330494 1.342416 0
M  V30 7 C 2.048401 0.963007 1.083311 0
M  V30 8 C 1.838119 2.341687 1.035796 0
M  V30 9 C 2.776550 3.441825 1.211437 0
M  V30 10 C 2.567957 4.213039 2.346558 0
M  V30 11 C 3.385119 5.285425 2.626029 0
M  V30 12 C 4.413570 5.600375 1.783340 0
M  V30 13 F 5.237265 6.655967 2.035414 0
M  V30 14 C 4.648070 4.854337 0.646720 0
M  V30 15 C 3.821774 3.784804 0.381292 0
M  V30 16 N 0.516123 2.485400 0.774447 0
M  V30 17 C -0.053500 1.265708 0.667853 0
M  V30 18 C -1.373730 0.959847 0.407010 0
M  V30 19 C -1.770296 -0.366189 0.332418 0
M  V30 20 C -3.131010 -0.874351 0.069293 0
M  V30 21 C -3.195043 -1.394954 -1.351461 0
M  V30 22 C -4.424921 -2.261633 -1.503110 0
M  V30 23 N -4.454202 -3.373275 -0.627800 0
M  V30 24 C -4.505792 -4.662802 -1.196628 0
M  V30 25 C -3.260732 -5.089080 -1.939308 0
M  V30 26 C -3.512319 -6.487947 -2.474484 0
M  V30 27 O -2.420767 -6.992615 -3.188599 0
M  V30 28 C -3.827151 -3.240818 0.635083 0
M  V30 29 C -3.645999 -1.824931 1.087977 0
M  V30 30 C -0.772726 -1.315328 0.532887 0
M  V30 31 C 0.539595 -0.976973 0.792074 0
M  V30 32 N 0.873676 0.335202 0.854731 0
M  V30 33 N 3.373315 -0.316481 2.526673 0
M  V30 34 H 3.888823 -2.496123 4.619101 0
M  V30 35 H 4.865493 -1.355567 5.178140 0
M  V30 36 H 6.446108 -0.378232 0.471564 0
M  V30 37 H 4.389756 0.833945 -0.348577 0
M  V30 38 H 1.761381 4.006359 3.052666 0
M  V30 39 H 3.203952 5.872060 3.515603 0
M  V30 40 H 5.445434 5.048998 -0.063177 0
M  V30 41 H 3.960552 3.176135 -0.487319 0
M  V30 42 H -2.160942 1.691427 0.248664 0
M  V30 43 H -3.815390 0.025788 0.066887 0
M  V30 44 H -3.316447 -0.539576 -2.052875 0
M  V30 45 H -2.305202 -1.944445 -1.657720 0
M  V30 46 H -4.466318 -2.582406 -2.563288 0
M  V30 47 H -5.355376 -1.658698 -1.331944 0
M  V30 48 H -4.664088 -5.406464 -0.375828 0
M  V30 49 H -5.407943 -4.752006 -1.833246 0
M  V30 50 H -2.971739 -4.374562 -2.732965 0
M  V30 51 H -2.405576 -5.166252 -1.237779 0
M  V30 52 H -4.422531 -6.516082 -3.108592 0
M  V30 53 H -3.601515 -7.146239 -1.575169 0
M  V30 54 H -1.979966 -6.295018 -3.734197 0
M  V30 55 H -4.517068 -3.734458 1.379618 0
M  V30 56 H -2.894130 -3.838766 0.714875 0
M  V30 57 H -4.595432 -1.497528 1.588367 0
M  V30 58 H -2.894733 -1.845427 1.925966 0
M  V30 59 H -0.967233 -2.376533 0.497694 0
M  V30 60 H 1.306404 -1.740913 0.946809 0
M  V30 END ATOM
M  V30 BEGIN BOND
M  V30 1 1 1 2
M  V30 2 2 2 3
M  V30 3 1 3 4
M  V30 4 2 4 5
M  V30 5 1 5 6
M  V30 6 1 6 7
M  V30 7 2 7 8
M  V30 8 1 8 9
M  V30 9 2 9 10
M  V30 10 1 10 11
M  V30 11 2 11 12
M  V30 12 1 12 13
M  V30 13 1 12 14
M  V30 14 2 14 15
M  V30 15 1 8 16
M  V30 16 2 16 17
M  V30 17 1 17 18
M  V30 18 2 18 19
M  V30 19 1 19 20
M  V30 20 1 20 21
M  V30 21 1 21 22
M  V30 22 1 22 23
M  V30 23 1 23 24
M  V30 24 1 24 25
M  V30 25 1 25 26
M  V30 26 1 26 27
M  V30 27 1 23 28
M  V30 28 1 28 29
M  V30 29 1 19 30
M  V30 30 2 30 31
M  V30 31 1 31 32
M  V30 32 2 6 33
M  V30 33 1 33 2
M  V30 34 1 32 7
M  V30 35 1 15 9
M  V30 36 1 32 17
M  V30 37 1 29 20
M  V30 38 1 1 34
M  V30 39 1 1 35
M  V30 40 1 4 36
M  V30 41 1 5 37
M  V30 42 1 10 38
M  V30 43 1 11 39
M  V30 44 1 14 40
M  V30 45 1 15 41
M  V30 46 1 18 42
M  V30 47 1 20 43
M  V30 48 1 21 44
M  V30 49 1 21 45
M  V30 50 1 22 46
M  V30 51 1 22 47
M  V30 52 1 24 48
M  V30 53 1 24 49
M  V30 54 1 25 50
M  V30 55 1 25 51
M  V30 56 1 26 52
M  V30 57 1 26 53
M  V30 58 1 27 54
M  V30 59 1 28 55
M  V30 60 1 28 56
M  V30 61 1 29 57
M  V30 62 1 29 58
M  V30 63 1 30 59
M  V30 64 1 31 60
M  V30 END BOND
M  V30 END CTAB
M  END
>  <Dataset>  (738) 
ChEMBL_Kinases

>  <Ligand_Instance>  (738) 
nan

>  <PDB_ID>  (738) 
nan

>  <Standardized_SMILES>  (738) 
Nc1nccc(-c2c(-c3ccc(F)cc3)nc3cc(C4CCN(CCCO)CC4)ccn23)n1

>  <Name>  (738) 
nan

>  <Pocket>  (738) 
nan

>  <ATP_Site>  (738) 
nan

>  <Peripheral>  (738) 
nan

>  <Num_H_Atoms_ProtBoundConf>  (738) 
nan

>  <Num_Resolved_Atoms>  (738) 
nan

>  <Num_Not_Resolved_Atoms>  (738) 
nan

$$$$
CHEMBL523113
     RDKit          3D

  0  0  0  0  0  0  0  0  0  0999 V3000
M  V30 BEGIN CTAB
M  V30 COUNTS 40 44 0 0 0
M  V30 BEGIN ATOM
M  V30 1 C 1.870069 -2.986258 3.060872 0
M  V30 2 N 0.756405 -2.481774 2.260500 0
M  V30 3 C 0.449730 -1.186572 2.006231 0
M  V30 4 C -0.696003 -1.217900 1.206290 0
M  V30 5 C -1.325939 0.015251 0.710148 0
M  V30 6 C -0.816113 1.080944 0.084632 0
M  V30 7 C 0.609672 1.107096 -0.198853 0
M  V30 8 C 1.314705 -0.022272 -0.656118 0
M  V30 9 O 2.584722 0.272603 -0.832259 0
M  V30 10 C 2.802248 1.529429 -0.527209 0
M  V30 11 C 3.957858 2.303360 -0.547610 0
M  V30 12 C 3.871732 3.645145 -0.156096 0
M  V30 13 C 2.643366 4.137412 0.231815 0
M  V30 14 F 2.612694 5.422865 0.598585 0
M  V30 15 C 1.479694 3.380006 0.257970 0
M  V30 16 C 1.599034 2.064613 -0.132735 0
M  V30 17 C -1.889894 2.025492 -0.176641 0
M  V30 18 O -1.751586 3.126679 -0.749917 0
M  V30 19 N -3.127883 1.491088 0.327574 0
M  V30 20 C -2.769222 0.211973 0.892364 0
M  V30 21 O -3.674480 -0.504207 1.423856 0
M  V30 22 C -1.078783 -2.523016 0.976448 0
M  V30 23 C -2.133356 -3.023905 0.241013 0
M  V30 24 C -2.221623 -4.417542 0.208415 0
M  V30 25 Cl -3.539451 -5.093297 -0.709215 0
M  V30 26 C -1.321403 -5.213078 0.863615 0
M  V30 27 C -0.271530 -4.678275 1.594724 0
M  V30 28 C -0.146772 -3.293033 1.652050 0
M  V30 29 H 2.669134 -2.220242 3.170075 0
M  V30 30 H 2.198012 -3.939585 2.632211 0
M  V30 31 H 1.508805 -3.190130 4.100399 0
M  V30 32 H 0.985017 -0.313747 2.357698 0
M  V30 33 H 0.888589 -1.009850 -0.844983 0
M  V30 34 H 4.874822 1.800431 -0.873216 0
M  V30 35 H 4.775492 4.225705 -0.179154 0
M  V30 36 H 0.530736 3.782420 0.563882 0
M  V30 37 H -4.077397 1.911901 0.298341 0
M  V30 38 H -2.850216 -2.431878 -0.284143 0
M  V30 39 H -1.499151 -6.294015 0.761107 0
M  V30 40 H 0.411746 -5.342282 2.093160 0
M  V30 END ATOM
M  V30 BEGIN BOND
M  V30 1 1 1 2
M  V30 2 1 2 3
M  V30 3 2 3 4
M  V30 4 1 4 5
M  V30 5 2 5 6
M  V30 6 1 6 7
M  V30 7 2 7 8
M  V30 8 1 8 9
M  V30 9 1 9 10
M  V30 10 2 10 11
M  V30 11 1 11 12
M  V30 12 2 12 13
M  V30 13 1 13 14
M  V30 14 1 13 15
M  V30 15 2 15 16
M  V30 16 1 6 17
M  V30 17 2 17 18
M  V30 18 1 17 19
M  V30 19 1 19 20
M  V30 20 2 20 21
M  V30 21 1 4 22
M  V30 22 2 22 23
M  V30 23 1 23 24
M  V30 24 1 24 25
M  V30 25 2 24 26
M  V30 26 1 26 27
M  V30 27 2 27 28
M  V30 28 1 28 2
M  V30 29 1 20 5
M  V30 30 1 28 22
M  V30 31 1 16 7
M  V30 32 1 16 10
M  V30 33 1 1 29
M  V30 34 1 1 30
M  V30 35 1 1 31
M  V30 36 1 3 32
M  V30 37 1 8 33
M  V30 38 1 11 34
M  V30 39 1 12 35
M  V30 40 1 15 36
M  V30 41 1 19 37
M  V30 42 1 23 38
M  V30 43 1 26 39
M  V30 44 1 27 40
M  V30 END BOND
M  V30 END CTAB
M  END
>  <Dataset>  (739) 
ChEMBL_Kinases

>  <Ligand_Instance>  (739) 
nan

>  <PDB_ID>  (739) 
nan

>  <Standardized_SMILES>  (739) 
Cn1cc(C2=C(c3coc4ccc(F)cc34)C(=O)NC2=O)c2cc(Cl)ccc21

>  <Name>  (739) 
nan

>  <Pocket>  (739) 
nan

>  <ATP_Site>  (739) 
nan

>  <Peripheral>  (739) 
nan

>  <Num_H_Atoms_ProtBoundConf>  (739) 
nan

>  <Num_Resolved_Atoms>  (739) 
nan

>  <Num_Not_Resolved_Atoms>  (739) 
nan

$$$$
CHEMBL523179
     RDKit          3D

  0  0  0  0  0  0  0  0  0  0999 V3000
M  V30 BEGIN CTAB
M  V30 COUNTS 49 55 0 0 0
M  V30 BEGIN ATOM
M  V30 1 O 4.824011 0.346812 3.099819 0
M  V30 2 C 3.719643 0.098786 2.577788 0
M  V30 3 N 2.900264 -0.892322 3.190666 0
M  V30 4 C 1.708007 -0.988759 2.414767 0
M  V30 5 O 0.851670 -1.811691 2.791477 0
M  V30 6 C 1.801422 -0.060866 1.335014 0
M  V30 7 C 3.006882 0.589720 1.434089 0
M  V30 8 C 3.303457 1.528875 0.492960 0
M  V30 9 C 4.391249 2.335748 0.309989 0
M  V30 10 C 5.591154 2.588077 0.898451 0
M  V30 11 N 6.507368 3.476660 0.485372 0
M  V30 12 C 6.297039 4.243998 -0.623515 0
M  V30 13 C 5.104473 4.049943 -1.278681 0
M  V30 14 C 4.185853 3.113001 -0.807481 0
M  V30 15 N 2.991488 2.826620 -1.349565 0
M  V30 16 C 2.468767 1.864335 -0.549625 0
M  V30 17 C 1.257239 1.208220 -0.646409 0
M  V30 18 N 0.266196 1.350380 -1.566895 0
M  V30 19 C -0.670155 0.469436 -1.178403 0
M  V30 20 C -1.887893 0.254207 -1.826246 0
M  V30 21 C -2.767230 -0.682612 -1.325688 0
M  V30 22 C -2.408784 -1.391159 -0.178392 0
M  V30 23 O -3.284058 -2.339024 0.338913 0
M  V30 24 C -3.002473 -3.097863 1.490824 0
M  V30 25 C -4.100433 -4.046535 1.841893 0
M  V30 26 C -4.090956 -5.326070 1.320656 0
M  V30 27 C -5.116646 -6.182710 1.660515 0
M  V30 28 C -6.166635 -5.815930 2.508921 0
M  V30 29 C -6.085992 -4.513267 2.979317 0
M  V30 30 C -5.082562 -3.596838 2.678377 0
M  V30 31 C -1.190314 -1.105846 0.383145 0
M  V30 32 C -0.269198 -0.201279 -0.046073 0
M  V30 33 C 0.966635 0.261099 0.309072 0
M  V30 34 H 3.140473 -1.449236 4.061231 0
M  V30 35 H 5.856281 2.047443 1.767550 0
M  V30 36 H 7.073554 4.939874 -0.902703 0
M  V30 37 H 4.918345 4.645461 -2.156476 0
M  V30 38 H 2.561037 3.250905 -2.198635 0
M  V30 39 H 0.253101 1.999594 -2.381285 0
M  V30 40 H -2.180980 0.793433 -2.714621 0
M  V30 41 H -3.713708 -0.864944 -1.810572 0
M  V30 42 H -2.071612 -3.687761 1.281685 0
M  V30 43 H -2.797962 -2.499673 2.394446 0
M  V30 44 H -3.299614 -5.672460 0.653090 0
M  V30 45 H -5.164674 -7.201577 1.282560 0
M  V30 46 H -6.969261 -6.457695 2.786367 0
M  V30 47 H -6.901311 -4.203937 3.647972 0
M  V30 48 H -5.153028 -2.622022 3.117691 0
M  V30 49 H -0.977226 -1.678006 1.252250 0
M  V30 END ATOM
M  V30 BEGIN BOND
M  V30 1 2 1 2
M  V30 2 1 2 3
M  V30 3 1 3 4
M  V30 4 2 4 5
M  V30 5 1 4 6
M  V30 6 2 6 7
M  V30 7 1 7 8
M  V30 8 1 8 9
M  V30 9 2 9 10
M  V30 10 1 10 11
M  V30 11 2 11 12
M  V30 12 1 12 13
M  V30 13 2 13 14
M  V30 14 1 14 15
M  V30 15 1 15 16
M  V30 16 1 16 17
M  V30 17 1 17 18
M  V30 18 1 18 19
M  V30 19 2 19 20
M  V30 20 1 20 21
M  V30 21 2 21 22
M  V30 22 1 22 23
M  V30 23 1 23 24
M  V30 24 1 24 25
M  V30 25 2 25 26
M  V30 26 1 26 27
M  V30 27 2 27 28
M  V30 28 1 28 29
M  V30 29 2 29 30
M  V30 30 1 22 31
M  V30 31 2 31 32
M  V30 32 1 32 33
M  V30 33 1 7 2
M  V30 34 2 16 8
M  V30 35 2 33 17
M  V30 36 1 33 6
M  V30 37 1 14 9
M  V30 38 1 32 19
M  V30 39 1 30 25
M  V30 40 1 3 34
M  V30 41 1 10 35
M  V30 42 1 12 36
M  V30 43 1 13 37
M  V30 44 1 15 38
M  V30 45 1 18 39
M  V30 46 1 20 40
M  V30 47 1 21 41
M  V30 48 1 24 42
M  V30 49 1 24 43
M  V30 50 1 26 44
M  V30 51 1 27 45
M  V30 52 1 28 46
M  V30 53 1 29 47
M  V30 54 1 30 48
M  V30 55 1 31 49
M  V30 END BOND
M  V30 END CTAB
M  END
>  <Dataset>  (740) 
ChEMBL_Kinases

>  <Ligand_Instance>  (740) 
nan

>  <PDB_ID>  (740) 
nan

>  <Standardized_SMILES>  (740) 
O=C1NC(=O)c2c1c1c3cnccc3[nH]c1c1[nH]c3ccc(OCc4ccccc4)cc3c21

>  <Name>  (740) 
nan

>  <Pocket>  (740) 
nan

>  <ATP_Site>  (740) 
nan

>  <Peripheral>  (740) 
nan

>  <Num_H_Atoms_ProtBoundConf>  (740) 
nan

>  <Num_Resolved_Atoms>  (740) 
nan

>  <Num_Not_Resolved_Atoms>  (740) 
nan

$$$$
CHEMBL522877
     RDKit          3D

  0  0  0  0  0  0  0  0  0  0999 V3000
M  V30 BEGIN CTAB
M  V30 COUNTS 56 61 0 0 0
M  V30 BEGIN ATOM
M  V30 1 C 0.648613 -1.766629 3.716771 0
M  V30 2 C 1.601260 -0.901759 3.006210 0
M  V30 3 C 2.764492 -0.465658 3.609038 0
M  V30 4 C 3.645378 0.344592 2.926251 0
M  V30 5 C 3.363411 0.721851 1.633038 0
M  V30 6 C 4.097894 1.516030 0.783159 0
M  V30 7 N 5.331275 2.190277 0.879107 0
M  V30 8 C 6.363533 2.340808 1.843068 0
M  V30 9 C 7.099006 1.022634 2.200159 0
M  V30 10 C 7.806045 2.176429 1.564698 0
M  V30 11 N 3.343307 1.539562 -0.331974 0
M  V30 12 O 2.277202 0.834975 -0.161224 0
M  V30 13 C 2.201670 0.290305 1.022577 0
M  V30 14 C 1.309118 -0.521378 1.692348 0
M  V30 15 C 0.094502 -0.950646 1.000916 0
M  V30 16 C -1.106216 -0.267611 1.013049 0
M  V30 17 C -2.146260 -0.831108 0.298094 0
M  V30 18 C -2.009051 -2.013596 -0.396843 0
M  V30 19 C -3.111494 -2.484460 -1.076016 0
M  V30 20 N -4.391449 -1.860051 -1.123021 0
M  V30 21 C -5.366115 -1.524682 -0.119194 0
M  V30 22 C -5.891725 -0.140111 -0.329839 0
M  V30 23 O -5.777730 0.342047 -1.610412 0
M  V30 24 C -5.877500 -0.656028 -2.573108 0
M  V30 25 C -4.656476 -1.546866 -2.501483 0 CFG=2
M  V30 26 C -4.877240 -2.847258 -3.250521 0
M  V30 27 N -2.917880 -3.640604 -1.735890 0
M  V30 28 N -1.781864 -4.311709 -1.763173 0
M  V30 29 C -0.700450 -3.859816 -1.103136 0
M  V30 30 C -0.801589 -2.679523 -0.395993 0
M  V30 31 C 0.263114 -2.138428 0.313440 0
M  V30 32 H 1.189595 -2.507371 4.364415 0
M  V30 33 H 0.002762 -2.355819 3.060528 0
M  V30 34 H 0.072253 -1.134938 4.439373 0
M  V30 35 H 2.938166 -0.795335 4.635916 0
M  V30 36 H 4.546215 0.680384 3.412790 0
M  V30 37 H 5.691872 2.772087 0.093862 0
M  V30 38 H 6.055860 2.911988 2.743932 0
M  V30 39 H 6.958947 0.161016 1.517982 0
M  V30 40 H 7.248377 0.796168 3.274612 0
M  V30 41 H 8.503773 2.708183 2.252815 0
M  V30 42 H 8.199079 2.106562 0.530151 0
M  V30 43 H -1.134365 0.650250 1.579696 0
M  V30 44 H -3.077188 -0.290632 0.313142 0
M  V30 45 H -4.963066 -1.635632 0.919455 0
M  V30 46 H -6.220764 -2.248345 -0.270968 0
M  V30 47 H -6.964018 -0.124478 0.023761 0
M  V30 48 H -5.325059 0.564010 0.341934 0
M  V30 49 H -5.887559 -0.186341 -3.566881 0
M  V30 50 H -6.803733 -1.235814 -2.355612 0
M  V30 51 H -3.827443 -0.988604 -2.996013 0
M  V30 52 H -3.967153 -3.107235 -3.803087 0
M  V30 53 H -5.695382 -2.663163 -4.002180 0
M  V30 54 H -5.144417 -3.679163 -2.573876 0
M  V30 55 H 0.252592 -4.402266 -1.113012 0
M  V30 56 H 1.177379 -2.712965 0.270016 0
M  V30 END ATOM
M  V30 BEGIN BOND
M  V30 1 1 1 2
M  V30 2 2 2 3
M  V30 3 1 3 4
M  V30 4 2 4 5
M  V30 5 1 5 6
M  V30 6 1 6 7
M  V30 7 1 7 8
M  V30 8 1 8 9
M  V30 9 1 9 10
M  V30 10 2 6 11
M  V30 11 1 11 12
M  V30 12 1 12 13
M  V30 13 2 13 14
M  V30 14 1 14 15
M  V30 15 2 15 16
M  V30 16 1 16 17
M  V30 17 2 17 18
M  V30 18 1 18 19
M  V30 19 1 19 20
M  V30 20 1 20 21
M  V30 21 1 21 22
M  V30 22 1 22 23
M  V30 23 1 23 24
M  V30 24 1 24 25
M  V30 25 1 25 26
M  V30 26 2 19 27
M  V30 27 1 27 28
M  V30 28 2 28 29
M  V30 29 1 29 30
M  V30 30 2 30 31
M  V30 31 1 14 2
M  V30 32 1 31 15
M  V30 33 1 13 5
M  V30 34 1 30 18
M  V30 35 1 10 8
M  V30 36 1 25 20
M  V30 37 1 1 32
M  V30 38 1 1 33
M  V30 39 1 1 34
M  V30 40 1 3 35
M  V30 41 1 4 36
M  V30 42 1 7 37
M  V30 43 1 8 38
M  V30 44 1 9 39
M  V30 45 1 9 40
M  V30 46 1 10 41
M  V30 47 1 10 42
M  V30 48 1 16 43
M  V30 49 1 17 44
M  V30 50 1 21 45
M  V30 51 1 21 46
M  V30 52 1 22 47
M  V30 53 1 22 48
M  V30 54 1 24 49
M  V30 55 1 24 50
M  V30 56 1 25 51 CFG=3
M  V30 57 1 26 52
M  V30 58 1 26 53
M  V30 59 1 26 54
M  V30 60 1 29 55
M  V30 61 1 31 56
M  V30 END BOND
M  V30 END CTAB
M  END
>  <Dataset>  (741) 
ChEMBL_Kinases

>  <Ligand_Instance>  (741) 
nan

>  <PDB_ID>  (741) 
nan

>  <Standardized_SMILES>  (741) 
Cc1ccc2c(NC3CC3)noc2c1-c1ccc2c(N3CCOC[C@@H]3C)nncc2c1

>  <Name>  (741) 
nan

>  <Pocket>  (741) 
nan

>  <ATP_Site>  (741) 
nan

>  <Peripheral>  (741) 
nan

>  <Num_H_Atoms_ProtBoundConf>  (741) 
nan

>  <Num_Resolved_Atoms>  (741) 
nan

>  <Num_Not_Resolved_Atoms>  (741) 
nan

$$$$
CHEMBL3730624
     RDKit          3D

  0  0  0  0  0  0  0  0  0  0999 V3000
M  V30 BEGIN CTAB
M  V30 COUNTS 42 45 0 0 0
M  V30 BEGIN ATOM
M  V30 1 N -2.928374 -3.018291 2.354858 0
M  V30 2 C -2.874106 -2.942866 0.906500 0
M  V30 3 C -2.084895 -1.779815 0.413666 0
M  V30 4 N -0.734324 -1.799320 0.847978 0
M  V30 5 C 0.126977 -0.731513 0.430594 0
M  V30 6 N -0.395782 0.205832 -0.364896 0
M  V30 7 C 0.195862 1.264737 -0.885881 0
M  V30 8 C -0.509556 2.201041 -1.738960 0
M  V30 9 C -1.842900 1.985096 -2.020098 0
M  V30 10 C -2.470258 2.920222 -2.847462 0
M  V30 11 N -1.804673 3.987451 -3.350382 0
M  V30 12 C -0.506833 4.174099 -3.060942 0
M  V30 13 F 0.258756 5.215337 -3.514493 0
M  V30 14 C 0.171663 3.287179 -2.249562 0
M  V30 15 N 1.486162 1.407558 -0.569501 0
M  V30 16 C 2.049564 0.511583 0.211602 0
M  V30 17 S 3.766193 0.412817 0.824377 0
M  V30 18 C 3.571111 -1.056623 1.747955 0
M  V30 19 C 2.200440 -1.438473 1.568227 0
M  V30 20 C 1.449554 -0.621860 0.780408 0
M  V30 21 C 2.125529 -2.658829 2.374193 0
M  V30 22 C 2.497798 -2.239662 3.818459 0
M  V30 23 C 3.981151 -1.997816 3.926831 0
M  V30 24 C 4.565457 -1.784984 2.542412 0
M  V30 25 H -2.268181 -3.746782 2.722353 0
M  V30 26 H -2.732300 -2.139034 2.842767 0
M  V30 27 H -3.929712 -2.930562 0.572008 0
M  V30 28 H -2.464814 -3.907622 0.541145 0
M  V30 29 H -2.590127 -0.805451 0.577669 0
M  V30 30 H -2.055638 -1.877743 -0.712489 0
M  V30 31 H -0.637158 -2.636535 1.411264 0
M  V30 32 H -2.420642 1.159950 -1.651438 0
M  V30 33 H -3.518593 2.865689 -3.145781 0
M  V30 34 H 1.232875 3.400171 -1.986331 0
M  V30 35 H 2.847992 -3.442482 2.032533 0
M  V30 36 H 1.126537 -3.078649 2.496477 0
M  V30 37 H 2.143867 -2.990476 4.542130 0
M  V30 38 H 1.955386 -1.290685 3.991275 0
M  V30 39 H 4.440848 -2.827817 4.469246 0
M  V30 40 H 4.195688 -1.063514 4.501026 0
M  V30 41 H 5.477332 -1.205196 2.597346 0
M  V30 42 H 4.767014 -2.778708 2.084631 0
M  V30 END ATOM
M  V30 BEGIN BOND
M  V30 1 1 1 2
M  V30 2 1 2 3
M  V30 3 1 3 4
M  V30 4 1 4 5
M  V30 5 2 5 6
M  V30 6 1 6 7
M  V30 7 1 7 8
M  V30 8 2 8 9
M  V30 9 1 9 10
M  V30 10 2 10 11
M  V30 11 1 11 12
M  V30 12 1 12 13
M  V30 13 2 12 14
M  V30 14 2 7 15
M  V30 15 1 15 16
M  V30 16 1 16 17
M  V30 17 1 17 18
M  V30 18 2 18 19
M  V30 19 1 19 20
M  V30 20 1 19 21
M  V30 21 1 21 22
M  V30 22 1 22 23
M  V30 23 1 23 24
M  V30 24 1 20 5
M  V30 25 1 14 8
M  V30 26 2 20 16
M  V30 27 1 24 18
M  V30 28 1 1 25
M  V30 29 1 1 26
M  V30 30 1 2 27
M  V30 31 1 2 28
M  V30 32 1 3 29
M  V30 33 1 3 30
M  V30 34 1 4 31
M  V30 35 1 9 32
M  V30 36 1 10 33
M  V30 37 1 14 34
M  V30 38 1 21 35
M  V30 39 1 21 36
M  V30 40 1 22 37
M  V30 41 1 22 38
M  V30 42 1 23 39
M  V30 43 1 23 40
M  V30 44 1 24 41
M  V30 45 1 24 42
M  V30 END BOND
M  V30 END CTAB
M  END
>  <Dataset>  (742) 
ChEMBL_Kinases

>  <Ligand_Instance>  (742) 
nan

>  <PDB_ID>  (742) 
nan

>  <Standardized_SMILES>  (742) 
NCCNc1nc(-c2ccnc(F)c2)nc2sc3c(c12)CCCC3

>  <Name>  (742) 
nan

>  <Pocket>  (742) 
nan

>  <ATP_Site>  (742) 
nan

>  <Peripheral>  (742) 
nan

>  <Num_H_Atoms_ProtBoundConf>  (742) 
nan

>  <Num_Resolved_Atoms>  (742) 
nan

>  <Num_Not_Resolved_Atoms>  (742) 
nan

$$$$
CHEMBL3730622
     RDKit          3D

  0  0  0  0  0  0  0  0  0  0999 V3000
M  V30 BEGIN CTAB
M  V30 COUNTS 60 65 0 0 0
M  V30 BEGIN ATOM
M  V30 1 O 2.542663 0.628328 6.742993 0
M  V30 2 C 2.907233 -0.226956 5.723107 0
M  V30 3 C 3.251915 -1.539405 5.980491 0
M  V30 4 C 3.616456 -2.397511 4.963564 0
M  V30 5 C 3.645330 -1.953201 3.639500 0
M  V30 6 C 3.305144 -0.636690 3.333639 0
M  V30 7 C 3.305942 -0.076627 1.958758 0
M  V30 8 N 2.026282 -0.229759 1.294177 0
M  V30 9 C 2.133884 0.338181 -0.000109 0
M  V30 10 C 1.528960 -0.513659 -1.093605 0
M  V30 11 N 0.247575 -0.973372 -0.521518 0
M  V30 12 C -1.107565 -0.638589 -0.767255 0
M  V30 13 N -1.629526 0.028883 0.265378 0
M  V30 14 C -2.852633 0.517807 0.354344 0
M  V30 15 C -3.441228 1.242424 1.463062 0
M  V30 16 C -2.594061 1.426819 2.541172 0
M  V30 17 C -3.046914 2.107124 3.663790 0
M  V30 18 N -4.302742 2.575970 3.684160 0
M  V30 19 C -5.122354 2.393409 2.632228 0
M  V30 20 C -4.716105 1.723119 1.494340 0
M  V30 21 N -3.631397 0.310914 -0.713284 0
M  V30 22 C -3.125524 -0.361931 -1.769159 0
M  V30 23 S -3.890409 -0.821928 -3.376197 0
M  V30 24 C -2.479378 -1.637297 -4.016840 0
M  V30 25 C -1.483915 -1.546312 -3.024512 0
M  V30 26 C -1.853606 -0.884721 -1.890242 0
M  V30 27 C -0.216928 -2.218642 -3.408082 0
M  V30 28 C -0.611091 -3.499313 -4.162965 0
M  V30 29 C -1.254491 -3.175393 -5.493003 0
M  V30 30 C -2.424128 -2.257665 -5.342258 0
M  V30 31 C 0.485523 -1.976995 0.501808 0
M  V30 32 C 1.673992 -1.623365 1.318476 0
M  V30 33 C 2.943211 0.189586 4.405241 0
M  V30 34 H 1.573999 0.824489 7.009380 0
M  V30 35 H 3.211828 -1.830247 7.032594 0
M  V30 36 H 3.877908 -3.413768 5.210172 0
M  V30 37 H 3.927173 -2.607118 2.826774 0
M  V30 38 H 3.526135 1.008241 2.055231 0
M  V30 39 H 4.135940 -0.483166 1.334795 0
M  V30 40 H 1.618958 1.325561 -0.047993 0
M  V30 41 H 3.181585 0.498656 -0.269940 0
M  V30 42 H 2.170624 -1.361553 -1.340997 0
M  V30 43 H 1.373410 0.142115 -1.971526 0
M  V30 44 H -1.553893 1.088662 2.633932 0
M  V30 45 H -2.446241 2.290659 4.544560 0
M  V30 46 H -6.135180 2.772557 2.651190 0
M  V30 47 H -5.314153 1.538949 0.615638 0
M  V30 48 H 0.471875 -1.588065 -3.967709 0
M  V30 49 H 0.324572 -2.613444 -2.514247 0
M  V30 50 H -1.320536 -4.034261 -3.499322 0
M  V30 51 H 0.267146 -4.153645 -4.292317 0
M  V30 52 H -0.485986 -2.781643 -6.184722 0
M  V30 53 H -1.628349 -4.152454 -5.884536 0
M  V30 54 H -3.373530 -2.791988 -5.532072 0
M  V30 55 H -2.277814 -1.427227 -6.089866 0
M  V30 56 H 0.666302 -2.927320 -0.038452 0
M  V30 57 H -0.404900 -2.070154 1.187707 0
M  V30 58 H 1.501141 -1.947669 2.361868 0
M  V30 59 H 2.561828 -2.161136 0.877753 0
M  V30 60 H 2.676713 1.216776 4.175777 0
M  V30 END ATOM
M  V30 BEGIN BOND
M  V30 1 1 1 2
M  V30 2 2 2 3
M  V30 3 1 3 4
M  V30 4 2 4 5
M  V30 5 1 5 6
M  V30 6 1 6 7
M  V30 7 1 7 8
M  V30 8 1 8 9
M  V30 9 1 9 10
M  V30 10 1 10 11
M  V30 11 1 11 12
M  V30 12 2 12 13
M  V30 13 1 13 14
M  V30 14 1 14 15
M  V30 15 2 15 16
M  V30 16 1 16 17
M  V30 17 2 17 18
M  V30 18 1 18 19
M  V30 19 2 19 20
M  V30 20 2 14 21
M  V30 21 1 21 22
M  V30 22 1 22 23
M  V30 23 1 23 24
M  V30 24 2 24 25
M  V30 25 1 25 26
M  V30 26 1 25 27
M  V30 27 1 27 28
M  V30 28 1 28 29
M  V30 29 1 29 30
M  V30 30 1 11 31
M  V30 31 1 31 32
M  V30 32 2 6 33
M  V30 33 1 33 2
M  V30 34 1 32 8
M  V30 35 1 26 12
M  V30 36 1 20 15
M  V30 37 2 26 22
M  V30 38 1 30 24
M  V30 39 1 1 34
M  V30 40 1 3 35
M  V30 41 1 4 36
M  V30 42 1 5 37
M  V30 43 1 7 38
M  V30 44 1 7 39
M  V30 45 1 9 40
M  V30 46 1 9 41
M  V30 47 1 10 42
M  V30 48 1 10 43
M  V30 49 1 16 44
M  V30 50 1 17 45
M  V30 51 1 19 46
M  V30 52 1 20 47
M  V30 53 1 27 48
M  V30 54 1 27 49
M  V30 55 1 28 50
M  V30 56 1 28 51
M  V30 57 1 29 52
M  V30 58 1 29 53
M  V30 59 1 30 54
M  V30 60 1 30 55
M  V30 61 1 31 56
M  V30 62 1 31 57
M  V30 63 1 32 58
M  V30 64 1 32 59
M  V30 65 1 33 60
M  V30 END BOND
M  V30 END CTAB
M  END
>  <Dataset>  (743) 
ChEMBL_Kinases

>  <Ligand_Instance>  (743) 
nan

>  <PDB_ID>  (743) 
nan

>  <Standardized_SMILES>  (743) 
Oc1cccc(CN2CCN(c3nc(-c4ccncc4)nc4sc5c(c34)CCCC5)CC2)c1

>  <Name>  (743) 
nan

>  <Pocket>  (743) 
nan

>  <ATP_Site>  (743) 
nan

>  <Peripheral>  (743) 
nan

>  <Num_H_Atoms_ProtBoundConf>  (743) 
nan

>  <Num_Resolved_Atoms>  (743) 
nan

>  <Num_Not_Resolved_Atoms>  (743) 
nan

$$$$
CHEMBL3730611
     RDKit          3D

  0  0  0  0  0  0  0  0  0  0999 V3000
M  V30 BEGIN CTAB
M  V30 COUNTS 39 40 0 0 0
M  V30 BEGIN ATOM
M  V30 1 C 0.226152 -3.809156 0.367475 0
M  V30 2 C 1.715663 -4.009829 0.443134 0
M  V30 3 C 2.317017 -2.806547 1.063877 0
M  V30 4 C 2.734505 -2.842403 2.397831 0
M  V30 5 C 3.297593 -1.754336 3.027966 0
M  V30 6 C 3.465365 -0.561938 2.323597 0
M  V30 7 C 3.046990 -0.545412 1.007292 0
M  V30 8 C 2.471096 -1.637029 0.340104 0
M  V30 9 N 2.069348 -1.554524 -1.021644 0
M  V30 10 C 2.258054 -0.317075 -1.693387 0
M  V30 11 C 1.378349 0.775958 -1.218070 0
M  V30 12 O 1.366210 1.963628 -1.633740 0
M  V30 13 N 0.442777 0.476212 -0.190689 0
M  V30 14 N -0.376087 1.555742 0.227112 0
M  V30 15 C -1.560663 1.279870 0.669740 0
M  V30 16 C -2.774944 1.837330 1.197468 0
M  V30 17 C -2.855479 2.048909 2.570380 0
M  V30 18 Cl -1.463939 1.628536 3.580393 0
M  V30 19 C -4.034470 2.582794 3.059329 0
M  V30 20 N -5.033061 2.871012 2.217397 0
M  V30 21 C -4.989739 2.679988 0.887649 0
M  V30 22 C -3.830009 2.146619 0.344426 0
M  V30 23 Cl -3.737934 1.884115 -1.382932 0
M  V30 24 H -0.322382 -4.646133 0.888467 0
M  V30 25 H -0.114590 -2.819216 0.743960 0
M  V30 26 H -0.093113 -3.857608 -0.704772 0
M  V30 27 H 2.167370 -4.169536 -0.573869 0
M  V30 28 H 1.912641 -4.886002 1.111136 0
M  V30 29 H 2.625860 -3.744140 2.991639 0
M  V30 30 H 3.627041 -1.754006 4.052893 0
M  V30 31 H 3.892415 0.352882 2.713434 0
M  V30 32 H 3.167447 0.381333 0.427885 0
M  V30 33 H 1.658309 -2.404758 -1.460662 0
M  V30 34 H 2.091353 -0.472241 -2.777877 0
M  V30 35 H 3.326070 0.046538 -1.627146 0
M  V30 36 H 0.287733 -0.461780 0.288796 0
M  V30 37 H -1.853917 0.225099 0.691191 0
M  V30 38 H -4.066423 2.735052 4.129348 0
M  V30 39 H -5.851644 2.941248 0.266982 0
M  V30 END ATOM
M  V30 BEGIN BOND
M  V30 1 1 1 2
M  V30 2 1 2 3
M  V30 3 2 3 4
M  V30 4 1 4 5
M  V30 5 2 5 6
M  V30 6 1 6 7
M  V30 7 2 7 8
M  V30 8 1 8 9
M  V30 9 1 9 10
M  V30 10 1 10 11
M  V30 11 2 11 12
M  V30 12 1 11 13
M  V30 13 1 13 14
M  V30 14 2 14 15
M  V30 15 1 15 16
M  V30 16 2 16 17
M  V30 17 1 17 18
M  V30 18 1 17 19
M  V30 19 2 19 20
M  V30 20 1 20 21
M  V30 21 2 21 22
M  V30 22 1 22 23
M  V30 23 1 8 3
M  V30 24 1 22 16
M  V30 25 1 1 24
M  V30 26 1 1 25
M  V30 27 1 1 26
M  V30 28 1 2 27
M  V30 29 1 2 28
M  V30 30 1 4 29
M  V30 31 1 5 30
M  V30 32 1 6 31
M  V30 33 1 7 32
M  V30 34 1 9 33
M  V30 35 1 10 34
M  V30 36 1 10 35
M  V30 37 1 13 36
M  V30 38 1 15 37
M  V30 39 1 19 38
M  V30 40 1 21 39
M  V30 END BOND
M  V30 END CTAB
M  END
>  <Dataset>  (744) 
ChEMBL_Kinases

>  <Ligand_Instance>  (744) 
nan

>  <PDB_ID>  (744) 
nan

>  <Standardized_SMILES>  (744) 
CCc1ccccc1NCC(=O)N/N=C/c1c(Cl)cncc1Cl

>  <Name>  (744) 
nan

>  <Pocket>  (744) 
nan

>  <ATP_Site>  (744) 
nan

>  <Peripheral>  (744) 
nan

>  <Num_H_Atoms_ProtBoundConf>  (744) 
nan

>  <Num_Resolved_Atoms>  (744) 
nan

>  <Num_Not_Resolved_Atoms>  (744) 
nan

$$$$
CHEMBL3704375
     RDKit          3D

  0  0  0  0  0  0  0  0  0  0999 V3000
M  V30 BEGIN CTAB
M  V30 COUNTS 76 82 0 0 0
M  V30 BEGIN ATOM
M  V30 1 N 5.737496 -1.498965 8.085974 0
M  V30 2 C 6.293008 -0.957244 6.909171 0
M  V30 3 O 7.553411 -0.882553 6.741749 0
M  V30 4 C 5.469361 -0.444068 5.799231 0
M  V30 5 C 4.133631 -0.740380 5.884776 0
M  V30 6 C 3.320440 -0.244399 4.867479 0
M  V30 7 C 3.898993 0.496360 3.863789 0
M  V30 8 N 3.355365 1.090474 2.793942 0
M  V30 9 C 4.312823 1.706940 2.112337 0
M  V30 10 C 4.297741 2.492482 0.916445 0
M  V30 11 O 5.261717 3.188875 0.473706 0
M  V30 12 N 3.438959 2.840936 -0.148028 0
M  V30 13 C 4.125061 3.731284 -1.051537 0
M  V30 14 C 3.176950 3.907927 -2.203317 0
M  V30 15 C 1.822582 3.812528 -1.532869 0
M  V30 16 C 2.075422 2.616656 -0.652189 0 CFG=2
M  V30 17 C 1.083107 2.307311 0.348197 0
M  V30 18 C 1.026492 3.018513 1.551966 0
M  V30 19 C 0.044900 2.642589 2.436587 0
M  V30 20 C -0.891555 1.650058 2.282020 0
M  V30 21 C -0.780569 0.992688 1.079518 0
M  V30 22 C -1.663211 -0.122743 0.650305 0
M  V30 23 O -1.714788 -0.742042 -0.431195 0
M  V30 24 N -2.648937 -0.647700 1.544494 0
M  V30 25 C -3.302297 -1.703297 0.769044 0
M  V30 26 N -2.947433 -2.976815 0.662628 0
M  V30 27 C -3.698258 -3.737703 -0.098496 0
M  V30 28 C -4.852280 -3.195462 -0.780006 0
M  V30 29 S -4.785587 -1.555710 -0.264212 0
M  V30 30 C -5.645240 -4.125777 -1.627155 0
M  V30 31 C -4.745604 -4.928220 -2.540465 0 CFG=1
M  V30 32 N -4.517968 -4.388255 -3.828251 0
M  V30 33 C -5.665313 -4.347004 -4.687614 0
M  V30 34 C -5.583075 -3.232158 -5.712950 0
M  V30 35 O -5.553256 -2.050886 -4.945936 0
M  V30 36 C -4.337716 -1.957464 -4.330866 0
M  V30 37 C -3.701308 -3.217557 -3.879436 0
M  V30 38 C -3.469208 -5.335887 -1.893177 0
M  V30 39 C -3.503371 -5.209530 -0.382822 0
M  V30 40 C 0.160465 1.264650 0.093288 0
M  V30 41 C 5.537618 1.507041 2.763256 0
M  V30 42 N 5.216819 0.756029 3.831103 0
M  V30 43 C 6.076789 0.301772 4.793689 0
M  V30 44 H 5.185925 -1.131747 8.910508 0
M  V30 45 H 5.892079 -2.541529 8.211951 0
M  V30 46 H 3.686944 -1.317678 6.667222 0
M  V30 47 H 2.262862 -0.469362 4.920954 0
M  V30 48 H 5.122472 3.360289 -1.398434 0
M  V30 49 H 4.234639 4.708636 -0.516089 0
M  V30 50 H 3.315372 3.071696 -2.927678 0
M  V30 51 H 3.306652 4.890733 -2.710803 0
M  V30 52 H 1.038914 3.541084 -2.293882 0
M  V30 53 H 1.655795 4.754687 -1.023145 0
M  V30 54 H 2.181003 1.742057 -1.345666 0
M  V30 55 H 1.712274 3.819145 1.782595 0
M  V30 56 H 0.012023 3.209893 3.379688 0
M  V30 57 H -1.661699 1.351555 2.969697 0
M  V30 58 H -2.793810 -0.290020 2.512891 0
M  V30 59 H -6.297709 -4.766055 -0.993979 0
M  V30 60 H -6.312180 -3.479579 -2.228212 0
M  V30 61 H -5.316694 -5.893404 -2.703717 0
M  V30 62 H -6.581218 -4.191796 -4.103584 0
M  V30 63 H -5.696227 -5.322597 -5.259130 0
M  V30 64 H -4.736992 -3.319128 -6.398729 0
M  V30 65 H -6.555736 -3.219067 -6.264973 0
M  V30 66 H -3.652076 -1.417468 -5.049305 0
M  V30 67 H -4.466975 -1.214688 -3.486155 0
M  V30 68 H -3.251556 -2.997988 -2.873503 0
M  V30 69 H -2.807144 -3.460048 -4.508971 0
M  V30 70 H -3.218867 -6.420359 -2.092626 0
M  V30 71 H -2.579105 -4.782286 -2.239585 0
M  V30 72 H -4.258807 -5.835839 0.094983 0
M  V30 73 H -2.525717 -5.562264 -0.029733 0
M  V30 74 H 0.253369 0.751450 -0.850862 0
M  V30 75 H 6.537261 1.864018 2.498865 0
M  V30 76 H 7.135357 0.504533 4.772689 0
M  V30 END ATOM
M  V30 BEGIN BOND
M  V30 1 1 1 2
M  V30 2 2 2 3
M  V30 3 1 2 4
M  V30 4 1 4 5
M  V30 5 2 5 6
M  V30 6 1 6 7
M  V30 7 2 7 8
M  V30 8 1 8 9
M  V30 9 1 9 10
M  V30 10 2 10 11
M  V30 11 1 10 12
M  V30 12 1 12 13
M  V30 13 1 13 14
M  V30 14 1 14 15
M  V30 15 1 15 16
M  V30 16 1 16 17
M  V30 17 2 17 18
M  V30 18 1 18 19
M  V30 19 2 19 20
M  V30 20 1 20 21
M  V30 21 1 21 22
M  V30 22 2 22 23
M  V30 23 1 22 24
M  V30 24 1 24 25
M  V30 25 2 25 26
M  V30 26 1 26 27
M  V30 27 2 27 28
M  V30 28 1 28 29
M  V30 29 1 28 30
M  V30 30 1 30 31
M  V30 31 1 31 32
M  V30 32 1 32 33
M  V30 33 1 33 34
M  V30 34 1 34 35
M  V30 35 1 35 36
M  V30 36 1 36 37
M  V30 37 1 31 38
M  V30 38 1 38 39
M  V30 39 2 21 40
M  V30 40 2 9 41
M  V30 41 1 41 42
M  V30 42 1 42 43
M  V30 43 2 43 4
M  V30 44 1 42 7
M  V30 45 1 16 12
M  V30 46 1 40 17
M  V30 47 1 29 25
M  V30 48 1 37 32
M  V30 49 1 39 27
M  V30 50 1 1 44
M  V30 51 1 1 45
M  V30 52 1 5 46
M  V30 53 1 6 47
M  V30 54 1 13 48
M  V30 55 1 13 49
M  V30 56 1 14 50
M  V30 57 1 14 51
M  V30 58 1 15 52
M  V30 59 1 15 53
M  V30 60 1 16 54 CFG=3
M  V30 61 1 18 55
M  V30 62 1 19 56
M  V30 63 1 20 57
M  V30 64 1 24 58
M  V30 65 1 30 59
M  V30 66 1 30 60
M  V30 67 1 31 61 CFG=3
M  V30 68 1 33 62
M  V30 69 1 33 63
M  V30 70 1 34 64
M  V30 71 1 34 65
M  V30 72 1 36 66
M  V30 73 1 36 67
M  V30 74 1 37 68
M  V30 75 1 37 69
M  V30 76 1 38 70
M  V30 77 1 38 71
M  V30 78 1 39 72
M  V30 79 1 39 73
M  V30 80 1 40 74
M  V30 81 1 41 75
M  V30 82 1 43 76
M  V30 END BOND
M  V30 END CTAB
M  END
>  <Dataset>  (745) 
ChEMBL_Kinases

>  <Ligand_Instance>  (745) 
nan

>  <PDB_ID>  (745) 
nan

>  <Standardized_SMILES>  (745) 
NC(=O)c1ccc2nc(C(=O)N3CCC[C@@H]3c3cccc(C(=O)Nc4nc5c(s4)C[C@@H](N4CCOCC4)CC5)c3)cn2c1

>  <Name>  (745) 
nan

>  <Pocket>  (745) 
nan

>  <ATP_Site>  (745) 
nan

>  <Peripheral>  (745) 
nan

>  <Num_H_Atoms_ProtBoundConf>  (745) 
nan

>  <Num_Resolved_Atoms>  (745) 
nan

>  <Num_Not_Resolved_Atoms>  (745) 
nan

$$$$
CHEMBL3730597
     RDKit          3D

  0  0  0  0  0  0  0  0  0  0999 V3000
M  V30 BEGIN CTAB
M  V30 COUNTS 58 62 0 0 0
M  V30 BEGIN ATOM
M  V30 1 C 1.373365 0.743085 7.504633 0
M  V30 2 O 1.003896 1.018033 6.176416 0
M  V30 3 C 1.956512 0.905617 5.178897 0
M  V30 4 C 3.266819 0.551542 5.285487 0
M  V30 5 C 4.049188 0.501785 4.150634 0
M  V30 6 C 3.544790 0.801146 2.900698 0
M  V30 7 C 2.199383 1.167375 2.771453 0
M  V30 8 C 1.689239 1.481290 1.424723 0
M  V30 9 C 1.134785 0.286883 0.688393 0 CFG=2
M  V30 10 N 2.211319 -0.672550 0.560594 0
M  V30 11 C 0.716820 0.796065 -0.682599 0
M  V30 12 O 0.265377 -0.197321 -1.545167 0
M  V30 13 C -0.817839 -1.039650 -1.342509 0
M  V30 14 N -1.523824 -0.910035 -0.211615 0
M  V30 15 C -2.584961 -1.621432 0.154051 0
M  V30 16 C -3.288028 -1.403046 1.411707 0
M  V30 17 C -4.382871 -2.186456 1.716403 0
M  V30 18 C -4.962092 -1.884987 2.931467 0
M  V30 19 N -4.535099 -0.928837 3.770364 0
M  V30 20 C -3.463523 -0.179494 3.446504 0
M  V30 21 C -2.816258 -0.409710 2.245716 0
M  V30 22 N -2.957206 -2.560913 -0.733389 0
M  V30 23 C -2.297277 -2.741033 -1.877308 0
M  V30 24 S -2.538605 -3.855713 -3.197014 0
M  V30 25 C -1.179573 -3.316635 -4.213088 0
M  V30 26 C -0.604153 -2.268745 -3.436524 0
M  V30 27 C -1.203388 -2.004284 -2.249262 0
M  V30 28 C 0.564160 -1.709342 -4.167099 0
M  V30 29 C 0.010017 -1.198876 -5.505225 0
M  V30 30 C -0.398648 -2.371713 -6.371050 0
M  V30 31 C -0.543456 -3.639539 -5.536880 0
M  V30 32 C 1.432766 1.208373 3.940968 0
M  V30 33 H 0.448525 0.437938 8.062078 0
M  V30 34 H 2.102900 -0.088122 7.604250 0
M  V30 35 H 1.758991 1.653257 8.037043 0
M  V30 36 H 3.599738 0.330691 6.282929 0
M  V30 37 H 5.082843 0.218009 4.267806 0
M  V30 38 H 4.239677 0.732926 2.070864 0
M  V30 39 H 0.915163 2.275049 1.404500 0
M  V30 40 H 2.532622 1.875835 0.821233 0
M  V30 41 H 0.256033 -0.148491 1.157967 0
M  V30 42 H 3.046963 -0.175794 0.183878 0
M  V30 43 H 1.984347 -1.450146 -0.073031 0
M  V30 44 H 1.638474 1.236797 -1.159661 0
M  V30 45 H -0.059752 1.570300 -0.614380 0
M  V30 46 H -4.754363 -2.967253 1.061721 0
M  V30 47 H -5.836147 -2.444135 3.272277 0
M  V30 48 H -3.171674 0.573626 4.166489 0
M  V30 49 H -1.961756 0.200574 2.006191 0
M  V30 50 H 1.301470 -2.535613 -4.319433 0
M  V30 51 H 1.025913 -0.842567 -3.658874 0
M  V30 52 H -0.900918 -0.620284 -5.245244 0
M  V30 53 H 0.706379 -0.517367 -6.008950 0
M  V30 54 H 0.290659 -2.590376 -7.184263 0
M  V30 55 H -1.409991 -2.212524 -6.811097 0
M  V30 56 H -1.256214 -4.331107 -6.027842 0
M  V30 57 H 0.427263 -4.081298 -5.323110 0
M  V30 58 H 0.415826 1.501341 3.723547 0
M  V30 END ATOM
M  V30 BEGIN BOND
M  V30 1 1 1 2
M  V30 2 1 2 3
M  V30 3 2 3 4
M  V30 4 1 4 5
M  V30 5 2 5 6
M  V30 6 1 6 7
M  V30 7 1 7 8
M  V30 8 1 8 9
M  V30 9 1 9 10
M  V30 10 1 9 11
M  V30 11 1 11 12
M  V30 12 1 12 13
M  V30 13 2 13 14
M  V30 14 1 14 15
M  V30 15 1 15 16
M  V30 16 2 16 17
M  V30 17 1 17 18
M  V30 18 2 18 19
M  V30 19 1 19 20
M  V30 20 2 20 21
M  V30 21 2 15 22
M  V30 22 1 22 23
M  V30 23 1 23 24
M  V30 24 1 24 25
M  V30 25 2 25 26
M  V30 26 1 26 27
M  V30 27 1 26 28
M  V30 28 1 28 29
M  V30 29 1 29 30
M  V30 30 1 30 31
M  V30 31 2 7 32
M  V30 32 1 32 3
M  V30 33 1 27 13
M  V30 34 1 21 16
M  V30 35 2 27 23
M  V30 36 1 31 25
M  V30 37 1 1 33
M  V30 38 1 1 34
M  V30 39 1 1 35
M  V30 40 1 4 36
M  V30 41 1 5 37
M  V30 42 1 6 38
M  V30 43 1 8 39
M  V30 44 1 8 40
M  V30 45 1 9 41 CFG=1
M  V30 46 1 10 42
M  V30 47 1 10 43
M  V30 48 1 11 44
M  V30 49 1 11 45
M  V30 50 1 17 46
M  V30 51 1 18 47
M  V30 52 1 20 48
M  V30 53 1 21 49
M  V30 54 1 28 50
M  V30 55 1 28 51
M  V30 56 1 29 52
M  V30 57 1 29 53
M  V30 58 1 30 54
M  V30 59 1 30 55
M  V30 60 1 31 56
M  V30 61 1 31 57
M  V30 62 1 32 58
M  V30 END BOND
M  V30 END CTAB
M  END
>  <Dataset>  (746) 
ChEMBL_Kinases

>  <Ligand_Instance>  (746) 
nan

>  <PDB_ID>  (746) 
nan

>  <Standardized_SMILES>  (746) 
COc1cccc(C[C@H](N)COc2nc(-c3ccncc3)nc3sc4c(c23)CCCC4)c1

>  <Name>  (746) 
nan

>  <Pocket>  (746) 
nan

>  <ATP_Site>  (746) 
nan

>  <Peripheral>  (746) 
nan

>  <Num_H_Atoms_ProtBoundConf>  (746) 
nan

>  <Num_Resolved_Atoms>  (746) 
nan

>  <Num_Not_Resolved_Atoms>  (746) 
nan

$$$$
CHEMBL3704376
     RDKit          3D

  0  0  0  0  0  0  0  0  0  0999 V3000
M  V30 BEGIN CTAB
M  V30 COUNTS 75 81 0 0 0
M  V30 BEGIN ATOM
M  V30 1 O -0.724379 -1.060066 2.344295 0
M  V30 2 C -0.687688 -1.599022 3.520494 0
M  V30 3 N -1.192512 -0.572275 4.355128 0
M  V30 4 C -1.461059 0.486821 3.359441 0
M  V30 5 N -0.912329 1.365623 2.863826 0
M  V30 6 C -1.411123 2.187487 1.945054 0
M  V30 7 C -2.722230 1.992306 1.520459 0
M  V30 8 S -3.193723 0.524106 2.550146 0
M  V30 9 C -3.206350 2.969502 0.459573 0
M  V30 10 C -2.286577 2.711804 -0.717774 0 CFG=1
M  V30 11 N -2.714112 3.189767 -1.963811 0
M  V30 12 C -2.957386 4.575324 -2.124856 0
M  V30 13 C -2.759958 4.857430 -3.618515 0
M  V30 14 O -3.641177 4.086654 -4.373897 0
M  V30 15 C -3.306165 2.735497 -4.220246 0
M  V30 16 C -3.517092 2.315478 -2.762056 0
M  V30 17 C -0.916378 3.068860 -0.269819 0
M  V30 18 C -0.801642 3.332013 1.215840 0
M  V30 19 C -0.211790 -2.953443 3.748789 0
M  V30 20 C -0.186477 -3.647646 4.932844 0
M  V30 21 C 0.293728 -4.961467 5.004395 0
M  V30 22 C 0.726521 -5.476793 3.808375 0
M  V30 23 C 0.734831 -4.851914 2.593335 0
M  V30 24 C 1.186098 -5.418187 1.276018 0 CFG=1
M  V30 25 C 0.679017 -6.819981 1.179841 0
M  V30 26 C -0.463848 -6.787369 0.205282 0
M  V30 27 C -0.727836 -5.308080 -0.032955 0
M  V30 28 N 0.552839 -4.674066 0.182415 0
M  V30 29 C 0.905012 -3.565043 -0.624999 0
M  V30 30 O -0.135598 -3.489897 -1.344846 0
M  V30 31 C 1.945846 -2.596018 -0.869987 0
M  V30 32 C 2.289070 -2.389394 -2.192707 0
M  V30 33 C 3.278736 -1.453002 -2.447087 0
M  V30 34 C 3.872024 -0.779498 -1.422660 0
M  V30 35 N 4.819433 0.109192 -1.798903 0
M  V30 36 C 5.480593 0.841344 -0.893701 0
M  V30 37 O 6.372875 1.688012 -1.165660 0
M  V30 38 C 5.195908 0.691594 0.444470 0
M  V30 39 C 4.227177 -0.214211 0.847931 0
M  V30 40 C 3.551804 -0.963333 -0.086527 0
M  V30 41 C 2.567862 -1.896712 0.148418 0
M  V30 42 C 0.248621 -3.566354 2.602152 0
M  V30 43 H -1.234111 -0.820064 5.331036 0
M  V30 44 H -4.261757 2.740363 0.211786 0
M  V30 45 H -3.080109 3.952199 0.927031 0
M  V30 46 H -2.292006 1.577811 -0.804837 0
M  V30 47 H -2.225234 5.152208 -1.566439 0
M  V30 48 H -4.015387 4.858971 -1.881625 0
M  V30 49 H -1.741104 4.427706 -3.852772 0
M  V30 50 H -2.806349 5.928827 -3.862235 0
M  V30 51 H -3.846426 2.103078 -4.929579 0
M  V30 52 H -2.202617 2.578564 -4.406801 0
M  V30 53 H -3.156132 1.281224 -2.640366 0
M  V30 54 H -4.610486 2.392222 -2.535776 0
M  V30 55 H -0.576054 4.006794 -0.765148 0
M  V30 56 H -0.195231 2.288265 -0.598441 0
M  V30 57 H 0.313248 3.406644 1.390320 0
M  V30 58 H -1.182181 4.318653 1.528905 0
M  V30 59 H -0.556400 -3.113883 5.792977 0
M  V30 60 H 0.306539 -5.489638 5.939209 0
M  V30 61 H 1.108033 -6.494149 3.844957 0
M  V30 62 H 2.261099 -5.327122 1.146594 0
M  V30 63 H 1.458462 -7.551580 0.879983 0
M  V30 64 H 0.291211 -7.205533 2.151335 0
M  V30 65 H -0.204023 -7.302864 -0.740945 0
M  V30 66 H -1.369808 -7.293886 0.580110 0
M  V30 67 H -1.062437 -5.167311 -1.082735 0
M  V30 68 H -1.466455 -4.886763 0.670384 0
M  V30 69 H 1.840034 -2.906452 -3.028963 0
M  V30 70 H 3.548043 -1.288648 -3.495974 0
M  V30 71 H 5.106437 0.294561 -2.793607 0
M  V30 72 H 5.706781 1.265123 1.228207 0
M  V30 73 H 3.943142 -0.394204 1.875090 0
M  V30 74 H 2.325061 -2.041607 1.176908 0
M  V30 75 H 0.241767 -3.055663 1.634737 0
M  V30 END ATOM
M  V30 BEGIN BOND
M  V30 1 2 1 2
M  V30 2 1 2 3
M  V30 3 1 3 4
M  V30 4 2 4 5
M  V30 5 1 5 6
M  V30 6 2 6 7
M  V30 7 1 7 8
M  V30 8 1 7 9
M  V30 9 1 9 10
M  V30 10 1 10 11
M  V30 11 1 11 12
M  V30 12 1 12 13
M  V30 13 1 13 14
M  V30 14 1 14 15
M  V30 15 1 15 16
M  V30 16 1 10 17
M  V30 17 1 17 18
M  V30 18 1 2 19
M  V30 19 2 19 20
M  V30 20 1 20 21
M  V30 21 2 21 22
M  V30 22 1 22 23
M  V30 23 1 23 24
M  V30 24 1 24 25
M  V30 25 1 25 26
M  V30 26 1 26 27
M  V30 27 1 27 28
M  V30 28 1 28 29
M  V30 29 2 29 30
M  V30 30 1 29 31
M  V30 31 2 31 32
M  V30 32 1 32 33
M  V30 33 2 33 34
M  V30 34 1 34 35
M  V30 35 1 35 36
M  V30 36 2 36 37
M  V30 37 1 36 38
M  V30 38 2 38 39
M  V30 39 1 39 40
M  V30 40 2 40 41
M  V30 41 2 23 42
M  V30 42 1 8 4
M  V30 43 1 16 11
M  V30 44 1 42 19
M  V30 45 1 18 6
M  V30 46 1 28 24
M  V30 47 1 41 31
M  V30 48 1 40 34
M  V30 49 1 3 43
M  V30 50 1 9 44
M  V30 51 1 9 45
M  V30 52 1 10 46 CFG=3
M  V30 53 1 12 47
M  V30 54 1 12 48
M  V30 55 1 13 49
M  V30 56 1 13 50
M  V30 57 1 15 51
M  V30 58 1 15 52
M  V30 59 1 16 53
M  V30 60 1 16 54
M  V30 61 1 17 55
M  V30 62 1 17 56
M  V30 63 1 18 57
M  V30 64 1 18 58
M  V30 65 1 20 59
M  V30 66 1 21 60
M  V30 67 1 22 61
M  V30 68 1 24 62 CFG=3
M  V30 69 1 25 63
M  V30 70 1 25 64
M  V30 71 1 26 65
M  V30 72 1 26 66
M  V30 73 1 27 67
M  V30 74 1 27 68
M  V30 75 1 32 69
M  V30 76 1 33 70
M  V30 77 1 35 71
M  V30 78 1 38 72
M  V30 79 1 39 73
M  V30 80 1 41 74
M  V30 81 1 42 75
M  V30 END BOND
M  V30 END CTAB
M  END
>  <Dataset>  (747) 
ChEMBL_Kinases

>  <Ligand_Instance>  (747) 
nan

>  <PDB_ID>  (747) 
nan

>  <Standardized_SMILES>  (747) 
O=C(Nc1nc2c(s1)C[C@@H](N1CCOCC1)CC2)c1cccc([C@H]2CCCN2C(=O)c2ccc3[nH]c(=O)ccc3c2)c1

>  <Name>  (747) 
nan

>  <Pocket>  (747) 
nan

>  <ATP_Site>  (747) 
nan

>  <Peripheral>  (747) 
nan

>  <Num_H_Atoms_ProtBoundConf>  (747) 
nan

>  <Num_Resolved_Atoms>  (747) 
nan

>  <Num_Not_Resolved_Atoms>  (747) 
nan

$$$$
CHEMBL523735
     RDKit          3D

  0  0  0  0  0  0  0  0  0  0999 V3000
M  V30 BEGIN CTAB
M  V30 COUNTS 38 41 0 0 0
M  V30 BEGIN ATOM
M  V30 1 N 0.356127 -5.246104 3.122327 0
M  V30 2 C 1.733839 -4.887468 2.910998 0
M  V30 3 O 2.720185 -5.507991 3.395424 0
M  V30 4 C 2.009034 -3.726050 2.078562 0
M  V30 5 C 3.303079 -3.333740 1.826553 0
M  V30 6 C 3.623109 -2.248495 1.049914 0
M  V30 7 C 2.619459 -1.468713 0.461907 0
M  V30 8 N 2.847947 -0.342201 -0.372332 0
M  V30 9 C 2.005723 0.670579 -0.842252 0
M  V30 10 N 2.510808 1.521511 -1.749482 0
M  V30 11 C 1.829143 2.543935 -2.276192 0
M  V30 12 C 0.540563 2.663651 -1.808304 0
M  V30 13 C -0.037204 1.823739 -0.877020 0
M  V30 14 C -1.406039 2.127934 -0.490986 0
M  V30 15 C -2.234972 3.105949 -1.027897 0
M  V30 16 N -3.418788 3.083959 -0.399822 0
M  V30 17 N -3.423399 2.145043 0.526108 0
M  V30 18 N -4.371094 1.780659 1.375526 0
M  V30 19 C -4.158406 0.784606 2.252940 0
M  V30 20 C -2.932199 0.110445 2.288934 0
M  V30 21 C -2.000107 0.550474 1.372737 0
M  V30 22 C -2.212222 1.566854 0.474414 0
M  V30 23 N 0.726224 0.824276 -0.405758 0
M  V30 24 C 1.334052 -1.888145 0.733476 0
M  V30 25 C 0.999204 -2.975514 1.511349 0
M  V30 26 H -0.457799 -4.886743 3.690903 0
M  V30 27 H 0.309581 -6.082306 2.489296 0
M  V30 28 H 4.130159 -3.887748 2.247992 0
M  V30 29 H 4.640571 -1.949154 0.857048 0
M  V30 30 H 3.872511 -0.322328 -0.657140 0
M  V30 31 H 2.252735 3.216357 -3.003814 0
M  V30 32 H -0.035009 3.501191 -2.233103 0
M  V30 33 H -2.011152 3.802613 -1.828281 0
M  V30 34 H -4.902051 0.441873 2.976682 0
M  V30 35 H -2.689589 -0.703345 2.969392 0
M  V30 36 H -1.057523 0.056556 1.383039 0
M  V30 37 H 0.470848 -1.392896 0.342089 0
M  V30 38 H -0.012630 -3.294395 1.716951 0
M  V30 END ATOM
M  V30 BEGIN BOND
M  V30 1 1 1 2
M  V30 2 2 2 3
M  V30 3 1 2 4
M  V30 4 2 4 5
M  V30 5 1 5 6
M  V30 6 2 6 7
M  V30 7 1 7 8
M  V30 8 1 8 9
M  V30 9 2 9 10
M  V30 10 1 10 11
M  V30 11 2 11 12
M  V30 12 1 12 13
M  V30 13 1 13 14
M  V30 14 1 14 15
M  V30 15 2 15 16
M  V30 16 1 16 17
M  V30 17 1 17 18
M  V30 18 2 18 19
M  V30 19 1 19 20
M  V30 20 2 20 21
M  V30 21 1 21 22
M  V30 22 2 13 23
M  V30 23 1 7 24
M  V30 24 2 24 25
M  V30 25 1 25 4
M  V30 26 1 23 9
M  V30 27 2 22 14
M  V30 28 1 22 17
M  V30 29 1 1 26
M  V30 30 1 1 27
M  V30 31 1 5 28
M  V30 32 1 6 29
M  V30 33 1 8 30
M  V30 34 1 11 31
M  V30 35 1 12 32
M  V30 36 1 15 33
M  V30 37 1 19 34
M  V30 38 1 20 35
M  V30 39 1 21 36
M  V30 40 1 24 37
M  V30 41 1 25 38
M  V30 END BOND
M  V30 END CTAB
M  END
>  <Dataset>  (748) 
ChEMBL_Kinases

>  <Ligand_Instance>  (748) 
nan

>  <PDB_ID>  (748) 
nan

>  <Standardized_SMILES>  (748) 
NC(=O)c1ccc(Nc2nccc(-c3cnn4ncccc34)n2)cc1

>  <Name>  (748) 
nan

>  <Pocket>  (748) 
nan

>  <ATP_Site>  (748) 
nan

>  <Peripheral>  (748) 
nan

>  <Num_H_Atoms_ProtBoundConf>  (748) 
nan

>  <Num_Resolved_Atoms>  (748) 
nan

>  <Num_Not_Resolved_Atoms>  (748) 
nan

$$$$
CHEMBL3730583
     RDKit          3D

  0  0  0  0  0  0  0  0  0  0999 V3000
M  V30 BEGIN CTAB
M  V30 COUNTS 46 49 0 0 0
M  V30 BEGIN ATOM
M  V30 1 C -0.477897 -5.388064 0.538668 0
M  V30 2 C 0.629460 -4.446927 0.813681 0
M  V30 3 N 1.907066 -4.732751 1.129703 0
M  V30 4 N 2.575250 -3.585284 1.296221 0
M  V30 5 C 1.739687 -2.538262 1.090361 0
M  V30 6 C 0.514902 -3.074176 0.786629 0
M  V30 7 C -0.650495 -2.240539 0.498826 0
M  V30 8 N -0.525694 -0.911150 0.530714 0
M  V30 9 C -1.595551 -0.155922 0.266404 0
M  V30 10 N -1.664703 1.259152 0.254017 0
M  V30 11 C -0.478104 1.997948 0.546220 0
M  V30 12 C 0.643963 1.780380 -0.411496 0 CFG=1
M  V30 13 N 0.277516 2.156975 -1.778997 0
M  V30 14 C 1.872523 2.606326 -0.041839 0
M  V30 15 C 2.300611 2.188377 1.321160 0
M  V30 16 C 3.216890 1.133682 1.428013 0
M  V30 17 C 3.679755 0.670196 2.655687 0
M  V30 18 C 3.180243 1.314357 3.769233 0
M  V30 19 C 2.277700 2.357839 3.741817 0
M  V30 20 C 1.858070 2.770025 2.493336 0
M  V30 21 C -2.794048 -0.852718 -0.030844 0
M  V30 22 S -4.462399 -0.223806 -0.443423 0
M  V30 23 C -5.229268 -1.974133 -0.634560 0
M  V30 24 C -4.133420 -2.762703 -0.363843 0
M  V30 25 C -2.920441 -2.235059 -0.063163 0
M  V30 26 N -1.786657 -2.895612 0.217057 0
M  V30 27 H -0.074548 -6.435941 0.453728 0
M  V30 28 H -1.131034 -5.397501 1.446868 0
M  V30 29 H -1.073349 -5.105997 -0.338028 0
M  V30 30 H 2.337659 -5.676860 1.235406 0
M  V30 31 H 2.034454 -1.512072 1.164292 0
M  V30 32 H -2.557225 1.747324 0.037319 0
M  V30 33 H -0.749014 3.074343 0.661888 0
M  V30 34 H -0.121055 1.656356 1.549464 0
M  V30 35 H 0.885968 0.703255 -0.448258 0
M  V30 36 H 1.200193 2.261439 -2.270335 0
M  V30 37 H -0.179018 1.330855 -2.258627 0
M  V30 38 H 1.652492 3.683509 -0.050841 0
M  V30 39 H 2.705767 2.380548 -0.735699 0
M  V30 40 H 3.622046 0.613564 0.565883 0
M  V30 41 H 4.386584 -0.144263 2.723870 0
M  V30 42 H 3.492077 1.012765 4.776995 0
M  V30 43 H 1.912834 2.833583 4.643586 0
M  V30 44 H 1.154994 3.579699 2.418084 0
M  V30 45 H -6.194960 -2.056424 -0.873722 0
M  V30 46 H -4.371530 -3.812801 -0.423554 0
M  V30 END ATOM
M  V30 BEGIN BOND
M  V30 1 1 1 2
M  V30 2 1 2 3
M  V30 3 1 3 4
M  V30 4 2 4 5
M  V30 5 1 5 6
M  V30 6 1 6 7
M  V30 7 2 7 8
M  V30 8 1 8 9
M  V30 9 1 9 10
M  V30 10 1 10 11
M  V30 11 1 11 12
M  V30 12 1 12 13
M  V30 13 1 12 14
M  V30 14 1 14 15
M  V30 15 2 15 16
M  V30 16 1 16 17
M  V30 17 2 17 18
M  V30 18 1 18 19
M  V30 19 2 19 20
M  V30 20 2 9 21
M  V30 21 1 21 22
M  V30 22 1 22 23
M  V30 23 2 23 24
M  V30 24 1 24 25
M  V30 25 2 25 26
M  V30 26 2 6 2
M  V30 27 1 26 7
M  V30 28 1 20 15
M  V30 29 1 25 21
M  V30 30 1 1 27
M  V30 31 1 1 28
M  V30 32 1 1 29
M  V30 33 1 3 30
M  V30 34 1 5 31
M  V30 35 1 10 32
M  V30 36 1 11 33
M  V30 37 1 11 34
M  V30 38 1 12 35 CFG=3
M  V30 39 1 13 36
M  V30 40 1 13 37
M  V30 41 1 14 38
M  V30 42 1 14 39
M  V30 43 1 16 40
M  V30 44 1 17 41
M  V30 45 1 18 42
M  V30 46 1 19 43
M  V30 47 1 20 44
M  V30 48 1 23 45
M  V30 49 1 24 46
M  V30 END BOND
M  V30 END CTAB
M  END
>  <Dataset>  (749) 
ChEMBL_Kinases

>  <Ligand_Instance>  (749) 
nan

>  <PDB_ID>  (749) 
nan

>  <Standardized_SMILES>  (749) 
Cc1[nH]ncc1-c1nc(NC[C@@H](N)Cc2ccccc2)c2sccc2n1

>  <Name>  (749) 
nan

>  <Pocket>  (749) 
nan

>  <ATP_Site>  (749) 
nan

>  <Peripheral>  (749) 
nan

>  <Num_H_Atoms_ProtBoundConf>  (749) 
nan

>  <Num_Resolved_Atoms>  (749) 
nan

>  <Num_Not_Resolved_Atoms>  (749) 
nan

$$$$
CHEMBL3730568
     RDKit          3D

  0  0  0  0  0  0  0  0  0  0999 V3000
M  V30 BEGIN CTAB
M  V30 COUNTS 63 66 0 0 0
M  V30 BEGIN ATOM
M  V30 1 C 2.165832 -3.519180 5.348442 0
M  V30 2 C 2.825818 -2.487621 6.234959 0
M  V30 3 C 1.962884 -1.279068 6.393037 0
M  V30 4 O 2.563603 -0.313110 7.220597 0
M  V30 5 C 1.856728 -0.662577 5.083023 0
M  V30 6 C 1.745961 -0.141741 3.975962 0
M  V30 7 C 1.602489 0.443669 2.682748 0
M  V30 8 C 1.856605 1.834686 2.676805 0
M  V30 9 S 1.562632 2.345677 0.875995 0
M  V30 10 C 1.156777 0.732387 0.354482 0
M  V30 11 C 0.772478 0.087215 -0.883080 0
M  V30 12 N 0.702317 1.190144 -1.782969 0
M  V30 13 C 0.455948 1.762632 -3.111609 0
M  V30 14 C -0.994117 1.492167 -3.504010 0 CFG=1
M  V30 15 N -1.782003 2.164774 -2.467673 0
M  V30 16 C -1.393591 2.019650 -4.843181 0
M  V30 17 C -2.821089 1.656666 -5.159213 0
M  V30 18 C -2.784599 0.343886 -5.673836 0
M  V30 19 C -3.934371 -0.336734 -6.099762 0
M  V30 20 C -5.222262 0.300818 -6.026641 0
M  V30 21 C -5.046297 1.544469 -5.509586 0
M  V30 22 C -4.024894 2.307877 -5.065942 0
M  V30 23 N 0.538508 -1.229322 -0.866457 0
M  V30 24 C 0.643337 -1.951950 0.234535 0
M  V30 25 C 0.322210 -3.367896 0.100531 0
M  V30 26 C -0.183896 -3.826692 -1.080780 0
M  V30 27 C -0.575972 -5.130988 -1.360401 0
M  V30 28 N -0.390695 -5.952424 -0.274823 0
M  V30 29 C 0.094572 -5.515162 0.867601 0
M  V30 30 C 0.476367 -4.240502 1.140784 0
M  V30 31 N 0.992900 -1.329932 1.344390 0
M  V30 32 C 1.256197 -0.033752 1.467386 0
M  V30 33 C 0.593508 -1.578194 6.983278 0
M  V30 34 C -0.189399 -0.251152 7.086558 0
M  V30 35 H 1.401284 -3.069727 4.679562 0
M  V30 36 H 1.740396 -4.311789 5.976780 0
M  V30 37 H 2.930913 -3.966387 4.689553 0
M  V30 38 H 3.782036 -2.155275 5.740524 0
M  V30 39 H 3.081446 -2.925250 7.199429 0
M  V30 40 H 3.492791 -0.645981 7.380990 0
M  V30 41 H 2.136214 2.735374 3.309146 0
M  V30 42 H 0.437701 0.387664 -2.427775 0
M  V30 43 H 0.591955 2.890633 -3.000178 0
M  V30 44 H 1.138160 1.464654 -3.860698 0
M  V30 45 H -1.202896 0.398843 -3.403921 0
M  V30 46 H -2.149078 3.081052 -2.841294 0
M  V30 47 H -1.258376 2.288187 -1.577484 0
M  V30 48 H -1.415871 3.157464 -4.829392 0
M  V30 49 H -0.706598 1.790100 -5.666475 0
M  V30 50 H -1.898270 -0.307257 -5.786194 0
M  V30 51 H -3.905493 -1.362150 -6.497602 0
M  V30 52 H -6.124830 -0.159076 -6.331384 0
M  V30 53 H -6.010037 2.102963 -5.415587 0
M  V30 54 H -3.906703 3.278207 -4.663205 0
M  V30 55 H -0.326258 -3.163733 -1.935790 0
M  V30 56 H -0.968301 -5.463792 -2.299438 0
M  V30 57 H 0.210350 -6.227315 1.685487 0
M  V30 58 H 0.876234 -3.810673 2.042810 0
M  V30 59 H -0.004566 -2.230527 6.306829 0
M  V30 60 H 0.621650 -2.070591 7.948933 0
M  V30 61 H -0.830223 -0.200178 7.971681 0
M  V30 62 H 0.582865 0.554726 7.123069 0
M  V30 63 H -0.776446 -0.071458 6.140770 0
M  V30 END ATOM
M  V30 BEGIN BOND
M  V30 1 1 1 2
M  V30 2 1 2 3
M  V30 3 1 3 4
M  V30 4 1 3 5
M  V30 5 3 5 6
M  V30 6 1 6 7
M  V30 7 2 7 8
M  V30 8 1 8 9
M  V30 9 1 9 10
M  V30 10 2 10 11
M  V30 11 1 11 12
M  V30 12 1 12 13
M  V30 13 1 13 14
M  V30 14 1 14 15
M  V30 15 1 14 16
M  V30 16 1 16 17
M  V30 17 2 17 18
M  V30 18 1 18 19
M  V30 19 2 19 20
M  V30 20 1 20 21
M  V30 21 2 21 22
M  V30 22 1 11 23
M  V30 23 2 23 24
M  V30 24 1 24 25
M  V30 25 2 25 26
M  V30 26 1 26 27
M  V30 27 2 27 28
M  V30 28 1 28 29
M  V30 29 2 29 30
M  V30 30 1 24 31
M  V30 31 2 31 32
M  V30 32 1 3 33
M  V30 33 1 33 34
M  V30 34 1 32 7
M  V30 35 1 32 10
M  V30 36 1 22 17
M  V30 37 1 30 25
M  V30 38 1 1 35
M  V30 39 1 1 36
M  V30 40 1 1 37
M  V30 41 1 2 38
M  V30 42 1 2 39
M  V30 43 1 4 40
M  V30 44 1 8 41
M  V30 45 1 12 42
M  V30 46 1 13 43
M  V30 47 1 13 44
M  V30 48 1 14 45 CFG=3
M  V30 49 1 15 46
M  V30 50 1 15 47
M  V30 51 1 16 48
M  V30 52 1 16 49
M  V30 53 1 18 50
M  V30 54 1 19 51
M  V30 55 1 20 52
M  V30 56 1 21 53
M  V30 57 1 22 54
M  V30 58 1 26 55
M  V30 59 1 27 56
M  V30 60 1 29 57
M  V30 61 1 30 58
M  V30 62 1 33 59
M  V30 63 1 33 60
M  V30 64 1 34 61
M  V30 65 1 34 62
M  V30 66 1 34 63
M  V30 END BOND
M  V30 END CTAB
M  END
>  <Dataset>  (750) 
ChEMBL_Kinases

>  <Ligand_Instance>  (750) 
nan

>  <PDB_ID>  (750) 
nan

>  <Standardized_SMILES>  (750) 
CCC(O)(C#Cc1csc2c(NC[C@@H](N)Cc3ccccc3)nc(-c3ccncc3)nc12)CC

>  <Name>  (750) 
nan

>  <Pocket>  (750) 
nan

>  <ATP_Site>  (750) 
nan

>  <Peripheral>  (750) 
nan

>  <Num_H_Atoms_ProtBoundConf>  (750) 
nan

>  <Num_Resolved_Atoms>  (750) 
nan

>  <Num_Not_Resolved_Atoms>  (750) 
nan

$$$$
CHEMBL523808
     RDKit          3D

  0  0  0  0  0  0  0  0  0  0999 V3000
M  V30 BEGIN CTAB
M  V30 COUNTS 55 59 0 0 0
M  V30 BEGIN ATOM
M  V30 1 C -1.270740 -0.783796 6.275027 0
M  V30 2 N -0.343345 -0.861276 5.194263 0
M  V30 3 C 0.970543 -0.404309 5.495998 0
M  V30 4 C 2.062204 -0.914842 4.626584 0
M  V30 5 N 1.915566 -2.191715 4.050732 0
M  V30 6 C 2.430913 -2.443936 2.776323 0
M  V30 7 C 1.954561 -1.666689 1.645449 0
M  V30 8 C 2.477463 -0.463170 1.150685 0
M  V30 9 C 1.926725 0.180805 0.059856 0
M  V30 10 C 0.825525 -0.362431 -0.577457 0
M  V30 11 C 0.076301 0.044119 -1.665734 0
M  V30 12 C 0.254975 1.233950 -2.489983 0
M  V30 13 C 0.134419 2.425140 -1.783956 0
M  V30 14 C 0.271940 3.661628 -2.397241 0
M  V30 15 N 0.529047 3.665495 -3.714724 0
M  V30 16 C 0.654132 2.549051 -4.438054 0
M  V30 17 C 0.520160 1.312351 -3.843053 0
M  V30 18 C -0.915047 -0.902095 -1.854121 0
M  V30 19 C -1.978300 -0.955969 -2.866215 0
M  V30 20 C -2.998315 -0.038740 -3.028073 0
M  V30 21 C -3.918458 -0.249657 -4.040484 0
M  V30 22 C -3.792903 -1.357774 -4.851045 0
M  V30 23 F -4.699008 -1.577706 -5.857672 0
M  V30 24 C -2.776778 -2.299018 -4.712750 0
M  V30 25 C -1.852332 -2.080174 -3.689810 0
M  V30 26 N -0.781978 -1.866976 -0.908139 0
M  V30 27 C 0.267675 -1.544499 -0.135706 0
M  V30 28 C 0.850648 -2.155426 0.959442 0
M  V30 29 C 0.776469 -2.883500 4.499408 0
M  V30 30 C -0.437268 -2.013772 4.364641 0
M  V30 31 H -0.861081 -0.124626 7.072001 0
M  V30 32 H -2.168056 -0.220417 5.889126 0
M  V30 33 H -1.583047 -1.767308 6.660607 0
M  V30 34 H 1.196040 -0.694499 6.546635 0
M  V30 35 H 0.941441 0.707048 5.492043 0
M  V30 36 H 3.038619 -0.919780 5.196152 0
M  V30 37 H 2.222354 -0.166641 3.812971 0
M  V30 38 H 3.546201 -2.327734 2.811026 0
M  V30 39 H 2.287697 -3.530939 2.550379 0
M  V30 40 H 3.336729 -0.089118 1.690128 0
M  V30 41 H 2.343790 1.097982 -0.298931 0
M  V30 42 H -0.075810 2.465804 -0.704513 0
M  V30 43 H 0.177396 4.584086 -1.842998 0
M  V30 44 H 0.859971 2.540081 -5.492674 0
M  V30 45 H 0.598964 0.345849 -4.318544 0
M  V30 46 H -3.006211 0.779840 -2.352443 0
M  V30 47 H -4.719404 0.469022 -4.168575 0
M  V30 48 H -2.713935 -3.149164 -5.365113 0
M  V30 49 H -1.084390 -2.823218 -3.611727 0
M  V30 50 H -1.385012 -2.711964 -0.795656 0
M  V30 51 H 0.374341 -3.094873 1.277980 0
M  V30 52 H 0.880660 -3.067873 5.602473 0
M  V30 53 H 0.633254 -3.894238 4.077198 0
M  V30 54 H -1.285137 -2.630842 4.786298 0
M  V30 55 H -0.745086 -1.772478 3.349212 0
M  V30 END ATOM
M  V30 BEGIN BOND
M  V30 1 1 1 2
M  V30 2 1 2 3
M  V30 3 1 3 4
M  V30 4 1 4 5
M  V30 5 1 5 6
M  V30 6 1 6 7
M  V30 7 2 7 8
M  V30 8 1 8 9
M  V30 9 2 9 10
M  V30 10 1 10 11
M  V30 11 1 11 12
M  V30 12 2 12 13
M  V30 13 1 13 14
M  V30 14 2 14 15
M  V30 15 1 15 16
M  V30 16 2 16 17
M  V30 17 2 11 18
M  V30 18 1 18 19
M  V30 19 2 19 20
M  V30 20 1 20 21
M  V30 21 2 21 22
M  V30 22 1 22 23
M  V30 23 1 22 24
M  V30 24 2 24 25
M  V30 25 1 18 26
M  V30 26 1 26 27
M  V30 27 2 27 28
M  V30 28 1 5 29
M  V30 29 1 29 30
M  V30 30 1 30 2
M  V30 31 1 28 7
M  V30 32 1 27 10
M  V30 33 1 17 12
M  V30 34 1 25 19
M  V30 35 1 1 31
M  V30 36 1 1 32
M  V30 37 1 1 33
M  V30 38 1 3 34
M  V30 39 1 3 35
M  V30 40 1 4 36
M  V30 41 1 4 37
M  V30 42 1 6 38
M  V30 43 1 6 39
M  V30 44 1 8 40
M  V30 45 1 9 41
M  V30 46 1 13 42
M  V30 47 1 14 43
M  V30 48 1 16 44
M  V30 49 1 17 45
M  V30 50 1 20 46
M  V30 51 1 21 47
M  V30 52 1 24 48
M  V30 53 1 25 49
M  V30 54 1 26 50
M  V30 55 1 28 51
M  V30 56 1 29 52
M  V30 57 1 29 53
M  V30 58 1 30 54
M  V30 59 1 30 55
M  V30 END BOND
M  V30 END CTAB
M  END
>  <Dataset>  (751) 
ChEMBL_Kinases

>  <Ligand_Instance>  (751) 
nan

>  <PDB_ID>  (751) 
nan

>  <Standardized_SMILES>  (751) 
CN1CCN(Cc2ccc3c(-c4ccncc4)c(-c4ccc(F)cc4)[nH]c3c2)CC1

>  <Name>  (751) 
nan

>  <Pocket>  (751) 
nan

>  <ATP_Site>  (751) 
nan

>  <Peripheral>  (751) 
nan

>  <Num_H_Atoms_ProtBoundConf>  (751) 
nan

>  <Num_Resolved_Atoms>  (751) 
nan

>  <Num_Not_Resolved_Atoms>  (751) 
nan

$$$$
CHEMBL3730909
     RDKit          3D

  0  0  0  0  0  0  0  0  0  0999 V3000
M  V30 BEGIN CTAB
M  V30 COUNTS 44 46 0 0 0
M  V30 BEGIN ATOM
M  V30 1 C 0.336471 -4.455533 2.530496 0
M  V30 2 C -0.600071 -3.691074 1.600289 0
M  V30 3 C 0.141092 -3.082013 0.475306 0
M  V30 4 C 0.423242 -4.049453 -0.524232 0
M  V30 5 C 0.185462 -5.463364 -0.692303 0
M  V30 6 S 1.274026 -3.150859 -1.797170 0
M  V30 7 C 1.213796 -1.538051 -0.938074 0
M  V30 8 N 1.694631 -0.329938 -1.325170 0
M  V30 9 C 1.553392 0.740459 -0.535557 0
M  V30 10 C 2.082811 2.004710 -0.993695 0
M  V30 11 C 2.680009 2.108045 -2.234125 0
M  V30 12 C 3.199121 3.269119 -2.739398 0
M  V30 13 N 3.125045 4.378332 -1.985420 0
M  V30 14 C 2.559748 4.361916 -0.767485 0
M  V30 15 C 2.045487 3.182284 -0.282424 0
M  V30 16 N 0.925775 0.477211 0.594618 0
M  V30 17 C 0.434892 -0.681752 1.025513 0
M  V30 18 N -0.107671 -0.633527 2.336953 0
M  V30 19 C -0.229288 0.591217 3.080406 0
M  V30 20 C -1.277884 1.536653 2.578570 0 CFG=2
M  V30 21 C -2.673336 0.901949 2.614367 0
M  V30 22 N -0.992178 2.196464 1.347281 0
M  V30 23 C 0.555297 -1.801057 0.247330 0
M  V30 24 H -0.033564 -5.471713 2.766600 0
M  V30 25 H 0.454653 -3.938177 3.521599 0
M  V30 26 H 1.378084 -4.462212 2.092770 0
M  V30 27 H -1.238003 -3.043130 2.183508 0
M  V30 28 H -1.367623 -4.464436 1.202624 0
M  V30 29 H 0.999850 -6.118812 -0.323239 0
M  V30 30 H -0.769976 -5.749715 -0.208451 0
M  V30 31 H 0.065717 -5.707269 -1.766851 0
M  V30 32 H 2.745669 1.215879 -2.853614 0
M  V30 33 H 3.655780 3.252903 -3.739686 0
M  V30 34 H 2.488594 5.254815 -0.135244 0
M  V30 35 H 1.593837 3.150761 0.689117 0
M  V30 36 H -0.485539 -1.296444 3.029752 0
M  V30 37 H 0.747115 1.139078 2.969379 0
M  V30 38 H -0.376400 0.456679 4.147937 0
M  V30 39 H -1.346101 2.344534 3.367979 0
M  V30 40 H -3.444670 1.645073 2.966991 0
M  V30 41 H -2.668741 0.126115 3.412326 0
M  V30 42 H -3.009531 0.565653 1.636753 0
M  V30 43 H -1.897877 2.364496 0.807288 0
M  V30 44 H -0.643254 3.193364 1.493976 0
M  V30 END ATOM
M  V30 BEGIN BOND
M  V30 1 1 1 2
M  V30 2 1 2 3
M  V30 3 2 3 4
M  V30 4 1 4 5
M  V30 5 1 4 6
M  V30 6 1 6 7
M  V30 7 2 7 8
M  V30 8 1 8 9
M  V30 9 1 9 10
M  V30 10 2 10 11
M  V30 11 1 11 12
M  V30 12 2 12 13
M  V30 13 1 13 14
M  V30 14 2 14 15
M  V30 15 2 9 16
M  V30 16 1 16 17
M  V30 17 1 17 18
M  V30 18 1 18 19
M  V30 19 1 19 20
M  V30 20 1 20 21
M  V30 21 1 20 22
M  V30 22 2 17 23
M  V30 23 1 23 3
M  V30 24 1 23 7
M  V30 25 1 15 10
M  V30 26 1 1 24
M  V30 27 1 1 25
M  V30 28 1 1 26
M  V30 29 1 2 27
M  V30 30 1 2 28
M  V30 31 1 5 29
M  V30 32 1 5 30
M  V30 33 1 5 31
M  V30 34 1 11 32
M  V30 35 1 12 33
M  V30 36 1 14 34
M  V30 37 1 15 35
M  V30 38 1 18 36
M  V30 39 1 19 37
M  V30 40 1 19 38
M  V30 41 1 20 39 CFG=1
M  V30 42 1 21 40
M  V30 43 1 21 41
M  V30 44 1 21 42
M  V30 45 1 22 43
M  V30 46 1 22 44
M  V30 END BOND
M  V30 END CTAB
M  END
>  <Dataset>  (752) 
ChEMBL_Kinases

>  <Ligand_Instance>  (752) 
nan

>  <PDB_ID>  (752) 
nan

>  <Standardized_SMILES>  (752) 
CCc1c(C)sc2nc(-c3ccncc3)nc(NC[C@H](C)N)c12

>  <Name>  (752) 
nan

>  <Pocket>  (752) 
nan

>  <ATP_Site>  (752) 
nan

>  <Peripheral>  (752) 
nan

>  <Num_H_Atoms_ProtBoundConf>  (752) 
nan

>  <Num_Resolved_Atoms>  (752) 
nan

>  <Num_Not_Resolved_Atoms>  (752) 
nan

$$$$
CHEMBL3730554
     RDKit          3D

  0  0  0  0  0  0  0  0  0  0999 V3000
M  V30 BEGIN CTAB
M  V30 COUNTS 54 58 0 0 0
M  V30 BEGIN ATOM
M  V30 1 N 1.602533 -3.484977 -1.297478 0
M  V30 2 C 0.860763 -2.281007 -0.918057 0 CFG=2
M  V30 3 C 0.695170 -2.271822 0.568542 0
M  V30 4 O 0.002910 -1.178050 1.081756 0
M  V30 5 C 0.401431 0.142097 0.933781 0
M  V30 6 N 1.522447 0.395751 0.255826 0
M  V30 7 C 2.049771 1.602722 0.019151 0
M  V30 8 C 3.272056 1.888049 -0.719627 0
M  V30 9 C 3.967256 0.810565 -1.234089 0
M  V30 10 C 5.134522 1.056666 -1.941752 0
M  V30 11 N 5.629245 2.303260 -2.154902 0
M  V30 12 C 4.913887 3.315231 -1.632867 0
M  V30 13 C 3.744177 3.169630 -0.916042 0
M  V30 14 N 1.378942 2.631228 0.514115 0
M  V30 15 C 0.225577 2.480215 1.219969 0
M  V30 16 S -0.933539 3.613231 2.026832 0
M  V30 17 C -2.080821 2.242280 2.637041 0
M  V30 18 C -1.465801 1.117737 2.169200 0
M  V30 19 C -0.306928 1.199359 1.454266 0
M  V30 20 C -2.332327 0.006094 2.628435 0
M  V30 21 C -2.583702 0.084418 4.111277 0
M  V30 22 C -3.365133 1.312228 4.465478 0
M  V30 23 C -3.276472 2.364636 3.395089 0
M  V30 24 C -0.519123 -2.367314 -1.553127 0
M  V30 25 C -1.242761 -3.570011 -1.078363 0
M  V30 26 C -1.050523 -4.720023 -1.844890 0
M  V30 27 C -1.646827 -5.948323 -1.557226 0
M  V30 28 C -2.475020 -6.018720 -0.444859 0
M  V30 29 C -2.663627 -4.894010 0.305642 0
M  V30 30 C -2.071880 -3.674984 0.020205 0
M  V30 31 H 2.470046 -3.456853 -0.725694 0
M  V30 32 H 1.785659 -3.500395 -2.328653 0
M  V30 33 H 1.394528 -1.399967 -1.299278 0
M  V30 34 H 1.694201 -2.281472 1.081692 0
M  V30 35 H 0.177566 -3.181154 0.897930 0
M  V30 36 H 3.597340 -0.196004 -1.080317 0
M  V30 37 H 5.666335 0.195653 -2.338068 0
M  V30 38 H 5.337228 4.310031 -1.820793 0
M  V30 39 H 3.202386 4.014654 -0.514733 0
M  V30 40 H -3.289214 0.076040 2.075405 0
M  V30 41 H -1.889344 -0.985216 2.435022 0
M  V30 42 H -1.637526 -0.022100 4.663652 0
M  V30 43 H -3.208479 -0.799231 4.356293 0
M  V30 44 H -2.969693 1.699690 5.426085 0
M  V30 45 H -4.417726 1.079031 4.636634 0
M  V30 46 H -4.176031 2.291617 2.752726 0
M  V30 47 H -3.381174 3.345828 3.945426 0
M  V30 48 H -0.476579 -2.368806 -2.649241 0
M  V30 49 H -1.062807 -1.440736 -1.230578 0
M  V30 50 H -0.412999 -4.716664 -2.723343 0
M  V30 51 H -1.468580 -6.809994 -2.178891 0
M  V30 52 H -2.926245 -6.975145 -0.238988 0
M  V30 53 H -3.311012 -4.950629 1.174471 0
M  V30 54 H -2.193129 -2.777789 0.578616 0
M  V30 END ATOM
M  V30 BEGIN BOND
M  V30 1 1 1 2
M  V30 2 1 2 3
M  V30 3 1 3 4
M  V30 4 1 4 5
M  V30 5 2 5 6
M  V30 6 1 6 7
M  V30 7 1 7 8
M  V30 8 2 8 9
M  V30 9 1 9 10
M  V30 10 2 10 11
M  V30 11 1 11 12
M  V30 12 2 12 13
M  V30 13 2 7 14
M  V30 14 1 14 15
M  V30 15 1 15 16
M  V30 16 1 16 17
M  V30 17 2 17 18
M  V30 18 1 18 19
M  V30 19 1 18 20
M  V30 20 1 20 21
M  V30 21 1 21 22
M  V30 22 1 22 23
M  V30 23 1 2 24
M  V30 24 1 24 25
M  V30 25 2 25 26
M  V30 26 1 26 27
M  V30 27 2 27 28
M  V30 28 1 28 29
M  V30 29 2 29 30
M  V30 30 1 19 5
M  V30 31 1 30 25
M  V30 32 1 13 8
M  V30 33 2 19 15
M  V30 34 1 23 17
M  V30 35 1 1 31
M  V30 36 1 1 32
M  V30 37 1 2 33 CFG=3
M  V30 38 1 3 34
M  V30 39 1 3 35
M  V30 40 1 9 36
M  V30 41 1 10 37
M  V30 42 1 12 38
M  V30 43 1 13 39
M  V30 44 1 20 40
M  V30 45 1 20 41
M  V30 46 1 21 42
M  V30 47 1 21 43
M  V30 48 1 22 44
M  V30 49 1 22 45
M  V30 50 1 23 46
M  V30 51 1 23 47
M  V30 52 1 24 48
M  V30 53 1 24 49
M  V30 54 1 26 50
M  V30 55 1 27 51
M  V30 56 1 28 52
M  V30 57 1 29 53
M  V30 58 1 30 54
M  V30 END BOND
M  V30 END CTAB
M  END
>  <Dataset>  (753) 
ChEMBL_Kinases

>  <Ligand_Instance>  (753) 
nan

>  <PDB_ID>  (753) 
nan

>  <Standardized_SMILES>  (753) 
N[C@H](COc1nc(-c2ccncc2)nc2sc3c(c12)CCCC3)Cc1ccccc1

>  <Name>  (753) 
nan

>  <Pocket>  (753) 
nan

>  <ATP_Site>  (753) 
nan

>  <Peripheral>  (753) 
nan

>  <Num_H_Atoms_ProtBoundConf>  (753) 
nan

>  <Num_Resolved_Atoms>  (753) 
nan

>  <Num_Not_Resolved_Atoms>  (753) 
nan

$$$$
CHEMBL3730528
     RDKit          3D

  0  0  0  0  0  0  0  0  0  0999 V3000
M  V30 BEGIN CTAB
M  V30 COUNTS 41 44 0 0 0
M  V30 BEGIN ATOM
M  V30 1 C 3.423669 -5.946554 3.298871 0
M  V30 2 C 2.894759 -4.940467 2.896619 0
M  V30 3 C 2.283418 -3.755875 2.448614 0
M  V30 4 S 2.230047 -3.254724 0.720222 0
M  V30 5 C 1.327799 -1.729153 1.004382 0
M  V30 6 C 0.896419 -0.760649 0.124493 0
M  V30 7 N 1.179796 -0.939947 -1.235350 0
M  V30 8 C 0.726305 0.074645 -2.151594 0 CFG=2
M  V30 9 C -0.760560 0.207515 -2.095995 0
M  V30 10 C -1.243249 -0.410141 -3.367832 0
M  V30 11 N -0.168362 -0.350052 -4.309391 0
M  V30 12 C 1.059543 -0.280248 -3.580341 0
M  V30 13 N 0.229211 0.303880 0.604676 0
M  V30 14 C 0.035529 0.328152 1.953556 0
M  V30 15 C -0.682492 1.441295 2.608348 0
M  V30 16 C -1.140762 2.444494 1.783324 0
M  V30 17 C -1.825672 3.532746 2.295864 0
M  V30 18 N -2.059712 3.630181 3.636323 0
M  V30 19 C -1.606756 2.639789 4.446755 0
M  V30 20 C -0.922832 1.549344 3.950928 0
M  V30 21 N 0.458696 -0.618881 2.803781 0
M  V30 22 C 1.130869 -1.709006 2.395098 0
M  V30 23 C 1.626491 -2.754452 3.119910 0
M  V30 24 C 1.500661 -2.879835 4.595602 0
M  V30 25 H 3.901136 -6.821670 3.660081 0
M  V30 26 H 1.696926 -1.763650 -1.606852 0
M  V30 27 H 1.166725 1.068536 -1.924510 0
M  V30 28 H -1.072019 1.285028 -2.064826 0
M  V30 29 H -1.152633 -0.348153 -1.217822 0
M  V30 30 H -1.518250 -1.479511 -3.248444 0
M  V30 31 H -2.153983 0.139309 -3.746999 0
M  V30 32 H -0.281550 0.351236 -5.061108 0
M  V30 33 H 1.745443 0.460261 -4.045677 0
M  V30 34 H 1.611823 -1.236896 -3.571422 0
M  V30 35 H -0.982725 2.417333 0.714146 0
M  V30 36 H -2.175683 4.310290 1.617661 0
M  V30 37 H -1.768378 2.670014 5.529709 0
M  V30 38 H -0.559921 0.760791 4.579209 0
M  V30 39 H 0.983117 -3.812560 4.887813 0
M  V30 40 H 1.011835 -1.994366 5.049497 0
M  V30 41 H 2.508158 -2.924101 5.057764 0
M  V30 END ATOM
M  V30 BEGIN BOND
M  V30 1 3 1 2
M  V30 2 1 2 3
M  V30 3 1 3 4
M  V30 4 1 4 5
M  V30 5 2 5 6
M  V30 6 1 6 7
M  V30 7 1 7 8
M  V30 8 1 8 9
M  V30 9 1 9 10
M  V30 10 1 10 11
M  V30 11 1 11 12
M  V30 12 1 6 13
M  V30 13 2 13 14
M  V30 14 1 14 15
M  V30 15 2 15 16
M  V30 16 1 16 17
M  V30 17 2 17 18
M  V30 18 1 18 19
M  V30 19 2 19 20
M  V30 20 1 14 21
M  V30 21 2 21 22
M  V30 22 1 22 23
M  V30 23 1 23 24
M  V30 24 2 23 3
M  V30 25 1 22 5
M  V30 26 1 12 8
M  V30 27 1 20 15
M  V30 28 1 1 25
M  V30 29 1 7 26
M  V30 30 1 8 27 CFG=1
M  V30 31 1 9 28
M  V30 32 1 9 29
M  V30 33 1 10 30
M  V30 34 1 10 31
M  V30 35 1 11 32
M  V30 36 1 12 33
M  V30 37 1 12 34
M  V30 38 1 16 35
M  V30 39 1 17 36
M  V30 40 1 19 37
M  V30 41 1 20 38
M  V30 42 1 24 39
M  V30 43 1 24 40
M  V30 44 1 24 41
M  V30 END BOND
M  V30 END CTAB
M  END
>  <Dataset>  (754) 
ChEMBL_Kinases

>  <Ligand_Instance>  (754) 
nan

>  <PDB_ID>  (754) 
nan

>  <Standardized_SMILES>  (754) 
C#Cc1sc2c(N[C@@H]3CCNC3)nc(-c3ccncc3)nc2c1C

>  <Name>  (754) 
nan

>  <Pocket>  (754) 
nan

>  <ATP_Site>  (754) 
nan

>  <Peripheral>  (754) 
nan

>  <Num_H_Atoms_ProtBoundConf>  (754) 
nan

>  <Num_Resolved_Atoms>  (754) 
nan

>  <Num_Not_Resolved_Atoms>  (754) 
nan

$$$$
CHEMBL3730525
     RDKit          3D

  0  0  0  0  0  0  0  0  0  0999 V3000
M  V30 BEGIN CTAB
M  V30 COUNTS 51 54 0 0 0
M  V30 BEGIN ATOM
M  V30 1 N -0.016437 -3.202797 3.120391 0
M  V30 2 C -0.351869 -2.840807 1.774959 0 CFG=2
M  V30 3 C 0.565424 -1.727803 1.324790 0
M  V30 4 N 0.455603 -0.557478 2.142672 0
M  V30 5 C 1.298037 0.477796 1.736493 0
M  V30 6 N 2.159129 0.508257 0.719137 0
M  V30 7 C 2.843167 1.653711 0.567954 0
M  V30 8 C 3.806888 1.716775 -0.553532 0
M  V30 9 C 4.572311 2.815769 -0.829881 0
M  V30 10 C 5.466526 2.863397 -1.876802 0
M  V30 11 N 5.576997 1.774974 -2.647072 0
M  V30 12 C 4.833947 0.663306 -2.405058 0
M  V30 13 C 3.923471 0.601255 -1.347028 0
M  V30 14 N 2.750144 2.742140 1.317542 0
M  V30 15 C 1.917602 2.822770 2.365667 0
M  V30 16 C 1.779336 3.901150 3.163763 0
M  V30 17 Br 2.672432 5.582299 3.075210 0
M  V30 18 C 0.829656 3.795627 4.243623 0
M  V30 19 S 0.175132 2.022851 3.991760 0
M  V30 20 C 1.183796 1.672582 2.573909 0
M  V30 21 C -1.801823 -2.434908 1.741390 0
M  V30 22 C -2.254500 -2.033565 0.360463 0
M  V30 23 C -3.696711 -1.644147 0.398671 0
M  V30 24 C -4.669287 -2.769265 0.298405 0
M  V30 25 C -4.326965 -3.778804 -0.756960 0
M  V30 26 C -3.199273 -3.252559 -1.590933 0
M  V30 27 C -1.999670 -3.094760 -0.664088 0
M  V30 28 H 0.750649 -3.873193 3.217213 0
M  V30 29 H -0.810801 -3.330765 3.754402 0
M  V30 30 H -0.211271 -3.685007 1.098310 0
M  V30 31 H 0.400659 -1.481215 0.259320 0
M  V30 32 H 1.598736 -2.166444 1.355552 0
M  V30 33 H -0.198082 -0.524790 2.947791 0
M  V30 34 H 4.436021 3.653276 -0.175550 0
M  V30 35 H 6.024690 3.768066 -2.017812 0
M  V30 36 H 4.911617 -0.222389 -3.017161 0
M  V30 37 H 3.350352 -0.316725 -1.195817 0
M  V30 38 H 0.510641 4.476313 5.025974 0
M  V30 39 H -2.025236 -1.620780 2.438243 0
M  V30 40 H -2.379864 -3.339455 2.028148 0
M  V30 41 H -1.681785 -1.095334 0.121053 0
M  V30 42 H -3.891117 -0.949566 -0.459877 0
M  V30 43 H -3.902590 -1.063233 1.313624 0
M  V30 44 H -4.866533 -3.273867 1.272853 0
M  V30 45 H -5.656667 -2.323593 0.015591 0
M  V30 46 H -3.987658 -4.699413 -0.236871 0
M  V30 47 H -5.209030 -4.047294 -1.367530 0
M  V30 48 H -3.460828 -2.342752 -2.134140 0
M  V30 49 H -2.914145 -4.040451 -2.331511 0
M  V30 50 H -1.130282 -2.819074 -1.276411 0
M  V30 51 H -1.902834 -4.086784 -0.156179 0
M  V30 END ATOM
M  V30 BEGIN BOND
M  V30 1 1 1 2
M  V30 2 1 2 3
M  V30 3 1 3 4
M  V30 4 1 4 5
M  V30 5 2 5 6
M  V30 6 1 6 7
M  V30 7 1 7 8
M  V30 8 2 8 9
M  V30 9 1 9 10
M  V30 10 2 10 11
M  V30 11 1 11 12
M  V30 12 2 12 13
M  V30 13 2 7 14
M  V30 14 1 14 15
M  V30 15 1 15 16
M  V30 16 1 16 17
M  V30 17 2 16 18
M  V30 18 1 18 19
M  V30 19 1 19 20
M  V30 20 1 2 21
M  V30 21 1 21 22
M  V30 22 1 22 23
M  V30 23 1 23 24
M  V30 24 1 24 25
M  V30 25 1 25 26
M  V30 26 1 26 27
M  V30 27 1 20 5
M  V30 28 1 27 22
M  V30 29 1 13 8
M  V30 30 2 20 15
M  V30 31 1 1 28
M  V30 32 1 1 29
M  V30 33 1 2 30 CFG=3
M  V30 34 1 3 31
M  V30 35 1 3 32
M  V30 36 1 4 33
M  V30 37 1 9 34
M  V30 38 1 10 35
M  V30 39 1 12 36
M  V30 40 1 13 37
M  V30 41 1 18 38
M  V30 42 1 21 39
M  V30 43 1 21 40
M  V30 44 1 22 41
M  V30 45 1 23 42
M  V30 46 1 23 43
M  V30 47 1 24 44
M  V30 48 1 24 45
M  V30 49 1 25 46
M  V30 50 1 25 47
M  V30 51 1 26 48
M  V30 52 1 26 49
M  V30 53 1 27 50
M  V30 54 1 27 51
M  V30 END BOND
M  V30 END CTAB
M  END
>  <Dataset>  (755) 
ChEMBL_Kinases

>  <Ligand_Instance>  (755) 
nan

>  <PDB_ID>  (755) 
nan

>  <Standardized_SMILES>  (755) 
N[C@H](CNc1nc(-c2ccncc2)nc2c(Br)csc12)CC1CCCCC1

>  <Name>  (755) 
nan

>  <Pocket>  (755) 
nan

>  <ATP_Site>  (755) 
nan

>  <Peripheral>  (755) 
nan

>  <Num_H_Atoms_ProtBoundConf>  (755) 
nan

>  <Num_Resolved_Atoms>  (755) 
nan

>  <Num_Not_Resolved_Atoms>  (755) 
nan

$$$$
CHEMBL3730515
     RDKit          3D

  0  0  0  0  0  0  0  0  0  0999 V3000
M  V30 BEGIN CTAB
M  V30 COUNTS 53 56 0 0 0
M  V30 BEGIN ATOM
M  V30 1 C 3.781801 -2.841587 6.770091 0
M  V30 2 C 3.442773 -1.895454 5.693467 0
M  V30 3 O 3.113049 -0.709130 5.902155 0
M  V30 4 N 3.498373 -2.372350 4.355146 0
M  V30 5 C 3.273319 -1.871997 3.040929 0
M  V30 6 C 4.388281 -1.320230 2.437327 0
M  V30 7 C 4.228965 -0.819717 1.161312 0
M  V30 8 C 3.027438 -0.850473 0.485882 0
M  V30 9 C 1.918426 -1.402266 1.093101 0
M  V30 10 C 0.520256 -1.571133 0.611344 0 CFG=1
M  V30 11 C 0.265533 -1.011260 -0.745218 0
M  V30 12 N -0.931049 -1.696346 -1.273578 0
M  V30 13 C -2.088886 -0.887765 -1.428314 0
M  V30 14 N -1.893529 0.414271 -1.153030 0
M  V30 15 C -2.871323 1.332848 -1.241816 0
M  V30 16 C -2.553750 2.704312 -0.922386 0
M  V30 17 C -1.275936 3.031169 -0.528054 0
M  V30 18 C -0.897523 4.318424 -0.208413 0
M  V30 19 N -1.774256 5.339354 -0.266716 0
M  V30 20 C -3.056071 5.088507 -0.649085 0
M  V30 21 C -3.378308 3.795249 -0.954937 0
M  V30 22 F -4.658336 3.592329 -1.329658 0
M  V30 23 C -4.090627 0.849049 -1.634898 0
M  V30 24 C -4.349392 -0.467141 -1.928375 0
M  V30 25 O -5.480266 -0.883844 -2.287219 0
M  V30 26 N -3.296918 -1.331281 -1.810970 0
M  V30 27 C -3.514766 -2.729472 -2.094688 0
M  V30 28 C -0.491793 -3.050541 -1.478891 0
M  V30 29 C -0.378698 -3.640853 -0.079316 0
M  V30 30 O 0.004425 -2.804494 0.890883 0
M  V30 31 C 2.056954 -1.913804 2.382173 0
M  V30 32 H 3.922901 -3.859650 6.410921 0
M  V30 33 H 4.605500 -2.505345 7.433896 0
M  V30 34 H 2.867262 -2.884627 7.431568 0
M  V30 35 H 3.775394 -3.372437 4.164820 0
M  V30 36 H 5.377694 -1.234981 2.852277 0
M  V30 37 H 5.050625 -0.372097 0.619855 0
M  V30 38 H 2.814336 -0.488644 -0.495112 0
M  V30 39 H -0.072802 -0.882247 1.292741 0
M  V30 40 H 0.129206 0.088545 -0.752631 0
M  V30 41 H 1.148212 -1.208028 -1.386060 0
M  V30 42 H -0.449170 2.347721 -0.425085 0
M  V30 43 H 0.070342 4.623314 0.100069 0
M  V30 44 H -3.773922 5.892810 -0.702216 0
M  V30 45 H -4.926632 1.484143 -1.736693 0
M  V30 46 H -3.137719 -3.079739 -3.053224 0
M  V30 47 H -3.225925 -3.336507 -1.213052 0
M  V30 48 H -4.644508 -2.859395 -2.189778 0
M  V30 49 H -1.123748 -3.685958 -2.096590 0
M  V30 50 H 0.513691 -3.090899 -1.993472 0
M  V30 51 H 0.222541 -4.594686 -0.152551 0
M  V30 52 H -1.395300 -4.018577 0.163430 0
M  V30 53 H 1.299926 -2.371068 2.986242 0
M  V30 END ATOM
M  V30 BEGIN BOND
M  V30 1 1 1 2
M  V30 2 2 2 3
M  V30 3 1 2 4
M  V30 4 1 4 5
M  V30 5 2 5 6
M  V30 6 1 6 7
M  V30 7 2 7 8
M  V30 8 1 8 9
M  V30 9 1 9 10
M  V30 10 1 10 11
M  V30 11 1 11 12
M  V30 12 1 12 13
M  V30 13 2 13 14
M  V30 14 1 14 15
M  V30 15 1 15 16
M  V30 16 2 16 17
M  V30 17 1 17 18
M  V30 18 2 18 19
M  V30 19 1 19 20
M  V30 20 2 20 21
M  V30 21 1 21 22
M  V30 22 2 15 23
M  V30 23 1 23 24
M  V30 24 2 24 25
M  V30 25 1 24 26
M  V30 26 1 26 27
M  V30 27 1 12 28
M  V30 28 1 28 29
M  V30 29 1 29 30
M  V30 30 2 9 31
M  V30 31 1 31 5
M  V30 32 1 30 10
M  V30 33 1 26 13
M  V30 34 1 21 16
M  V30 35 1 1 32
M  V30 36 1 1 33
M  V30 37 1 1 34
M  V30 38 1 4 35
M  V30 39 1 6 36
M  V30 40 1 7 37
M  V30 41 1 8 38
M  V30 42 1 10 39 CFG=1
M  V30 43 1 11 40
M  V30 44 1 11 41
M  V30 45 1 17 42
M  V30 46 1 18 43
M  V30 47 1 20 44
M  V30 48 1 23 45
M  V30 49 1 27 46
M  V30 50 1 27 47
M  V30 51 1 27 48
M  V30 52 1 28 49
M  V30 53 1 28 50
M  V30 54 1 29 51
M  V30 55 1 29 52
M  V30 56 1 31 53
M  V30 END BOND
M  V30 END CTAB
M  END
>  <Dataset>  (756) 
ChEMBL_Kinases

>  <Ligand_Instance>  (756) 
nan

>  <PDB_ID>  (756) 
nan

>  <Standardized_SMILES>  (756) 
CC(=O)Nc1cccc([C@H]2CN(c3nc(-c4ccncc4F)cc(=O)n3C)CCO2)c1

>  <Name>  (756) 
nan

>  <Pocket>  (756) 
nan

>  <ATP_Site>  (756) 
nan

>  <Peripheral>  (756) 
nan

>  <Num_H_Atoms_ProtBoundConf>  (756) 
nan

>  <Num_Resolved_Atoms>  (756) 
nan

>  <Num_Not_Resolved_Atoms>  (756) 
nan

$$$$
CHEMBL3730511
     RDKit          3D

  0  0  0  0  0  0  0  0  0  0999 V3000
M  V30 BEGIN CTAB
M  V30 COUNTS 44 47 0 0 0
M  V30 BEGIN ATOM
M  V30 1 C 1.110458 -6.298677 0.706794 0
M  V30 2 N 1.698103 -5.016978 1.102665 0
M  V30 3 C 0.654047 -4.218250 1.660620 0
M  V30 4 C -0.024445 -3.457704 0.494807 0
M  V30 5 C 0.857654 -2.307245 0.251967 0
M  V30 6 C 2.147999 -2.923040 -0.022214 0
M  V30 7 S 3.250561 -1.635480 -0.309410 0
M  V30 8 C 1.996467 -0.268662 -0.065950 0
M  V30 9 N 2.147753 1.081019 -0.139724 0
M  V30 10 C 1.092132 1.877724 0.075793 0
M  V30 11 C 1.296004 3.307110 -0.012215 0
M  V30 12 C 0.212994 4.133354 0.208619 0
M  V30 13 C 0.453543 5.488357 0.114419 0
M  V30 14 N 1.665491 5.996349 -0.174748 0
M  V30 15 C 2.719050 5.155636 -0.388493 0
M  V30 16 C 2.561467 3.768351 -0.312120 0
M  V30 17 N -0.008279 1.216421 0.344075 0
M  V30 18 C -0.208559 -0.096529 0.427813 0
M  V30 19 N -1.534118 -0.497945 0.729738 0
M  V30 20 C -2.577949 0.481078 0.942624 0
M  V30 21 C -2.298567 1.354415 2.152831 0
M  V30 22 N -2.199010 0.550055 3.355128 0
M  V30 23 C 0.846142 -0.944024 0.214200 0
M  V30 24 C 2.346793 -4.388712 -0.030506 0
M  V30 25 H 0.982683 -6.971630 1.577048 0
M  V30 26 H 0.112512 -6.180250 0.230687 0
M  V30 27 H 1.746175 -6.826828 -0.039232 0
M  V30 28 H 1.011671 -3.492929 2.414984 0
M  V30 29 H -0.095264 -4.890361 2.131658 0
M  V30 30 H -1.061240 -3.263582 0.729303 0
M  V30 31 H 0.053816 -4.183150 -0.382412 0
M  V30 32 H -0.747655 3.691951 0.438951 0
M  V30 33 H -0.384369 6.162396 0.284241 0
M  V30 34 H 3.643178 5.676227 -0.612905 0
M  V30 35 H 3.428381 3.167939 -0.490685 0
M  V30 36 H -2.049990 -1.376279 0.861796 0
M  V30 37 H -3.585153 0.080367 1.066771 0
M  V30 38 H -2.634774 1.162723 0.049506 0
M  V30 39 H -3.155219 2.075594 2.257185 0
M  V30 40 H -1.410866 1.976073 2.076881 0
M  V30 41 H -1.216269 0.543270 3.737164 0
M  V30 42 H -2.762757 1.015987 4.117117 0
M  V30 43 H 1.903796 -4.818546 -0.951781 0
M  V30 44 H 3.413499 -4.576413 0.054595 0
M  V30 END ATOM
M  V30 BEGIN BOND
M  V30 1 1 1 2
M  V30 2 1 2 3
M  V30 3 1 3 4
M  V30 4 1 4 5
M  V30 5 2 5 6
M  V30 6 1 6 7
M  V30 7 1 7 8
M  V30 8 2 8 9
M  V30 9 1 9 10
M  V30 10 1 10 11
M  V30 11 2 11 12
M  V30 12 1 12 13
M  V30 13 2 13 14
M  V30 14 1 14 15
M  V30 15 2 15 16
M  V30 16 2 10 17
M  V30 17 1 17 18
M  V30 18 1 18 19
M  V30 19 1 19 20
M  V30 20 1 20 21
M  V30 21 1 21 22
M  V30 22 2 18 23
M  V30 23 1 6 24
M  V30 24 1 24 2
M  V30 25 1 23 5
M  V30 26 1 23 8
M  V30 27 1 16 11
M  V30 28 1 1 25
M  V30 29 1 1 26
M  V30 30 1 1 27
M  V30 31 1 3 28
M  V30 32 1 3 29
M  V30 33 1 4 30
M  V30 34 1 4 31
M  V30 35 1 12 32
M  V30 36 1 13 33
M  V30 37 1 15 34
M  V30 38 1 16 35
M  V30 39 1 19 36
M  V30 40 1 20 37
M  V30 41 1 20 38
M  V30 42 1 21 39
M  V30 43 1 21 40
M  V30 44 1 22 41
M  V30 45 1 22 42
M  V30 46 1 24 43
M  V30 47 1 24 44
M  V30 END BOND
M  V30 END CTAB
M  END
>  <Dataset>  (757) 
ChEMBL_Kinases

>  <Ligand_Instance>  (757) 
nan

>  <PDB_ID>  (757) 
nan

>  <Standardized_SMILES>  (757) 
CN1CCc2c(sc3nc(-c4ccncc4)nc(NCCN)c23)C1

>  <Name>  (757) 
nan

>  <Pocket>  (757) 
nan

>  <ATP_Site>  (757) 
nan

>  <Peripheral>  (757) 
nan

>  <Num_H_Atoms_ProtBoundConf>  (757) 
nan

>  <Num_Resolved_Atoms>  (757) 
nan

>  <Num_Not_Resolved_Atoms>  (757) 
nan

$$$$
CHEMBL3730504
     RDKit          3D

  0  0  0  0  0  0  0  0  0  0999 V3000
M  V30 BEGIN CTAB
M  V30 COUNTS 37 40 0 0 0
M  V30 BEGIN ATOM
M  V30 1 O -0.989618 1.517407 5.222710 0
M  V30 2 C -0.242982 1.061043 4.289595 0
M  V30 3 N 1.145848 0.817251 4.411716 0
M  V30 4 C 1.802932 0.307322 3.258376 0
M  V30 5 N 2.874736 -0.374292 3.109914 0
M  V30 6 C 3.234900 -0.715820 1.777384 0
M  V30 7 C 3.241971 -2.111764 1.650451 0
M  V30 8 C 3.562964 -2.708929 0.431244 0
M  V30 9 C 3.880385 -1.954423 -0.675921 0
M  V30 10 C 3.864824 -0.577048 -0.518824 0
M  V30 11 C 3.551723 0.038899 0.672330 0
M  V30 12 Cl 3.496854 1.745754 0.991698 0
M  V30 13 S 0.699071 0.886424 1.936228 0
M  V30 14 C -0.807340 0.743248 2.955424 0
M  V30 15 C -2.039972 0.450904 2.575805 0
M  V30 16 C -2.310642 0.168693 1.146049 0
M  V30 17 C -3.398131 0.666149 0.449077 0
M  V30 18 C -3.573807 0.330464 -0.899313 0
M  V30 19 C -2.640181 -0.495255 -1.486101 0
M  V30 20 N -2.751790 -0.859064 -2.799552 0
M  V30 21 C -1.833434 -1.672293 -3.391438 0
M  V30 22 C -0.742255 -2.177403 -2.711240 0
M  V30 23 C -0.586347 -1.834222 -1.367095 0
M  V30 24 C -1.554871 -1.000264 -0.814642 0
M  V30 25 C -1.369421 -0.670656 0.535463 0
M  V30 26 H 1.667284 1.005522 5.321149 0
M  V30 27 H 3.014946 -2.862223 2.424475 0
M  V30 28 H 3.580420 -3.785692 0.285416 0
M  V30 29 H 4.137295 -2.376098 -1.644129 0
M  V30 30 H 4.105076 0.103753 -1.343095 0
M  V30 31 H -2.794156 0.437888 3.350345 0
M  V30 32 H -4.084269 1.308835 0.986312 0
M  V30 33 H -4.415292 0.713638 -1.439953 0
M  V30 34 H -1.891499 -1.977248 -4.427223 0
M  V30 35 H 0.030482 -2.822405 -3.092869 0
M  V30 36 H 0.253763 -2.205266 -0.786455 0
M  V30 37 H -0.521822 -1.079254 1.059662 0
M  V30 END ATOM
M  V30 BEGIN BOND
M  V30 1 2 1 2
M  V30 2 1 2 3
M  V30 3 1 3 4
M  V30 4 2 4 5
M  V30 5 1 5 6
M  V30 6 2 6 7
M  V30 7 1 7 8
M  V30 8 2 8 9
M  V30 9 1 9 10
M  V30 10 2 10 11
M  V30 11 1 11 12
M  V30 12 1 4 13
M  V30 13 1 13 14
M  V30 14 2 14 15
M  V30 15 1 15 16
M  V30 16 2 16 17
M  V30 17 1 17 18
M  V30 18 2 18 19
M  V30 19 1 19 20
M  V30 20 2 20 21
M  V30 21 1 21 22
M  V30 22 2 22 23
M  V30 23 1 23 24
M  V30 24 2 24 25
M  V30 25 1 14 2
M  V30 26 1 25 16
M  V30 27 1 11 6
M  V30 28 1 24 19
M  V30 29 1 3 26
M  V30 30 1 7 27
M  V30 31 1 8 28
M  V30 32 1 9 29
M  V30 33 1 10 30
M  V30 34 1 15 31
M  V30 35 1 17 32
M  V30 36 1 18 33
M  V30 37 1 21 34
M  V30 38 1 22 35
M  V30 39 1 23 36
M  V30 40 1 25 37
M  V30 END BOND
M  V30 END CTAB
M  END
>  <Dataset>  (758) 
ChEMBL_Kinases

>  <Ligand_Instance>  (758) 
nan

>  <PDB_ID>  (758) 
nan

>  <Standardized_SMILES>  (758) 
O=C1N/C(=N/c2ccccc2Cl)S/C1=C\c1ccc2ncccc2c1

>  <Name>  (758) 
nan

>  <Pocket>  (758) 
nan

>  <ATP_Site>  (758) 
nan

>  <Peripheral>  (758) 
nan

>  <Num_H_Atoms_ProtBoundConf>  (758) 
nan

>  <Num_Resolved_Atoms>  (758) 
nan

>  <Num_Not_Resolved_Atoms>  (758) 
nan

$$$$
CHEMBL3730501
     RDKit          3D

  0  0  0  0  0  0  0  0  0  0999 V3000
M  V30 BEGIN CTAB
M  V30 COUNTS 71 75 0 0 0
M  V30 BEGIN ATOM
M  V30 1 C 3.256522 2.653627 3.453281 0
M  V30 2 O 2.777511 3.814023 2.804645 0
M  V30 3 C 1.827132 3.779830 1.798479 0
M  V30 4 C 1.350940 4.920791 1.155433 0
M  V30 5 C 0.406578 4.836706 0.161831 0
M  V30 6 C -0.099756 3.625091 -0.231006 0
M  V30 7 C 0.333520 2.438558 0.371723 0
M  V30 8 C -0.119175 1.091957 0.047252 0
M  V30 9 C -1.195365 0.632608 0.753050 0
M  V30 10 C -2.027460 1.178739 1.779703 0
M  V30 11 C -1.334532 1.572812 3.058798 0
M  V30 12 C -3.119581 0.180340 2.156948 0
M  V30 13 C -2.766888 2.396848 1.264359 0
M  V30 14 S -1.450216 -1.079025 0.059128 0
M  V30 15 C -0.137759 -1.028868 -1.075548 0
M  V30 16 C 0.398578 -1.914063 -2.041568 0
M  V30 17 N -0.310196 -3.137437 -2.033905 0
M  V30 18 C -1.015533 -4.355015 -2.026356 0
M  V30 19 C -1.983131 -4.494508 -0.833320 0 CFG=1
M  V30 20 N -2.643982 -5.798265 -1.014015 0
M  V30 21 C -1.194500 -4.647297 0.474041 0
M  V30 22 C -2.091159 -4.798353 1.647705 0
M  V30 23 C -2.618367 -3.845066 2.490785 0
M  V30 24 C -3.444870 -4.174146 3.536367 0
M  V30 25 C -3.801875 -5.470844 3.813492 0
M  V30 26 C -3.302443 -6.464043 3.001225 0
M  V30 27 C -2.478705 -6.102395 1.964175 0
M  V30 28 N 1.448460 -1.530579 -2.781403 0
M  V30 29 C 1.964672 -0.312059 -2.583863 0
M  V30 30 C 3.103014 0.078297 -3.399085 0
M  V30 31 C 3.625414 -0.778450 -4.339474 0
M  V30 32 C 4.709374 -0.279932 -5.046303 0
M  V30 33 N 5.240727 0.942923 -4.857898 0
M  V30 34 C 4.726456 1.770592 -3.940731 0
M  V30 35 C 3.635918 1.322937 -3.200122 0
M  V30 36 N 1.434698 0.491093 -1.667695 0
M  V30 37 C 0.393544 0.221122 -0.874726 0
M  V30 38 C 1.286196 2.608994 1.363924 0
M  V30 39 H 2.420386 2.098463 3.881000 0
M  V30 40 H 4.005314 2.981150 4.211241 0
M  V30 41 H 3.832237 2.015981 2.736259 0
M  V30 42 H 1.736291 5.886811 1.448827 0
M  V30 43 H 0.032581 5.730119 -0.343314 0
M  V30 44 H -0.847579 3.486000 -1.009502 0
M  V30 45 H -2.018179 1.434457 3.899094 0
M  V30 46 H -0.355823 1.076746 3.200342 0
M  V30 47 H -1.104111 2.676717 2.994667 0
M  V30 48 H -3.998962 0.731412 2.526136 0
M  V30 49 H -2.748053 -0.563949 2.899139 0
M  V30 50 H -3.439138 -0.388340 1.260544 0
M  V30 51 H -2.713600 2.437857 0.156724 0
M  V30 52 H -3.850555 2.389463 1.511326 0
M  V30 53 H -2.279144 3.331981 1.651548 0
M  V30 54 H 0.250967 -3.576235 -2.844677 0
M  V30 55 H -1.666239 -4.505295 -2.949380 0
M  V30 56 H -0.419287 -5.299606 -1.952742 0
M  V30 57 H -2.659398 -3.672634 -0.772563 0
M  V30 58 H -2.731357 -6.030295 -2.020534 0
M  V30 59 H -3.558882 -5.778159 -0.496607 0
M  V30 60 H -0.512268 -3.812239 0.665846 0
M  V30 61 H -0.558384 -5.565495 0.413995 0
M  V30 62 H -2.329618 -2.841928 2.263890 0
M  V30 63 H -3.815219 -3.357829 4.150920 0
M  V30 64 H -4.451144 -5.700559 4.639715 0
M  V30 65 H -3.561495 -7.493889 3.188740 0
M  V30 66 H -2.115517 -6.941559 1.355850 0
M  V30 67 H 3.217419 -1.758172 -4.506379 0
M  V30 68 H 5.151895 -0.923264 -5.797738 0
M  V30 69 H 5.090929 2.765374 -3.726145 0
M  V30 70 H 3.195600 1.985781 -2.439505 0
M  V30 71 H 1.653846 1.704162 1.863561 0
M  V30 END ATOM
M  V30 BEGIN BOND
M  V30 1 1 1 2
M  V30 2 1 2 3
M  V30 3 2 3 4
M  V30 4 1 4 5
M  V30 5 2 5 6
M  V30 6 1 6 7
M  V30 7 1 7 8
M  V30 8 2 8 9
M  V30 9 1 9 10
M  V30 10 1 10 11
M  V30 11 1 10 12
M  V30 12 1 10 13
M  V30 13 1 9 14
M  V30 14 1 14 15
M  V30 15 2 15 16
M  V30 16 1 16 17
M  V30 17 1 17 18
M  V30 18 1 18 19
M  V30 19 1 19 20
M  V30 20 1 19 21
M  V30 21 1 21 22
M  V30 22 2 22 23
M  V30 23 1 23 24
M  V30 24 2 24 25
M  V30 25 1 25 26
M  V30 26 2 26 27
M  V30 27 1 16 28
M  V30 28 2 28 29
M  V30 29 1 29 30
M  V30 30 2 30 31
M  V30 31 1 31 32
M  V30 32 2 32 33
M  V30 33 1 33 34
M  V30 34 2 34 35
M  V30 35 1 29 36
M  V30 36 2 36 37
M  V30 37 2 7 38
M  V30 38 1 38 3
M  V30 39 1 37 8
M  V30 40 1 37 15
M  V30 41 1 27 22
M  V30 42 1 35 30
M  V30 43 1 1 39
M  V30 44 1 1 40
M  V30 45 1 1 41
M  V30 46 1 4 42
M  V30 47 1 5 43
M  V30 48 1 6 44
M  V30 49 1 11 45
M  V30 50 1 11 46
M  V30 51 1 11 47
M  V30 52 1 12 48
M  V30 53 1 12 49
M  V30 54 1 12 50
M  V30 55 1 13 51
M  V30 56 1 13 52
M  V30 57 1 13 53
M  V30 58 1 17 54
M  V30 59 1 18 55
M  V30 60 1 18 56
M  V30 61 1 19 57 CFG=1
M  V30 62 1 20 58
M  V30 63 1 20 59
M  V30 64 1 21 60
M  V30 65 1 21 61
M  V30 66 1 23 62
M  V30 67 1 24 63
M  V30 68 1 25 64
M  V30 69 1 26 65
M  V30 70 1 27 66
M  V30 71 1 31 67
M  V30 72 1 32 68
M  V30 73 1 34 69
M  V30 74 1 35 70
M  V30 75 1 38 71
M  V30 END BOND
M  V30 END CTAB
M  END
>  <Dataset>  (759) 
ChEMBL_Kinases

>  <Ligand_Instance>  (759) 
nan

>  <PDB_ID>  (759) 
nan

>  <Standardized_SMILES>  (759) 
COc1cccc(-c2c(C(C)(C)C)sc3c(NC[C@@H](N)Cc4ccccc4)nc(-c4ccncc4)nc23)c1

>  <Name>  (759) 
nan

>  <Pocket>  (759) 
nan

>  <ATP_Site>  (759) 
nan

>  <Peripheral>  (759) 
nan

>  <Num_H_Atoms_ProtBoundConf>  (759) 
nan

>  <Num_Resolved_Atoms>  (759) 
nan

>  <Num_Not_Resolved_Atoms>  (759) 
nan

$$$$
CHEMBL3704378
     RDKit          3D

  0  0  0  0  0  0  0  0  0  0999 V3000
M  V30 BEGIN CTAB
M  V30 COUNTS 76 82 0 0 0
M  V30 BEGIN ATOM
M  V30 1 O 0.063164 -2.397737 0.265343 0
M  V30 2 C 0.428346 -2.306243 1.477040 0
M  V30 3 N 1.800178 -2.150759 1.721052 0
M  V30 4 C 2.555690 -2.126916 0.413003 0
M  V30 5 N 2.924481 -1.556967 -0.417095 0
M  V30 6 C 3.516739 -1.965700 -1.562648 0
M  V30 7 C 3.465344 -0.623952 -1.655565 0
M  V30 8 S 2.663383 -0.265538 -0.078591 0
M  V30 9 C 4.022073 0.086422 -2.933884 0
M  V30 10 C 3.122676 -0.550202 -4.004987 0 CFG=1
M  V30 11 N 3.289456 0.027218 -5.295573 0
M  V30 12 C 3.026194 1.431979 -5.355582 0
M  V30 13 C 1.939765 1.705522 -6.362268 0
M  V30 14 O 0.790551 0.945063 -6.113272 0
M  V30 15 C 1.060841 -0.410740 -6.268694 0
M  V30 16 C 2.567305 -0.642765 -6.330717 0
M  V30 17 C 3.510784 -1.989935 -4.004283 0
M  V30 18 C 4.157063 -2.516413 -2.784715 0
M  V30 19 C -0.382322 -2.335013 2.697133 0
M  V30 20 C -0.011124 -2.359813 4.023854 0
M  V30 21 C -0.999418 -2.357867 4.987203 0
M  V30 22 C -2.338536 -2.330964 4.662095 0
M  V30 23 C -2.697889 -2.306848 3.332893 0
M  V30 24 C -4.180664 -2.263511 3.069451 0 CFG=1
M  V30 25 C -4.863195 -3.564904 3.278681 0
M  V30 26 C -6.208530 -3.173425 3.856503 0
M  V30 27 C -5.961842 -1.861294 4.572711 0
M  V30 28 N -4.810428 -1.271974 3.917856 0
M  V30 29 C -4.341789 0.061276 4.055684 0
M  V30 30 O -5.024039 0.789971 4.844193 0
M  V30 31 C -3.173739 0.583286 3.364198 0
M  V30 32 C -3.194211 0.727145 1.972150 0
M  V30 33 C -2.093607 1.224387 1.287183 0
M  V30 34 C -0.940148 1.592810 1.964784 0
M  V30 35 C 0.166826 2.089141 1.297495 0
M  V30 36 C 1.295412 2.442955 2.006869 0
M  V30 37 O 2.451604 2.950335 1.387947 0
M  V30 38 C 1.377926 2.321329 3.389895 0
M  V30 39 C 0.243880 1.822038 4.009130 0
M  V30 40 C -0.893564 1.461438 3.330880 0
M  V30 41 C -1.987156 0.970615 3.990861 0
M  V30 42 C -1.745147 -2.309083 2.363593 0
M  V30 43 H 2.366625 -2.055348 2.579191 0
M  V30 44 H 5.073344 -0.158830 -3.057289 0
M  V30 45 H 3.815199 1.149408 -2.883552 0
M  V30 46 H 2.078105 -0.393819 -3.606579 0
M  V30 47 H 2.678736 1.867797 -4.401203 0
M  V30 48 H 3.936110 1.970996 -5.738798 0
M  V30 49 H 2.273425 1.580190 -7.407271 0
M  V30 50 H 1.669947 2.794920 -6.247775 0
M  V30 51 H 0.585994 -1.029173 -5.490141 0
M  V30 52 H 0.659498 -0.708274 -7.262134 0
M  V30 53 H 2.889122 -0.357739 -7.345116 0
M  V30 54 H 2.701587 -1.732511 -6.261238 0
M  V30 55 H 4.160507 -2.147572 -4.919848 0
M  V30 56 H 2.605416 -2.624162 -4.232338 0
M  V30 57 H 5.243109 -2.194720 -2.832254 0
M  V30 58 H 4.204112 -3.619945 -2.815474 0
M  V30 59 H 1.059740 -2.377621 4.124263 0
M  V30 60 H -0.608912 -2.379401 5.997992 0
M  V30 61 H -3.052850 -2.324957 5.473054 0
M  V30 62 H -4.274395 -1.883614 2.022295 0
M  V30 63 H -5.080081 -4.032264 2.288477 0
M  V30 64 H -4.327808 -4.287097 3.906684 0
M  V30 65 H -7.011378 -3.103022 3.082385 0
M  V30 66 H -6.511863 -3.977744 4.553412 0
M  V30 67 H -6.844517 -1.231137 4.395778 0
M  V30 68 H -5.735126 -2.033636 5.646058 0
M  V30 69 H -4.077137 0.446805 1.429659 0
M  V30 70 H -2.059569 1.353135 0.215279 0
M  V30 71 H 0.147043 2.197333 0.226406 0
M  V30 72 H 2.614775 2.812998 0.392418 0
M  V30 73 H 2.259691 2.596982 3.955707 0
M  V30 74 H 0.318096 1.728733 5.094517 0
M  V30 75 H -1.940830 0.868867 5.074637 0
M  V30 76 H -2.175440 -2.289774 1.358443 0
M  V30 END ATOM
M  V30 BEGIN BOND
M  V30 1 2 1 2
M  V30 2 1 2 3
M  V30 3 1 3 4
M  V30 4 2 4 5
M  V30 5 1 5 6
M  V30 6 2 6 7
M  V30 7 1 7 8
M  V30 8 1 7 9
M  V30 9 1 9 10
M  V30 10 1 10 11
M  V30 11 1 11 12
M  V30 12 1 12 13
M  V30 13 1 13 14
M  V30 14 1 14 15
M  V30 15 1 15 16
M  V30 16 1 10 17
M  V30 17 1 17 18
M  V30 18 1 2 19
M  V30 19 2 19 20
M  V30 20 1 20 21
M  V30 21 2 21 22
M  V30 22 1 22 23
M  V30 23 1 23 24
M  V30 24 1 24 25
M  V30 25 1 25 26
M  V30 26 1 26 27
M  V30 27 1 27 28
M  V30 28 1 28 29
M  V30 29 2 29 30
M  V30 30 1 29 31
M  V30 31 2 31 32
M  V30 32 1 32 33
M  V30 33 2 33 34
M  V30 34 1 34 35
M  V30 35 2 35 36
M  V30 36 1 36 37
M  V30 37 1 36 38
M  V30 38 2 38 39
M  V30 39 1 39 40
M  V30 40 2 40 41
M  V30 41 2 23 42
M  V30 42 1 8 4
M  V30 43 1 16 11
M  V30 44 1 42 19
M  V30 45 1 18 6
M  V30 46 1 28 24
M  V30 47 1 41 31
M  V30 48 1 40 34
M  V30 49 1 3 43
M  V30 50 1 9 44
M  V30 51 1 9 45
M  V30 52 1 10 46 CFG=1
M  V30 53 1 12 47
M  V30 54 1 12 48
M  V30 55 1 13 49
M  V30 56 1 13 50
M  V30 57 1 15 51
M  V30 58 1 15 52
M  V30 59 1 16 53
M  V30 60 1 16 54
M  V30 61 1 17 55
M  V30 62 1 17 56
M  V30 63 1 18 57
M  V30 64 1 18 58
M  V30 65 1 20 59
M  V30 66 1 21 60
M  V30 67 1 22 61
M  V30 68 1 24 62 CFG=3
M  V30 69 1 25 63
M  V30 70 1 25 64
M  V30 71 1 26 65
M  V30 72 1 26 66
M  V30 73 1 27 67
M  V30 74 1 27 68
M  V30 75 1 32 69
M  V30 76 1 33 70
M  V30 77 1 35 71
M  V30 78 1 37 72
M  V30 79 1 38 73
M  V30 80 1 39 74
M  V30 81 1 41 75
M  V30 82 1 42 76
M  V30 END BOND
M  V30 END CTAB
M  END
>  <Dataset>  (760) 
ChEMBL_Kinases

>  <Ligand_Instance>  (760) 
nan

>  <PDB_ID>  (760) 
nan

>  <Standardized_SMILES>  (760) 
O=C(Nc1nc2c(s1)C[C@@H](N1CCOCC1)CC2)c1cccc([C@H]2CCCN2C(=O)c2ccc3cc(O)ccc3c2)c1

>  <Name>  (760) 
nan

>  <Pocket>  (760) 
nan

>  <ATP_Site>  (760) 
nan

>  <Peripheral>  (760) 
nan

>  <Num_H_Atoms_ProtBoundConf>  (760) 
nan

>  <Num_Resolved_Atoms>  (760) 
nan

>  <Num_Not_Resolved_Atoms>  (760) 
nan

$$$$
CHEMBL3730498
     RDKit          3D

  0  0  0  0  0  0  0  0  0  0999 V3000
M  V30 BEGIN CTAB
M  V30 COUNTS 57 62 0 0 0
M  V30 BEGIN ATOM
M  V30 1 N 0.008319 -2.999447 3.469342 0
M  V30 2 C 0.862431 -3.425070 2.343101 0 CFG=2
M  V30 3 C 1.321555 -2.168867 1.688797 0
M  V30 4 O 0.305401 -1.312347 1.282632 0
M  V30 5 C 0.622382 -0.108447 0.654462 0
M  V30 6 N 1.908798 0.170240 0.449444 0
M  V30 7 C 2.452237 1.225846 -0.116775 0
M  V30 8 C 3.879669 1.443000 -0.296709 0
M  V30 9 C 4.324861 2.598433 -0.906071 0
M  V30 10 C 5.676426 2.814276 -1.080580 0
M  V30 11 N 6.553167 1.868036 -0.641196 0
M  V30 12 C 6.085752 0.756962 -0.053277 0
M  V30 13 C 4.747049 0.494461 0.144413 0
M  V30 14 N 1.554711 2.132539 -0.536685 0
M  V30 15 C 0.235710 1.951159 -0.379438 0
M  V30 16 S -1.183404 2.964361 -0.811896 0
M  V30 17 C -2.476018 1.758304 -0.124849 0
M  V30 18 C -1.657836 0.744715 0.341959 0
M  V30 19 C -0.298396 0.814371 0.227943 0
M  V30 20 C -2.651378 -0.209209 0.891103 0
M  V30 21 C -3.570014 0.499175 1.871741 0
M  V30 22 C -4.512041 1.396038 1.094804 0
M  V30 23 C -3.866435 1.952738 -0.138818 0
M  V30 24 C 0.283803 -4.475207 1.490454 0
M  V30 25 C -0.975400 -4.101698 0.839398 0
M  V30 26 C -2.144636 -4.405073 1.584625 0
M  V30 27 S -3.528713 -3.765056 0.521056 0
M  V30 28 C -2.456385 -3.170334 -0.781918 0
M  V30 29 C -2.779734 -2.554204 -1.981510 0
M  V30 30 C -1.773190 -2.200660 -2.852683 0
M  V30 31 C -0.526823 -2.507573 -2.422422 0
M  V30 32 C -0.195795 -3.109122 -1.252501 0
M  V30 33 C -1.176201 -3.474620 -0.357875 0
M  V30 34 H -0.868512 -2.618709 3.015805 0
M  V30 35 H 0.554927 -2.225308 3.927445 0
M  V30 36 H 1.759727 -3.870065 2.941191 0
M  V30 37 H 1.962840 -1.639400 2.465368 0
M  V30 38 H 1.951356 -2.430455 0.810017 0
M  V30 39 H 3.636103 3.367297 -1.264751 0
M  V30 40 H 6.098114 3.693207 -1.547979 0
M  V30 41 H 6.844426 0.060684 0.264028 0
M  V30 42 H 4.473238 -0.438897 0.632515 0
M  V30 43 H -2.205552 -1.053816 1.413581 0
M  V30 44 H -3.319873 -0.602153 0.094091 0
M  V30 45 H -3.032216 1.020655 2.680551 0
M  V30 46 H -4.191876 -0.284327 2.350668 0
M  V30 47 H -4.844819 2.207746 1.794309 0
M  V30 48 H -5.412658 0.842793 0.835904 0
M  V30 49 H -4.359168 1.505008 -1.023399 0
M  V30 50 H -4.125911 3.048587 -0.165484 0
M  V30 51 H 1.050134 -4.774063 0.709724 0
M  V30 52 H 0.142193 -5.391160 2.135149 0
M  V30 53 H -2.283716 -4.895558 2.558144 0
M  V30 54 H -3.819614 -2.395450 -2.142161 0
M  V30 55 H -2.126847 -1.735130 -3.741562 0
M  V30 56 H 0.272350 -2.221953 -3.127202 0
M  V30 57 H 0.857496 -3.281004 -1.084934 0
M  V30 END ATOM
M  V30 BEGIN BOND
M  V30 1 1 1 2
M  V30 2 1 2 3
M  V30 3 1 3 4
M  V30 4 1 4 5
M  V30 5 2 5 6
M  V30 6 1 6 7
M  V30 7 1 7 8
M  V30 8 2 8 9
M  V30 9 1 9 10
M  V30 10 2 10 11
M  V30 11 1 11 12
M  V30 12 2 12 13
M  V30 13 2 7 14
M  V30 14 1 14 15
M  V30 15 1 15 16
M  V30 16 1 16 17
M  V30 17 2 17 18
M  V30 18 1 18 19
M  V30 19 1 18 20
M  V30 20 1 20 21
M  V30 21 1 21 22
M  V30 22 1 22 23
M  V30 23 1 2 24
M  V30 24 1 24 25
M  V30 25 2 25 26
M  V30 26 1 26 27
M  V30 27 1 27 28
M  V30 28 2 28 29
M  V30 29 1 29 30
M  V30 30 2 30 31
M  V30 31 1 31 32
M  V30 32 2 32 33
M  V30 33 1 19 5
M  V30 34 1 33 25
M  V30 35 1 13 8
M  V30 36 2 19 15
M  V30 37 1 33 28
M  V30 38 1 23 17
M  V30 39 1 1 34
M  V30 40 1 1 35
M  V30 41 1 2 36 CFG=1
M  V30 42 1 3 37
M  V30 43 1 3 38
M  V30 44 1 9 39
M  V30 45 1 10 40
M  V30 46 1 12 41
M  V30 47 1 13 42
M  V30 48 1 20 43
M  V30 49 1 20 44
M  V30 50 1 21 45
M  V30 51 1 21 46
M  V30 52 1 22 47
M  V30 53 1 22 48
M  V30 54 1 23 49
M  V30 55 1 23 50
M  V30 56 1 24 51
M  V30 57 1 24 52
M  V30 58 1 26 53
M  V30 59 1 29 54
M  V30 60 1 30 55
M  V30 61 1 31 56
M  V30 62 1 32 57
M  V30 END BOND
M  V30 END CTAB
M  END
>  <Dataset>  (761) 
ChEMBL_Kinases

>  <Ligand_Instance>  (761) 
nan

>  <PDB_ID>  (761) 
nan

>  <Standardized_SMILES>  (761) 
N[C@H](COc1nc(-c2ccncc2)nc2sc3c(c12)CCCC3)Cc1csc2ccccc12

>  <Name>  (761) 
nan

>  <Pocket>  (761) 
nan

>  <ATP_Site>  (761) 
nan

>  <Peripheral>  (761) 
nan

>  <Num_H_Atoms_ProtBoundConf>  (761) 
nan

>  <Num_Resolved_Atoms>  (761) 
nan

>  <Num_Not_Resolved_Atoms>  (761) 
nan

$$$$
CHEMBL3704379
     RDKit          3D

  0  0  0  0  0  0  0  0  0  0999 V3000
M  V30 BEGIN CTAB
M  V30 COUNTS 78 84 0 0 0
M  V30 BEGIN ATOM
M  V30 1 O -3.780922 -2.459999 3.704393 0
M  V30 2 C -3.451079 -1.923383 2.562548 0
M  V30 3 N -2.575580 -1.000709 3.015756 0
M  V30 4 C -1.700332 -0.102370 3.631589 0
M  V30 5 N -0.516528 -0.233807 3.910495 0
M  V30 6 C 0.141311 0.717625 4.536231 0
M  V30 7 C -0.487810 1.924953 4.910913 0
M  V30 8 S -2.173422 1.575568 4.265942 0
M  V30 9 C 0.456917 2.910357 5.623191 0
M  V30 10 C 1.567785 3.212576 4.685542 0 CFG=1
M  V30 11 N 2.423968 4.268609 4.996043 0
M  V30 12 C 3.503579 4.511579 4.123184 0
M  V30 13 C 3.164456 5.691898 3.227828 0
M  V30 14 O 2.802150 6.811358 4.011459 0
M  V30 15 C 1.616001 6.475174 4.686021 0
M  V30 16 C 1.975240 5.399837 5.706885 0
M  V30 17 C 2.289135 1.917853 4.371673 0
M  V30 18 C 1.595782 0.702296 4.925317 0
M  V30 19 C -4.013726 -2.370687 1.298939 0
M  V30 20 C -5.056568 -3.233364 1.493343 0
M  V30 21 C -5.677611 -3.703221 0.323353 0
M  V30 22 C -5.190615 -3.261268 -0.913662 0
M  V30 23 C -4.114408 -2.375587 -1.015219 0
M  V30 24 C -3.687393 -1.943332 -2.375951 0 CFG=1
M  V30 25 C -3.618805 -0.403577 -2.385745 0
M  V30 26 C -2.191012 -0.011916 -2.231642 0
M  V30 27 C -1.402625 -1.277934 -2.352734 0
M  V30 28 N -2.343822 -2.312399 -2.727184 0
M  V30 29 C -2.180537 -3.591403 -3.384719 0
M  V30 30 O -3.055514 -4.432302 -3.661180 0
M  V30 31 C -0.862686 -4.089724 -3.839184 0
M  V30 32 C -0.201716 -5.215358 -3.404023 0
M  V30 33 C 1.013637 -5.513476 -3.955785 0
M  V30 34 C 1.591539 -4.706073 -4.941420 0
M  V30 35 C 2.872597 -4.990289 -5.551918 0
M  V30 36 C 3.835630 -5.630216 -4.773589 0
M  V30 37 C 5.069272 -5.923035 -5.306609 0
M  V30 38 N 5.412735 -5.614354 -6.590282 0
M  V30 39 C 4.487465 -4.999071 -7.341144 0
M  V30 40 C 3.217295 -4.674992 -6.852780 0
M  V30 41 C 0.915653 -3.569075 -5.375630 0
M  V30 42 C -0.325403 -3.269101 -4.807204 0
M  V30 43 C -3.488004 -1.900369 0.122007 0
M  V30 44 H -2.382328 -0.620444 2.005242 0
M  V30 45 H -0.188705 3.784761 5.860236 0
M  V30 46 H 0.768225 2.373514 6.524313 0
M  V30 47 H 1.057916 3.488788 3.710668 0
M  V30 48 H 4.423443 4.812450 4.679890 0
M  V30 49 H 3.757680 3.667858 3.475258 0
M  V30 50 H 2.334808 5.430566 2.571415 0
M  V30 51 H 4.051267 6.018354 2.634592 0
M  V30 52 H 0.929395 5.957491 3.961709 0
M  V30 53 H 1.123822 7.328019 5.148032 0
M  V30 54 H 2.808391 5.796700 6.324136 0
M  V30 55 H 1.109035 5.271366 6.335236 0
M  V30 56 H 3.284830 1.982259 4.851367 0
M  V30 57 H 2.492253 1.820322 3.282698 0
M  V30 58 H 1.624754 0.636122 6.024619 0
M  V30 59 H 2.135521 -0.178800 4.548172 0
M  V30 60 H -5.445071 -3.584557 2.430659 0
M  V30 61 H -6.505420 -4.389416 0.394732 0
M  V30 62 H -5.730876 -3.671716 -1.777927 0
M  V30 63 H -4.452320 -2.210754 -3.114481 0
M  V30 64 H -4.184047 -0.000295 -1.509654 0
M  V30 65 H -4.106828 -0.003152 -3.301558 0
M  V30 66 H -1.950600 0.710601 -3.052601 0
M  V30 67 H -1.959833 0.566003 -1.301369 0
M  V30 68 H -0.609424 -1.100778 -3.112447 0
M  V30 69 H -0.859732 -1.520996 -1.422496 0
M  V30 70 H -0.694155 -5.793897 -2.650173 0
M  V30 71 H 1.540558 -6.380787 -3.639445 0
M  V30 72 H 3.607596 -5.899887 -3.738172 0
M  V30 73 H 5.794843 -6.420924 -4.658866 0
M  V30 74 H 4.577986 -4.676406 -8.371076 0
M  V30 75 H 2.421434 -4.186939 -7.384229 0
M  V30 76 H 1.364537 -2.938197 -6.142128 0
M  V30 77 H -0.785672 -2.374521 -5.200107 0
M  V30 78 H -2.674464 -1.230465 0.090622 0
M  V30 END ATOM
M  V30 BEGIN BOND
M  V30 1 2 1 2
M  V30 2 1 2 3
M  V30 3 1 3 4
M  V30 4 2 4 5
M  V30 5 1 5 6
M  V30 6 2 6 7
M  V30 7 1 7 8
M  V30 8 1 7 9
M  V30 9 1 9 10
M  V30 10 1 10 11
M  V30 11 1 11 12
M  V30 12 1 12 13
M  V30 13 1 13 14
M  V30 14 1 14 15
M  V30 15 1 15 16
M  V30 16 1 10 17
M  V30 17 1 17 18
M  V30 18 1 2 19
M  V30 19 2 19 20
M  V30 20 1 20 21
M  V30 21 2 21 22
M  V30 22 1 22 23
M  V30 23 1 23 24
M  V30 24 1 24 25
M  V30 25 1 25 26
M  V30 26 1 26 27
M  V30 27 1 27 28
M  V30 28 1 28 29
M  V30 29 2 29 30
M  V30 30 1 29 31
M  V30 31 2 31 32
M  V30 32 1 32 33
M  V30 33 2 33 34
M  V30 34 1 34 35
M  V30 35 2 35 36
M  V30 36 1 36 37
M  V30 37 2 37 38
M  V30 38 1 38 39
M  V30 39 2 39 40
M  V30 40 1 34 41
M  V30 41 2 41 42
M  V30 42 2 23 43
M  V30 43 1 8 4
M  V30 44 1 16 11
M  V30 45 1 43 19
M  V30 46 1 18 6
M  V30 47 1 28 24
M  V30 48 1 42 31
M  V30 49 1 40 35
M  V30 50 1 3 44
M  V30 51 1 9 45
M  V30 52 1 9 46
M  V30 53 1 10 47 CFG=3
M  V30 54 1 12 48
M  V30 55 1 12 49
M  V30 56 1 13 50
M  V30 57 1 13 51
M  V30 58 1 15 52
M  V30 59 1 15 53
M  V30 60 1 16 54
M  V30 61 1 16 55
M  V30 62 1 17 56
M  V30 63 1 17 57
M  V30 64 1 18 58
M  V30 65 1 18 59
M  V30 66 1 20 60
M  V30 67 1 21 61
M  V30 68 1 22 62
M  V30 69 1 24 63 CFG=3
M  V30 70 1 25 64
M  V30 71 1 25 65
M  V30 72 1 26 66
M  V30 73 1 26 67
M  V30 74 1 27 68
M  V30 75 1 27 69
M  V30 76 1 32 70
M  V30 77 1 33 71
M  V30 78 1 36 72
M  V30 79 1 37 73
M  V30 80 1 39 74
M  V30 81 1 40 75
M  V30 82 1 41 76
M  V30 83 1 42 77
M  V30 84 1 43 78
M  V30 END BOND
M  V30 END CTAB
M  END
>  <Dataset>  (762) 
ChEMBL_Kinases

>  <Ligand_Instance>  (762) 
nan

>  <PDB_ID>  (762) 
nan

>  <Standardized_SMILES>  (762) 
O=C(Nc1nc2c(s1)C[C@@H](N1CCOCC1)CC2)c1cccc([C@H]2CCCN2C(=O)c2ccc(-c3ccncc3)cc2)c1

>  <Name>  (762) 
nan

>  <Pocket>  (762) 
nan

>  <ATP_Site>  (762) 
nan

>  <Peripheral>  (762) 
nan

>  <Num_H_Atoms_ProtBoundConf>  (762) 
nan

>  <Num_Resolved_Atoms>  (762) 
nan

>  <Num_Not_Resolved_Atoms>  (762) 
nan

$$$$
CHEMBL3704380
     RDKit          3D

  0  0  0  0  0  0  0  0  0  0999 V3000
M  V30 BEGIN CTAB
M  V30 COUNTS 82 89 0 0 0
M  V30 BEGIN ATOM
M  V30 1 N 2.888079 0.885656 -2.783442 0
M  V30 2 C 2.373392 2.070421 -2.184546 0
M  V30 3 N 3.234011 3.076601 -1.878531 0
M  V30 4 O 2.518399 4.020969 -1.353927 0
M  V30 5 N 1.260611 3.663168 -1.313838 0
M  V30 6 C 1.092742 2.434441 -1.825469 0
M  V30 7 N -0.036067 1.596494 -2.015654 0
M  V30 8 N 0.064786 0.397785 -2.557191 0
M  V30 9 N -1.117740 -0.172367 -2.617997 0
M  V30 10 C -2.028207 0.680795 -2.097569 0
M  V30 11 C -3.432060 0.433238 -1.946347 0
M  V30 12 O -4.406706 0.974247 -1.374009 0
M  V30 13 N -4.214033 -0.626438 -2.464825 0
M  V30 14 C -5.655528 -0.707765 -2.202280 0
M  V30 15 C -6.184721 -1.799029 -3.092455 0
M  V30 16 C -5.098728 -1.998426 -4.144666 0
M  V30 17 C -3.871591 -1.767150 -3.302377 0 CFG=2
M  V30 18 C -3.508891 -2.982920 -2.579026 0
M  V30 19 C -3.767752 -4.297013 -2.886337 0
M  V30 20 C -3.372166 -5.406267 -2.188559 0
M  V30 21 C -2.632289 -5.237563 -1.048950 0
M  V30 22 C -2.291597 -3.971250 -0.609755 0
M  V30 23 C -1.445035 -3.622877 0.556580 0
M  V30 24 O -0.562258 -4.502572 0.827067 0
M  V30 25 N -1.681788 -2.409070 1.229902 0
M  V30 26 C -0.688801 -2.238426 2.370804 0
M  V30 27 N -0.100463 -2.272648 3.337063 0
M  V30 28 C 0.975738 -1.624791 3.703049 0
M  V30 29 C 1.505723 -0.749178 2.788700 0
M  V30 30 S 0.387475 -0.934740 1.444357 0
M  V30 31 C 2.826578 -0.022200 3.372503 0
M  V30 32 C 3.742785 -1.186080 3.618145 0 CFG=1
M  V30 33 N 5.144432 -0.898950 3.588008 0
M  V30 34 C 5.948917 -2.078695 3.879949 0
M  V30 35 C 7.399409 -1.686803 3.731043 0
M  V30 36 O 7.720633 -1.327933 2.444762 0
M  V30 37 C 6.967136 -0.240406 2.039926 0
M  V30 38 C 5.511670 -0.532173 2.225477 0
M  V30 39 C 3.216420 -1.913196 4.794121 0
M  V30 40 C 1.733765 -1.708284 4.973817 0
M  V30 41 C -2.749005 -2.916872 -1.396907 0
M  V30 42 C -1.337840 1.808095 -1.715534 0
M  V30 43 C -1.916073 2.997824 -1.139670 0
M  V30 44 C -3.000142 3.474295 -1.887063 0
M  V30 45 C -3.721607 4.586277 -1.525092 0
M  V30 46 C -3.373793 5.278381 -0.372515 0
M  V30 47 C -2.306587 4.827871 0.383149 0
M  V30 48 C -1.613811 3.718018 -0.008900 0
M  V30 49 H 2.501883 0.487330 -3.654154 0
M  V30 50 H 3.688184 0.350399 -2.373581 0
M  V30 51 H -6.137839 0.249413 -2.558103 0
M  V30 52 H -5.904992 -0.809907 -1.146045 0
M  V30 53 H -6.427313 -2.716947 -2.558599 0
M  V30 54 H -7.090132 -1.460282 -3.669637 0
M  V30 55 H -5.181034 -1.197405 -4.932312 0
M  V30 56 H -5.102024 -2.967619 -4.614214 0
M  V30 57 H -3.050066 -1.506747 -4.011734 0
M  V30 58 H -4.342130 -4.528647 -3.768887 0
M  V30 59 H -3.619837 -6.411781 -2.498716 0
M  V30 60 H -2.265582 -6.037780 -0.424754 0
M  V30 61 H -2.424110 -1.753792 0.956787 0
M  V30 62 H 2.458372 0.450373 4.305456 0
M  V30 63 H 3.116579 0.680030 2.604336 0
M  V30 64 H 3.573984 -1.899826 2.746612 0
M  V30 65 H 5.754910 -2.374086 4.916544 0
M  V30 66 H 5.711071 -2.873810 3.169253 0
M  V30 67 H 8.006141 -2.604109 3.955125 0
M  V30 68 H 7.634544 -0.861162 4.452831 0
M  V30 69 H 7.215243 0.713232 2.529834 0
M  V30 70 H 7.089273 -0.132953 0.916635 0
M  V30 71 H 4.876465 0.274207 1.810028 0
M  V30 72 H 5.234159 -1.442189 1.615200 0
M  V30 73 H 3.503636 -2.987606 4.759276 0
M  V30 74 H 3.729700 -1.517469 5.700383 0
M  V30 75 H 1.406777 -2.540367 5.642906 0
M  V30 76 H 1.534543 -0.789555 5.592865 0
M  V30 77 H -2.487964 -1.920383 -1.040173 0
M  V30 78 H -3.361747 3.019657 -2.815150 0
M  V30 79 H -4.570647 4.949266 -2.115725 0
M  V30 80 H -3.973269 6.156429 -0.118477 0
M  V30 81 H -2.021936 5.345341 1.276759 0
M  V30 82 H -0.778647 3.307087 0.528160 0
M  V30 END ATOM
M  V30 BEGIN BOND
M  V30 1 1 1 2
M  V30 2 2 2 3
M  V30 3 1 3 4
M  V30 4 1 4 5
M  V30 5 2 5 6
M  V30 6 1 6 7
M  V30 7 1 7 8
M  V30 8 2 8 9
M  V30 9 1 9 10
M  V30 10 1 10 11
M  V30 11 2 11 12
M  V30 12 1 11 13
M  V30 13 1 13 14
M  V30 14 1 14 15
M  V30 15 1 15 16
M  V30 16 1 16 17
M  V30 17 1 17 18
M  V30 18 2 18 19
M  V30 19 1 19 20
M  V30 20 2 20 21
M  V30 21 1 21 22
M  V30 22 1 22 23
M  V30 23 2 23 24
M  V30 24 1 23 25
M  V30 25 1 25 26
M  V30 26 2 26 27
M  V30 27 1 27 28
M  V30 28 2 28 29
M  V30 29 1 29 30
M  V30 30 1 29 31
M  V30 31 1 31 32
M  V30 32 1 32 33
M  V30 33 1 33 34
M  V30 34 1 34 35
M  V30 35 1 35 36
M  V30 36 1 36 37
M  V30 37 1 37 38
M  V30 38 1 32 39
M  V30 39 1 39 40
M  V30 40 2 22 41
M  V30 41 2 10 42
M  V30 42 1 42 43
M  V30 43 2 43 44
M  V30 44 1 44 45
M  V30 45 2 45 46
M  V30 46 1 46 47
M  V30 47 2 47 48
M  V30 48 1 6 2
M  V30 49 1 42 7
M  V30 50 1 48 43
M  V30 51 1 17 13
M  V30 52 1 41 18
M  V30 53 1 30 26
M  V30 54 1 38 33
M  V30 55 1 40 28
M  V30 56 1 1 49
M  V30 57 1 1 50
M  V30 58 1 14 51
M  V30 59 1 14 52
M  V30 60 1 15 53
M  V30 61 1 15 54
M  V30 62 1 16 55
M  V30 63 1 16 56
M  V30 64 1 17 57 CFG=3
M  V30 65 1 19 58
M  V30 66 1 20 59
M  V30 67 1 21 60
M  V30 68 1 25 61
M  V30 69 1 31 62
M  V30 70 1 31 63
M  V30 71 1 32 64 CFG=3
M  V30 72 1 34 65
M  V30 73 1 34 66
M  V30 74 1 35 67
M  V30 75 1 35 68
M  V30 76 1 37 69
M  V30 77 1 37 70
M  V30 78 1 38 71
M  V30 79 1 38 72
M  V30 80 1 39 73
M  V30 81 1 39 74
M  V30 82 1 40 75
M  V30 83 1 40 76
M  V30 84 1 41 77
M  V30 85 1 44 78
M  V30 86 1 45 79
M  V30 87 1 46 80
M  V30 88 1 47 81
M  V30 89 1 48 82
M  V30 END BOND
M  V30 END CTAB
M  END
>  <Dataset>  (763) 
ChEMBL_Kinases

>  <Ligand_Instance>  (763) 
nan

>  <PDB_ID>  (763) 
nan

>  <Standardized_SMILES>  (763) 
Nc1nonc1-n1nnc(C(=O)N2CCC[C@@H]2c2cccc(C(=O)Nc3nc4c(s3)C[C@@H](N3CCOCC3)CC4)c2)c1-c1ccccc1

>  <Name>  (763) 
nan

>  <Pocket>  (763) 
nan

>  <ATP_Site>  (763) 
nan

>  <Peripheral>  (763) 
nan

>  <Num_H_Atoms_ProtBoundConf>  (763) 
nan

>  <Num_Resolved_Atoms>  (763) 
nan

>  <Num_Not_Resolved_Atoms>  (763) 
nan

$$$$
CHEMBL3704377
     RDKit          3D

  0  0  0  0  0  0  0  0  0  0999 V3000
M  V30 BEGIN CTAB
M  V30 COUNTS 77 83 0 0 0
M  V30 BEGIN ATOM
M  V30 1 C -1.478418 0.199165 -1.656873 0
M  V30 2 C -1.069572 -1.184225 -2.099647 0
M  V30 3 N 0.191317 -1.514274 -2.209929 0
M  V30 4 C 0.717916 -2.458226 -2.514445 0
M  V30 5 C 2.023505 -3.090026 -2.720259 0
M  V30 6 C 2.223714 -4.387346 -3.136730 0
M  V30 7 C 3.528774 -4.769111 -3.259874 0
M  V30 8 N 4.572257 -3.950337 -2.997395 0
M  V30 9 C 4.361783 -2.695456 -2.594532 0
M  V30 10 C 3.065991 -2.234400 -2.446103 0
M  V30 11 S -0.795601 -3.550425 -2.859272 0
M  V30 12 C -1.935957 -2.225300 -2.430293 0
M  V30 13 C -3.357300 -2.058037 -2.368885 0
M  V30 14 O -3.883364 -1.163645 -3.079710 0
M  V30 15 N -4.398307 -2.702507 -1.648832 0
M  V30 16 C -5.711571 -2.159995 -1.938499 0
M  V30 17 C -6.738349 -3.095984 -1.390052 0
M  V30 18 C -5.942911 -4.341766 -1.044691 0
M  V30 19 C -4.573379 -3.800461 -0.660965 0 CFG=2
M  V30 20 C -4.505763 -3.315005 0.721070 0
M  V30 21 C -5.319135 -3.562201 1.800695 0
M  V30 22 C -5.168639 -3.061064 3.071502 0
M  V30 23 C -4.111547 -2.223127 3.338878 0
M  V30 24 C -3.250388 -1.927573 2.306139 0
M  V30 25 C -2.112255 -1.045645 2.559480 0
M  V30 26 O -1.289769 -0.757398 1.637882 0
M  V30 27 N -1.835393 -0.459042 3.800602 0
M  V30 28 C -0.599355 0.353559 3.632029 0
M  V30 29 N 0.514492 0.065537 3.767468 0
M  V30 30 C 1.561127 0.843040 3.599666 0
M  V30 31 C 1.332834 2.104018 3.233238 0
M  V30 32 S -0.421100 2.179615 3.126487 0
M  V30 33 C 2.613830 3.002194 3.040384 0
M  V30 34 C 3.330026 2.306485 1.937240 0 CFG=1
M  V30 35 N 4.405984 2.952807 1.308289 0
M  V30 36 C 4.947673 2.125677 0.273952 0
M  V30 37 C 4.884729 2.729003 -1.099183 0
M  V30 38 O 3.821551 3.657326 -1.149510 0
M  V30 39 C 4.295122 4.739523 -0.403032 0
M  V30 40 C 4.341433 4.329284 1.045132 0
M  V30 41 C 3.699434 0.941826 2.469073 0
M  V30 42 C 3.035842 0.569289 3.749454 0
M  V30 43 C -3.449737 -2.458005 1.051071 0
M  V30 44 H -2.580712 0.195167 -1.405935 0
M  V30 45 H -0.937591 0.528154 -0.762967 0
M  V30 46 H -1.362690 0.951919 -2.438527 0
M  V30 47 H 1.358659 -4.987417 -3.328760 0
M  V30 48 H 3.739446 -5.781284 -3.584084 0
M  V30 49 H 5.231667 -2.070756 -2.394253 0
M  V30 50 H 2.953964 -1.223319 -2.121216 0
M  V30 51 H -5.839232 -1.110690 -1.591303 0
M  V30 52 H -5.829285 -2.110013 -3.061445 0
M  V30 53 H -7.489317 -3.366731 -2.142094 0
M  V30 54 H -7.266595 -2.695822 -0.493014 0
M  V30 55 H -5.877817 -5.021230 -1.909667 0
M  V30 56 H -6.409206 -4.821904 -0.183738 0
M  V30 57 H -3.789196 -4.536357 -0.914608 0
M  V30 58 H -6.161638 -4.215174 1.644533 0
M  V30 59 H -5.861363 -3.317599 3.842499 0
M  V30 60 H -4.020710 -1.850911 4.329573 0
M  V30 61 H -2.429552 -0.615839 4.615010 0
M  V30 62 H 3.175915 2.997564 3.984199 0
M  V30 63 H 2.240770 4.018170 2.823653 0
M  V30 64 H 2.554954 2.104323 1.139492 0
M  V30 65 H 6.019416 1.936030 0.505275 0
M  V30 66 H 4.423433 1.151818 0.194419 0
M  V30 67 H 4.655076 1.973212 -1.891132 0
M  V30 68 H 5.827713 3.221311 -1.372099 0
M  V30 69 H 5.274718 5.055116 -0.813405 0
M  V30 70 H 3.586234 5.562920 -0.590467 0
M  V30 71 H 3.542604 4.898728 1.555532 0
M  V30 72 H 5.291171 4.787160 1.453113 0
M  V30 73 H 3.569468 0.134173 1.718746 0
M  V30 74 H 4.793394 0.964387 2.669208 0
M  V30 75 H 3.432447 1.096000 4.636704 0
M  V30 76 H 3.244077 -0.506429 3.918277 0
M  V30 77 H -2.720007 -2.165433 0.313134 0
M  V30 END ATOM
M  V30 BEGIN BOND
M  V30 1 1 1 2
M  V30 2 1 2 3
M  V30 3 2 3 4
M  V30 4 1 4 5
M  V30 5 2 5 6
M  V30 6 1 6 7
M  V30 7 2 7 8
M  V30 8 1 8 9
M  V30 9 2 9 10
M  V30 10 1 4 11
M  V30 11 1 11 12
M  V30 12 1 12 13
M  V30 13 2 13 14
M  V30 14 1 13 15
M  V30 15 1 15 16
M  V30 16 1 16 17
M  V30 17 1 17 18
M  V30 18 1 18 19
M  V30 19 1 19 20
M  V30 20 2 20 21
M  V30 21 1 21 22
M  V30 22 2 22 23
M  V30 23 1 23 24
M  V30 24 1 24 25
M  V30 25 2 25 26
M  V30 26 1 25 27
M  V30 27 1 27 28
M  V30 28 2 28 29
M  V30 29 1 29 30
M  V30 30 2 30 31
M  V30 31 1 31 32
M  V30 32 1 31 33
M  V30 33 1 33 34
M  V30 34 1 34 35
M  V30 35 1 35 36
M  V30 36 1 36 37
M  V30 37 1 37 38
M  V30 38 1 38 39
M  V30 39 1 39 40
M  V30 40 1 34 41
M  V30 41 1 41 42
M  V30 42 2 24 43
M  V30 43 2 12 2
M  V30 44 1 19 15
M  V30 45 1 43 20
M  V30 46 1 10 5
M  V30 47 1 32 28
M  V30 48 1 40 35
M  V30 49 1 42 30
M  V30 50 1 1 44
M  V30 51 1 1 45
M  V30 52 1 1 46
M  V30 53 1 6 47
M  V30 54 1 7 48
M  V30 55 1 9 49
M  V30 56 1 10 50
M  V30 57 1 16 51
M  V30 58 1 16 52
M  V30 59 1 17 53
M  V30 60 1 17 54
M  V30 61 1 18 55
M  V30 62 1 18 56
M  V30 63 1 19 57 CFG=1
M  V30 64 1 21 58
M  V30 65 1 22 59
M  V30 66 1 23 60
M  V30 67 1 27 61
M  V30 68 1 33 62
M  V30 69 1 33 63
M  V30 70 1 34 64 CFG=3
M  V30 71 1 36 65
M  V30 72 1 36 66
M  V30 73 1 37 67
M  V30 74 1 37 68
M  V30 75 1 39 69
M  V30 76 1 39 70
M  V30 77 1 40 71
M  V30 78 1 40 72
M  V30 79 1 41 73
M  V30 80 1 41 74
M  V30 81 1 42 75
M  V30 82 1 42 76
M  V30 83 1 43 77
M  V30 END BOND
M  V30 END CTAB
M  END
>  <Dataset>  (764) 
ChEMBL_Kinases

>  <Ligand_Instance>  (764) 
nan

>  <PDB_ID>  (764) 
nan

>  <Standardized_SMILES>  (764) 
Cc1nc(-c2ccncc2)sc1C(=O)N1CCC[C@@H]1c1cccc(C(=O)Nc2nc3c(s2)C[C@@H](N2CCOCC2)CC3)c1

>  <Name>  (764) 
nan

>  <Pocket>  (764) 
nan

>  <ATP_Site>  (764) 
nan

>  <Peripheral>  (764) 
nan

>  <Num_H_Atoms_ProtBoundConf>  (764) 
nan

>  <Num_Resolved_Atoms>  (764) 
nan

>  <Num_Not_Resolved_Atoms>  (764) 
nan

$$$$
CHEMBL3730907
     RDKit          3D

  0  0  0  0  0  0  0  0  0  0999 V3000
M  V30 BEGIN CTAB
M  V30 COUNTS 58 62 0 0 0
M  V30 BEGIN ATOM
M  V30 1 N 3.111946 -2.063346 3.921943 0
M  V30 2 C 3.666315 -1.434638 2.741718 0 CFG=2
M  V30 3 C 2.533546 -0.582948 2.162392 0
M  V30 4 N 1.397159 -1.408219 1.821175 0
M  V30 5 C 0.268991 -0.748316 1.273475 0
M  V30 6 N 0.228451 0.587787 1.068775 0
M  V30 7 C -0.947316 1.041219 0.531285 0
M  V30 8 C -1.066544 2.496022 0.278563 0
M  V30 9 C -0.020985 3.330249 0.583208 0
M  V30 10 C -0.095932 4.695270 0.361182 0
M  V30 11 N -1.213565 5.242932 -0.166698 0
M  V30 12 C -2.247839 4.435095 -0.470502 0
M  V30 13 C -2.200272 3.071202 -0.259681 0
M  V30 14 N -1.988861 0.292468 0.217341 0
M  V30 15 C -1.963022 -1.058946 0.418271 0
M  V30 16 C -3.002908 -1.884274 0.115563 0
M  V30 17 C -4.309611 -1.579121 -0.454013 0
M  V30 18 C -4.664379 -1.543808 -1.787221 0
M  V30 19 C -5.939928 -1.239258 -2.169998 0
M  V30 20 C -6.917711 -0.956749 -1.244932 0
M  V30 21 C -6.569562 -0.989550 0.109023 0
M  V30 22 C -5.264210 -1.301218 0.500536 0
M  V30 23 Cl -5.101153 -1.271819 2.241452 0
M  V30 24 C -2.805636 -3.222180 0.383397 0
M  V30 25 C -3.659688 -4.456656 0.213060 0
M  V30 26 F -4.805607 -4.297766 0.959890 0
M  V30 27 F -4.061080 -4.575387 -1.108077 0
M  V30 28 F -3.008305 -5.564007 0.660711 0
M  V30 29 S -1.047723 -3.273984 1.098881 0
M  V30 30 C -0.822425 -1.545304 0.946252 0
M  V30 31 C 4.139193 -2.462397 1.769411 0
M  V30 32 C 4.725722 -1.899931 0.523024 0
M  V30 33 C 3.986187 -1.620019 -0.618060 0
M  V30 34 C 4.630976 -1.093030 -1.737681 0
M  V30 35 C 5.997382 -0.846474 -1.723882 0
M  V30 36 C 6.757050 -1.114482 -0.605273 0
M  V30 37 C 6.095844 -1.635022 0.488375 0
M  V30 38 H 2.464085 -2.838044 3.740918 0
M  V30 39 H 3.890922 -2.414909 4.523722 0
M  V30 40 H 4.509277 -0.811159 3.058504 0
M  V30 41 H 2.305078 0.273329 2.803573 0
M  V30 42 H 2.941863 -0.172097 1.195795 0
M  V30 43 H 1.431641 -2.435743 1.980235 0
M  V30 44 H 0.891111 2.912432 1.009932 0
M  V30 45 H 0.756497 5.306187 0.619305 0
M  V30 46 H -3.137390 4.903064 -0.895197 0
M  V30 47 H -3.039533 2.414922 -0.506096 0
M  V30 48 H -3.853259 -1.774584 -2.466254 0
M  V30 49 H -6.137117 -1.232927 -3.241004 0
M  V30 50 H -7.911316 -0.721556 -1.593154 0
M  V30 51 H -7.410260 -0.752660 0.754409 0
M  V30 52 H 4.919561 -3.065449 2.277271 0
M  V30 53 H 3.341065 -3.203092 1.513706 0
M  V30 54 H 2.912671 -1.826923 -0.592755 0
M  V30 55 H 4.045040 -0.878284 -2.622401 0
M  V30 56 H 6.510645 -0.437551 -2.586101 0
M  V30 57 H 7.824497 -0.947413 -0.524514 0
M  V30 58 H 6.675028 -1.858788 1.394486 0
M  V30 END ATOM
M  V30 BEGIN BOND
M  V30 1 1 1 2
M  V30 2 1 2 3
M  V30 3 1 3 4
M  V30 4 1 4 5
M  V30 5 2 5 6
M  V30 6 1 6 7
M  V30 7 1 7 8
M  V30 8 2 8 9
M  V30 9 1 9 10
M  V30 10 2 10 11
M  V30 11 1 11 12
M  V30 12 2 12 13
M  V30 13 2 7 14
M  V30 14 1 14 15
M  V30 15 1 15 16
M  V30 16 1 16 17
M  V30 17 2 17 18
M  V30 18 1 18 19
M  V30 19 2 19 20
M  V30 20 1 20 21
M  V30 21 2 21 22
M  V30 22 1 22 23
M  V30 23 2 16 24
M  V30 24 1 24 25
M  V30 25 1 25 26
M  V30 26 1 25 27
M  V30 27 1 25 28
M  V30 28 1 24 29
M  V30 29 1 29 30
M  V30 30 1 2 31
M  V30 31 1 31 32
M  V30 32 2 32 33
M  V30 33 1 33 34
M  V30 34 2 34 35
M  V30 35 1 35 36
M  V30 36 2 36 37
M  V30 37 1 30 5
M  V30 38 1 37 32
M  V30 39 1 13 8
M  V30 40 2 30 15
M  V30 41 1 22 17
M  V30 42 1 1 38
M  V30 43 1 1 39
M  V30 44 1 2 40 CFG=1
M  V30 45 1 3 41
M  V30 46 1 3 42
M  V30 47 1 4 43
M  V30 48 1 9 44
M  V30 49 1 10 45
M  V30 50 1 12 46
M  V30 51 1 13 47
M  V30 52 1 18 48
M  V30 53 1 19 49
M  V30 54 1 20 50
M  V30 55 1 21 51
M  V30 56 1 31 52
M  V30 57 1 31 53
M  V30 58 1 33 54
M  V30 59 1 34 55
M  V30 60 1 35 56
M  V30 61 1 36 57
M  V30 62 1 37 58
M  V30 END BOND
M  V30 END CTAB
M  END
>  <Dataset>  (765) 
ChEMBL_Kinases

>  <Ligand_Instance>  (765) 
nan

>  <PDB_ID>  (765) 
nan

>  <Standardized_SMILES>  (765) 
N[C@H](CNc1nc(-c2ccncc2)nc2c(-c3ccccc3Cl)c(C(F)(F)F)sc12)Cc1ccccc1

>  <Name>  (765) 
nan

>  <Pocket>  (765) 
nan

>  <ATP_Site>  (765) 
nan

>  <Peripheral>  (765) 
nan

>  <Num_H_Atoms_ProtBoundConf>  (765) 
nan

>  <Num_Resolved_Atoms>  (765) 
nan

>  <Num_Not_Resolved_Atoms>  (765) 
nan

$$$$
CHEMBL3730892
     RDKit          3D

  0  0  0  0  0  0  0  0  0  0999 V3000
M  V30 BEGIN CTAB
M  V30 COUNTS 41 44 0 0 0
M  V30 BEGIN ATOM
M  V30 1 C 0.353391 -3.917947 5.096292 0
M  V30 2 C 1.050258 -3.225469 3.982017 0
M  V30 3 C 2.397792 -3.614090 3.778421 0
M  V30 4 S 2.942207 -2.550411 2.310845 0
M  V30 5 C 1.373984 -1.753600 2.156988 0
M  V30 6 C 0.967549 -0.790914 1.259084 0
M  V30 7 O 1.904870 -0.366058 0.328502 0
M  V30 8 C 1.472595 0.621514 -0.585282 0
M  V30 9 C 2.576188 1.009170 -1.553287 0 CFG=2
M  V30 10 C 1.971556 1.886901 -2.627663 0
M  V30 11 C 2.615720 1.473981 -3.931423 0
M  V30 12 C 3.386447 0.243579 -3.583870 0
M  V30 13 N 2.948422 -0.183978 -2.269424 0
M  V30 14 N -0.306815 -0.300167 1.311978 0
M  V30 15 C -1.072796 -0.845081 2.296801 0
M  V30 16 C -2.461680 -0.353005 2.403010 0
M  V30 17 C -3.321087 -0.839154 3.365753 0
M  V30 18 C -4.610318 -0.313164 3.385791 0
M  V30 19 N -5.046543 0.637905 2.515440 0
M  V30 20 C -4.164061 1.080127 1.591496 0
M  V30 21 C -2.855122 0.609783 1.498893 0
M  V30 22 N -0.672500 -1.775136 3.160611 0
M  V30 23 C 0.575903 -2.273516 3.128800 0
M  V30 24 H 0.513019 -5.014659 5.026334 0
M  V30 25 H 0.601461 -3.503999 6.088816 0
M  V30 26 H -0.766103 -3.809427 4.971589 0
M  V30 27 H 3.027622 -4.329936 4.289518 0
M  V30 28 H 1.204241 1.578312 -0.052956 0
M  V30 29 H 0.613842 0.222868 -1.147889 0
M  V30 30 H 3.422282 1.485869 -1.045360 0
M  V30 31 H 2.185908 2.969720 -2.418109 0
M  V30 32 H 0.884312 1.674903 -2.686831 0
M  V30 33 H 1.862828 1.267548 -4.736738 0
M  V30 34 H 3.242899 2.305232 -4.328347 0
M  V30 35 H 4.463291 0.448124 -3.627577 0
M  V30 36 H 3.143740 -0.565660 -4.308142 0
M  V30 37 H 2.110187 -0.828000 -2.341525 0
M  V30 38 H -3.008061 -1.591511 4.069588 0
M  V30 39 H -5.259152 -0.728570 4.167521 0
M  V30 40 H -4.495245 1.838598 0.889418 0
M  V30 41 H -2.220197 1.023266 0.726001 0
M  V30 END ATOM
M  V30 BEGIN BOND
M  V30 1 1 1 2
M  V30 2 2 2 3
M  V30 3 1 3 4
M  V30 4 1 4 5
M  V30 5 2 5 6
M  V30 6 1 6 7
M  V30 7 1 7 8
M  V30 8 1 8 9
M  V30 9 1 9 10
M  V30 10 1 10 11
M  V30 11 1 11 12
M  V30 12 1 12 13
M  V30 13 1 6 14
M  V30 14 2 14 15
M  V30 15 1 15 16
M  V30 16 2 16 17
M  V30 17 1 17 18
M  V30 18 2 18 19
M  V30 19 1 19 20
M  V30 20 2 20 21
M  V30 21 1 15 22
M  V30 22 2 22 23
M  V30 23 1 23 2
M  V30 24 1 23 5
M  V30 25 1 13 9
M  V30 26 1 21 16
M  V30 27 1 1 24
M  V30 28 1 1 25
M  V30 29 1 1 26
M  V30 30 1 3 27
M  V30 31 1 8 28
M  V30 32 1 8 29
M  V30 33 1 9 30 CFG=1
M  V30 34 1 10 31
M  V30 35 1 10 32
M  V30 36 1 11 33
M  V30 37 1 11 34
M  V30 38 1 12 35
M  V30 39 1 12 36
M  V30 40 1 13 37
M  V30 41 1 17 38
M  V30 42 1 18 39
M  V30 43 1 20 40
M  V30 44 1 21 41
M  V30 END BOND
M  V30 END CTAB
M  END
>  <Dataset>  (766) 
ChEMBL_Kinases

>  <Ligand_Instance>  (766) 
nan

>  <PDB_ID>  (766) 
nan

>  <Standardized_SMILES>  (766) 
Cc1csc2c(OC[C@@H]3CCCN3)nc(-c3ccncc3)nc12

>  <Name>  (766) 
nan

>  <Pocket>  (766) 
nan

>  <ATP_Site>  (766) 
nan

>  <Peripheral>  (766) 
nan

>  <Num_H_Atoms_ProtBoundConf>  (766) 
nan

>  <Num_Resolved_Atoms>  (766) 
nan

>  <Num_Not_Resolved_Atoms>  (766) 
nan

$$$$
CHEMBL3730886
     RDKit          3D

  0  0  0  0  0  0  0  0  0  0999 V3000
M  V30 BEGIN CTAB
M  V30 COUNTS 53 57 0 0 0
M  V30 BEGIN ATOM
M  V30 1 N -2.138455 -0.453250 -4.601890 0
M  V30 2 C -2.768601 -1.605610 -4.030698 0
M  V30 3 C -1.803217 -2.532008 -3.343960 0
M  V30 4 N -1.069692 -1.948939 -2.258718 0
M  V30 5 C -1.713373 -1.442285 -1.087379 0
M  V30 6 N -3.044801 -1.554530 -1.095114 0
M  V30 7 C -3.895934 -1.166930 -0.148929 0
M  V30 8 C -5.339122 -1.298806 -0.175899 0
M  V30 9 C -5.984858 -1.874492 -1.250378 0
M  V30 10 C -7.355148 -1.994425 -1.264167 0
M  V30 11 N -8.084436 -1.558604 -0.243655 0
M  V30 12 C -7.489489 -0.992659 0.819446 0
M  V30 13 C -6.117699 -0.850735 0.878208 0
M  V30 14 N -3.311574 -0.603806 0.918208 0
M  V30 15 C -1.955707 -0.457867 0.991874 0
M  V30 16 S -0.955044 0.243115 2.267868 0
M  V30 17 C 0.577407 -0.045266 1.411430 0
M  V30 18 C 0.240970 -0.629935 0.263152 0
M  V30 19 C -1.080796 -0.868418 -0.005111 0
M  V30 20 C 1.419788 -0.959277 -0.589200 0
M  V30 21 C 2.707069 -0.592789 0.037336 0
M  V30 22 N 2.695113 0.636487 0.790923 0
M  V30 23 C 3.248567 1.914537 0.613335 0
M  V30 24 O 3.061718 2.818989 1.470152 0
M  V30 25 C 4.064311 2.297862 -0.543385 0
M  V30 26 C 5.315475 1.446115 -0.666793 0
M  V30 27 C 6.170575 2.699132 -0.826015 0
M  V30 28 C 4.992984 3.487265 -0.295128 0
M  V30 29 C 1.899020 0.340106 1.966213 0
M  V30 30 H -1.155980 -0.728382 -4.833312 0
M  V30 31 H -2.601051 -0.183945 -5.496816 0
M  V30 32 H -3.617721 -1.429444 -3.380630 0
M  V30 33 H -3.183048 -2.197774 -4.900789 0
M  V30 34 H -1.109027 -2.892960 -4.119133 0
M  V30 35 H -2.413060 -3.416959 -3.001287 0
M  V30 36 H -0.050250 -1.954939 -2.460532 0
M  V30 37 H -5.472726 -2.245352 -2.099774 0
M  V30 38 H -7.963009 -2.431405 -2.059776 0
M  V30 39 H -8.092663 -0.631602 1.664731 0
M  V30 40 H -5.682428 -0.387947 1.756236 0
M  V30 41 H 1.382518 -0.390211 -1.552575 0
M  V30 42 H 1.451265 -2.070122 -0.748249 0
M  V30 43 H 3.148200 -1.409124 0.677713 0
M  V30 44 H 3.476484 -0.485894 -0.784349 0
M  V30 45 H 3.564346 2.348029 -1.526152 0
M  V30 46 H 5.587746 0.894219 0.258618 0
M  V30 47 H 5.357761 0.786994 -1.563168 0
M  V30 48 H 7.072004 2.678185 -0.199953 0
M  V30 49 H 6.387868 2.869145 -1.897751 0
M  V30 50 H 5.021557 3.722399 0.769985 0
M  V30 51 H 4.729688 4.346016 -0.936516 0
M  V30 52 H 2.384531 -0.485347 2.545607 0
M  V30 53 H 1.834718 1.238902 2.616554 0
M  V30 END ATOM
M  V30 BEGIN BOND
M  V30 1 1 1 2
M  V30 2 1 2 3
M  V30 3 1 3 4
M  V30 4 1 4 5
M  V30 5 2 5 6
M  V30 6 1 6 7
M  V30 7 1 7 8
M  V30 8 2 8 9
M  V30 9 1 9 10
M  V30 10 2 10 11
M  V30 11 1 11 12
M  V30 12 2 12 13
M  V30 13 2 7 14
M  V30 14 1 14 15
M  V30 15 1 15 16
M  V30 16 1 16 17
M  V30 17 2 17 18
M  V30 18 1 18 19
M  V30 19 1 18 20
M  V30 20 1 20 21
M  V30 21 1 21 22
M  V30 22 1 22 23
M  V30 23 2 23 24
M  V30 24 1 23 25
M  V30 25 1 25 26
M  V30 26 1 26 27
M  V30 27 1 27 28
M  V30 28 1 22 29
M  V30 29 1 19 5
M  V30 30 1 28 25
M  V30 31 1 13 8
M  V30 32 2 19 15
M  V30 33 1 29 17
M  V30 34 1 1 30
M  V30 35 1 1 31
M  V30 36 1 2 32
M  V30 37 1 2 33
M  V30 38 1 3 34
M  V30 39 1 3 35
M  V30 40 1 4 36
M  V30 41 1 9 37
M  V30 42 1 10 38
M  V30 43 1 12 39
M  V30 44 1 13 40
M  V30 45 1 20 41
M  V30 46 1 20 42
M  V30 47 1 21 43
M  V30 48 1 21 44
M  V30 49 1 25 45
M  V30 50 1 26 46
M  V30 51 1 26 47
M  V30 52 1 27 48
M  V30 53 1 27 49
M  V30 54 1 28 50
M  V30 55 1 28 51
M  V30 56 1 29 52
M  V30 57 1 29 53
M  V30 END BOND
M  V30 END CTAB
M  END
>  <Dataset>  (767) 
ChEMBL_Kinases

>  <Ligand_Instance>  (767) 
nan

>  <PDB_ID>  (767) 
nan

>  <Standardized_SMILES>  (767) 
NCCNc1nc(-c2ccncc2)nc2sc3c(c12)CCN(C(=O)C1CCC1)C3

>  <Name>  (767) 
nan

>  <Pocket>  (767) 
nan

>  <ATP_Site>  (767) 
nan

>  <Peripheral>  (767) 
nan

>  <Num_H_Atoms_ProtBoundConf>  (767) 
nan

>  <Num_Resolved_Atoms>  (767) 
nan

>  <Num_Not_Resolved_Atoms>  (767) 
nan

$$$$
CHEMBL523692
     RDKit          3D

  0  0  0  0  0  0  0  0  0  0999 V3000
M  V30 BEGIN CTAB
M  V30 COUNTS 44 47 0 0 0
M  V30 BEGIN ATOM
M  V30 1 C 3.839971 -4.485105 3.759438 0
M  V30 2 C 4.127787 -3.271108 2.945408 0
M  V30 3 O 4.439334 -2.229083 3.613708 0
M  V30 4 N 4.065175 -3.254433 1.523500 0
M  V30 5 C 4.397653 -1.923742 0.991365 0
M  V30 6 C 4.333241 -1.900809 -0.504445 0
M  V30 7 N 3.038861 -2.232320 -1.026991 0
M  V30 8 C 1.822775 -1.545296 -0.797417 0
M  V30 9 N 1.893317 -0.462890 -0.003842 0
M  V30 10 C 0.809129 0.278902 0.292250 0
M  V30 11 S 0.527275 1.786785 1.314570 0
M  V30 12 C -1.331796 1.791458 0.911210 0
M  V30 13 C -2.222832 2.839203 1.469444 0
M  V30 14 C -3.552939 2.866108 1.197860 0
M  V30 15 C -4.312807 3.872627 1.755102 0
M  V30 16 C -3.767419 4.841165 2.570539 0
M  V30 17 F -4.637557 5.755308 3.037261 0
M  V30 18 C -2.419776 4.822498 2.851884 0
M  V30 19 C -1.670149 3.822251 2.296904 0
M  V30 20 N -1.422322 0.861829 0.223119 0
M  V30 21 C -0.483936 0.027721 -0.171203 0
M  V30 22 C -0.549584 -1.083539 -0.984449 0
M  V30 23 C 0.560019 -1.822530 -1.272966 0
M  V30 24 N 0.238281 -2.865686 -2.093255 0
M  V30 25 C -1.095627 -2.792656 -2.332557 0
M  V30 26 N -1.546296 -1.719435 -1.659620 0
M  V30 27 C -2.930124 -1.249317 -1.624382 0
M  V30 28 H 4.833751 -4.841979 4.137313 0
M  V30 29 H 3.149723 -4.248266 4.595946 0
M  V30 30 H 3.336872 -5.274311 3.150807 0
M  V30 31 H 3.798872 -4.159298 1.033006 0
M  V30 32 H 5.371797 -1.581077 1.360923 0
M  V30 33 H 3.646174 -1.236893 1.395089 0
M  V30 34 H 4.550860 -0.857970 -0.815504 0
M  V30 35 H 5.076743 -2.540020 -0.993393 0
M  V30 36 H 2.872262 -3.064807 -1.664189 0
M  V30 37 H -3.875301 2.068092 0.553770 0
M  V30 38 H -5.376166 3.820806 1.485276 0
M  V30 39 H -2.017630 5.595627 3.495529 0
M  V30 40 H -0.606794 3.827962 2.533599 0
M  V30 41 H -1.713211 -3.443865 -2.935803 0
M  V30 42 H -2.996044 -0.157701 -1.606020 0
M  V30 43 H -3.330649 -1.609153 -0.645285 0
M  V30 44 H -3.473029 -1.695874 -2.485911 0
M  V30 END ATOM
M  V30 BEGIN BOND
M  V30 1 1 1 2
M  V30 2 2 2 3
M  V30 3 1 2 4
M  V30 4 1 4 5
M  V30 5 1 5 6
M  V30 6 1 6 7
M  V30 7 1 7 8
M  V30 8 2 8 9
M  V30 9 1 9 10
M  V30 10 1 10 11
M  V30 11 1 11 12
M  V30 12 1 12 13
M  V30 13 2 13 14
M  V30 14 1 14 15
M  V30 15 2 15 16
M  V30 16 1 16 17
M  V30 17 1 16 18
M  V30 18 2 18 19
M  V30 19 2 12 20
M  V30 20 1 20 21
M  V30 21 1 21 22
M  V30 22 2 22 23
M  V30 23 1 23 24
M  V30 24 2 24 25
M  V30 25 1 25 26
M  V30 26 1 26 27
M  V30 27 1 23 8
M  V30 28 2 21 10
M  V30 29 1 26 22
M  V30 30 1 19 13
M  V30 31 1 1 28
M  V30 32 1 1 29
M  V30 33 1 1 30
M  V30 34 1 4 31
M  V30 35 1 5 32
M  V30 36 1 5 33
M  V30 37 1 6 34
M  V30 38 1 6 35
M  V30 39 1 7 36
M  V30 40 1 14 37
M  V30 41 1 15 38
M  V30 42 1 18 39
M  V30 43 1 19 40
M  V30 44 1 25 41
M  V30 45 1 27 42
M  V30 46 1 27 43
M  V30 47 1 27 44
M  V30 END BOND
M  V30 END CTAB
M  END
>  <Dataset>  (768) 
ChEMBL_Kinases

>  <Ligand_Instance>  (768) 
nan

>  <PDB_ID>  (768) 
nan

>  <Standardized_SMILES>  (768) 
CC(=O)NCCNc1nc2sc(-c3ccc(F)cc3)nc2c2c1ncn2C

>  <Name>  (768) 
nan

>  <Pocket>  (768) 
nan

>  <ATP_Site>  (768) 
nan

>  <Peripheral>  (768) 
nan

>  <Num_H_Atoms_ProtBoundConf>  (768) 
nan

>  <Num_Resolved_Atoms>  (768) 
nan

>  <Num_Not_Resolved_Atoms>  (768) 
nan

$$$$
CHEMBL3730885
     RDKit          3D

  0  0  0  0  0  0  0  0  0  0999 V3000
M  V30 BEGIN CTAB
M  V30 COUNTS 59 63 0 0 0
M  V30 BEGIN ATOM
M  V30 1 N 5.012481 -3.398067 -0.295815 0
M  V30 2 C 3.999661 -2.365865 -0.316109 0 CFG=2
M  V30 3 C 3.296483 -2.440086 1.022768 0
M  V30 4 N 2.259616 -1.529694 1.257320 0
M  V30 5 C 1.225303 -0.591093 1.491919 0
M  V30 6 N 1.207185 0.750605 1.511887 0
M  V30 7 C 0.033697 1.344364 1.764107 0
M  V30 8 C 0.069851 2.801467 1.776056 0
M  V30 9 C 1.244934 3.471316 1.541642 0
M  V30 10 C 1.266897 4.870463 1.560384 0
M  V30 11 N 0.103012 5.510313 1.813199 0
M  V30 12 C -1.037003 4.817882 2.038766 0
M  V30 13 C -1.114710 3.454195 2.032974 0
M  V30 14 F -2.267788 2.785068 2.260564 0
M  V30 15 N -1.053057 0.642777 1.982976 0
M  V30 16 C -1.137238 -0.694838 1.984632 0
M  V30 17 C -2.306456 -1.362484 2.223341 0
M  V30 18 C -3.641624 -0.846991 2.510241 0
M  V30 19 C -3.676748 0.173582 3.453619 0
M  V30 20 C -4.902821 0.697837 3.759280 0
M  V30 21 C -6.102741 0.294524 3.205960 0
M  V30 22 C -5.965437 -0.736075 2.268055 0
M  V30 23 C -7.200918 -1.261684 1.599329 0
M  V30 24 O -7.442496 -0.534953 0.436074 0
M  V30 25 C -4.759944 -1.323873 1.900928 0
M  V30 26 C -2.209734 -2.726857 2.189556 0
M  V30 27 S -0.375074 -3.013441 1.800863 0
M  V30 28 C 0.029057 -1.352839 1.733045 0
M  V30 29 C 2.982100 -2.776148 -1.351568 0
M  V30 30 C 3.542647 -2.919632 -2.719219 0
M  V30 31 C 4.093065 -4.106691 -3.245738 0
M  V30 32 C 4.575313 -4.102387 -4.532265 0
M  V30 33 C 4.563599 -3.008846 -5.365471 0
M  V30 34 C 4.034367 -1.831438 -4.888341 0
M  V30 35 C 3.552381 -1.849009 -3.591825 0
M  V30 36 H 5.405849 -3.444368 -1.270053 0
M  V30 37 H 4.652166 -4.302044 0.040743 0
M  V30 38 H 4.477889 -1.404439 -0.476469 0
M  V30 39 H 2.915291 -3.522605 1.058765 0
M  V30 40 H 4.066683 -2.451453 1.819933 0
M  V30 41 H 3.021254 -0.780355 1.107643 0
M  V30 42 H 2.161377 2.944735 1.343105 0
M  V30 43 H 2.228717 5.351960 1.368561 0
M  V30 44 H -1.905748 5.425241 2.230264 0
M  V30 45 H -2.773634 0.547210 3.934892 0
M  V30 46 H -4.957075 1.493805 4.491238 0
M  V30 47 H -7.075562 0.695243 3.432958 0
M  V30 48 H -7.128971 -2.354039 1.428228 0
M  V30 49 H -8.035937 -1.088648 2.287554 0
M  V30 50 H -6.629511 -0.652777 -0.126688 0
M  V30 51 H -4.717710 -2.112376 1.176003 0
M  V30 52 H -2.887831 -3.546096 2.324572 0
M  V30 53 H 2.526299 -3.721707 -0.990298 0
M  V30 54 H 2.228604 -1.975689 -1.400567 0
M  V30 55 H 4.099335 -4.969595 -2.577992 0
M  V30 56 H 4.984179 -5.068776 -4.857126 0
M  V30 57 H 4.958356 -3.065542 -6.370287 0
M  V30 58 H 4.014107 -0.976294 -5.510339 0
M  V30 59 H 3.142881 -0.877729 -3.268228 0
M  V30 END ATOM
M  V30 BEGIN BOND
M  V30 1 1 1 2
M  V30 2 1 2 3
M  V30 3 1 3 4
M  V30 4 1 4 5
M  V30 5 2 5 6
M  V30 6 1 6 7
M  V30 7 1 7 8
M  V30 8 2 8 9
M  V30 9 1 9 10
M  V30 10 2 10 11
M  V30 11 1 11 12
M  V30 12 2 12 13
M  V30 13 1 13 14
M  V30 14 2 7 15
M  V30 15 1 15 16
M  V30 16 1 16 17
M  V30 17 1 17 18
M  V30 18 2 18 19
M  V30 19 1 19 20
M  V30 20 2 20 21
M  V30 21 1 21 22
M  V30 22 1 22 23
M  V30 23 1 23 24
M  V30 24 2 22 25
M  V30 25 2 17 26
M  V30 26 1 26 27
M  V30 27 1 27 28
M  V30 28 1 2 29
M  V30 29 1 29 30
M  V30 30 2 30 31
M  V30 31 1 31 32
M  V30 32 2 32 33
M  V30 33 1 33 34
M  V30 34 2 34 35
M  V30 35 1 28 5
M  V30 36 1 35 30
M  V30 37 1 13 8
M  V30 38 2 28 16
M  V30 39 1 25 18
M  V30 40 1 1 36
M  V30 41 1 1 37
M  V30 42 1 2 38 CFG=3
M  V30 43 1 3 39
M  V30 44 1 3 40
M  V30 45 1 4 41
M  V30 46 1 9 42
M  V30 47 1 10 43
M  V30 48 1 12 44
M  V30 49 1 19 45
M  V30 50 1 20 46
M  V30 51 1 21 47
M  V30 52 1 23 48
M  V30 53 1 23 49
M  V30 54 1 24 50
M  V30 55 1 25 51
M  V30 56 1 26 52
M  V30 57 1 29 53
M  V30 58 1 29 54
M  V30 59 1 31 55
M  V30 60 1 32 56
M  V30 61 1 33 57
M  V30 62 1 34 58
M  V30 63 1 35 59
M  V30 END BOND
M  V30 END CTAB
M  END
>  <Dataset>  (769) 
ChEMBL_Kinases

>  <Ligand_Instance>  (769) 
nan

>  <PDB_ID>  (769) 
nan

>  <Standardized_SMILES>  (769) 
N[C@H](CNc1nc(-c2ccncc2F)nc2c(-c3cccc(CO)c3)csc12)Cc1ccccc1

>  <Name>  (769) 
nan

>  <Pocket>  (769) 
nan

>  <ATP_Site>  (769) 
nan

>  <Peripheral>  (769) 
nan

>  <Num_H_Atoms_ProtBoundConf>  (769) 
nan

>  <Num_Resolved_Atoms>  (769) 
nan

>  <Num_Not_Resolved_Atoms>  (769) 
nan

$$$$
CHEMBL373086
     RDKit          3D

  0  0  0  0  0  0  0  0  0  0999 V3000
M  V30 BEGIN CTAB
M  V30 COUNTS 45 48 0 0 0
M  V30 BEGIN ATOM
M  V30 1 N 3.655244 -0.137713 4.717578 0
M  V30 2 C 3.125535 0.181712 3.719223 0
M  V30 3 C 2.472829 0.593656 2.498506 0
M  V30 4 C 2.833944 0.096687 1.345183 0
M  V30 5 N 2.362369 0.332674 0.025197 0
M  V30 6 C 2.987408 -0.400880 -0.988197 0
M  V30 7 C 2.705532 -0.347487 -2.354855 0
M  V30 8 C 3.421544 -1.142688 -3.218234 0
M  V30 9 C 4.415761 -2.002248 -2.809460 0
M  V30 10 C 4.697835 -2.059606 -1.466374 0
M  V30 11 C 3.987639 -1.269870 -0.607702 0
M  V30 12 S 4.150895 -1.136618 1.183141 0
M  V30 13 C 1.381597 1.557594 2.566628 0
M  V30 14 C 1.311613 2.731920 3.301259 0
M  V30 15 C 0.153092 3.480018 3.223872 0
M  V30 16 N -0.848637 3.041576 2.446682 0
M  V30 17 C -0.822378 1.913668 1.721334 0
M  V30 18 N -1.962911 1.583032 0.937752 0
M  V30 19 C -3.086251 1.047704 1.623144 0
M  V30 20 C -2.918270 -0.230863 2.344597 0
M  V30 21 C -2.553986 -1.411011 1.550933 0
M  V30 22 C -1.324584 -1.939183 1.231177 0
M  V30 23 C -1.125313 -3.067603 0.476793 0
M  V30 24 C -2.227213 -3.739017 -0.007553 0
M  V30 25 O -2.016163 -4.887363 -0.774824 0
M  V30 26 C -3.500003 -3.288928 0.258510 0
M  V30 27 C -3.627954 -2.145013 1.025248 0
M  V30 28 N 0.324205 1.237486 1.839799 0
M  V30 29 H 1.594727 1.028514 -0.101452 0
M  V30 30 H 1.939362 0.295516 -2.800423 0
M  V30 31 H 3.196041 -1.095025 -4.291377 0
M  V30 32 H 4.986218 -2.636850 -3.505717 0
M  V30 33 H 5.469498 -2.719032 -1.098510 0
M  V30 34 H 2.223345 2.936573 3.881600 0
M  V30 35 H 0.187045 4.372639 3.823709 0
M  V30 36 H -1.900486 1.756859 -0.102492 0
M  V30 37 H -3.370135 1.818473 2.403029 0
M  V30 38 H -3.952907 1.063813 0.924917 0
M  V30 39 H -3.871803 -0.478962 2.898884 0
M  V30 40 H -2.143735 -0.122038 3.144683 0
M  V30 41 H -0.492128 -1.383783 1.635140 0
M  V30 42 H -0.111671 -3.394251 0.287737 0
M  V30 43 H -1.880982 -5.764589 -0.277231 0
M  V30 44 H -4.361352 -3.810210 -0.117257 0
M  V30 45 H -4.655578 -1.832288 1.205547 0
M  V30 END ATOM
M  V30 BEGIN BOND
M  V30 1 3 1 2
M  V30 2 1 2 3
M  V30 3 2 3 4
M  V30 4 1 4 5
M  V30 5 1 5 6
M  V30 6 2 6 7
M  V30 7 1 7 8
M  V30 8 2 8 9
M  V30 9 1 9 10
M  V30 10 2 10 11
M  V30 11 1 11 12
M  V30 12 1 3 13
M  V30 13 2 13 14
M  V30 14 1 14 15
M  V30 15 2 15 16
M  V30 16 1 16 17
M  V30 17 1 17 18
M  V30 18 1 18 19
M  V30 19 1 19 20
M  V30 20 1 20 21
M  V30 21 2 21 22
M  V30 22 1 22 23
M  V30 23 2 23 24
M  V30 24 1 24 25
M  V30 25 1 24 26
M  V30 26 2 26 27
M  V30 27 2 17 28
M  V30 28 1 12 4
M  V30 29 1 28 13
M  V30 30 1 11 6
M  V30 31 1 27 21
M  V30 32 1 5 29
M  V30 33 1 7 30
M  V30 34 1 8 31
M  V30 35 1 9 32
M  V30 36 1 10 33
M  V30 37 1 14 34
M  V30 38 1 15 35
M  V30 39 1 18 36
M  V30 40 1 19 37
M  V30 41 1 19 38
M  V30 42 1 20 39
M  V30 43 1 20 40
M  V30 44 1 22 41
M  V30 45 1 23 42
M  V30 46 1 25 43
M  V30 47 1 26 44
M  V30 48 1 27 45
M  V30 END BOND
M  V30 END CTAB
M  END
>  <Dataset>  (770) 
ChEMBL_Kinases

>  <Ligand_Instance>  (770) 
nan

>  <PDB_ID>  (770) 
nan

>  <Standardized_SMILES>  (770) 
N#C/C(=C1/Nc2ccccc2S1)c1ccnc(NCCc2ccc(O)cc2)n1

>  <Name>  (770) 
nan

>  <Pocket>  (770) 
nan

>  <ATP_Site>  (770) 
nan

>  <Peripheral>  (770) 
nan

>  <Num_H_Atoms_ProtBoundConf>  (770) 
nan

>  <Num_Resolved_Atoms>  (770) 
nan

>  <Num_Not_Resolved_Atoms>  (770) 
nan

$$$$
CHEMBL3730853
     RDKit          3D

  0  0  0  0  0  0  0  0  0  0999 V3000
M  V30 BEGIN CTAB
M  V30 COUNTS 48 51 0 0 0
M  V30 BEGIN ATOM
M  V30 1 C 1.883348 -4.772285 -0.582939 0
M  V30 2 C 1.881720 -3.355489 -0.009294 0
M  V30 3 C 1.329134 -3.446678 1.372665 0 CFG=1
M  V30 4 N 2.241731 -4.348734 2.100059 0
M  V30 5 C 1.399092 -2.135691 2.149022 0
M  V30 6 N 0.709861 -1.051858 1.596843 0
M  V30 7 C 0.147083 0.249476 1.254543 0
M  V30 8 N 0.519328 1.398483 1.827659 0
M  V30 9 C 0.199569 2.650157 1.625205 0
M  V30 10 C 0.757855 3.740846 2.402690 0
M  V30 11 C 1.664469 3.438475 3.396962 0
M  V30 12 C 2.211833 4.477996 4.155280 0
M  V30 13 N 1.823928 5.748859 3.877469 0
M  V30 14 C 0.939250 6.018664 2.903977 0
M  V30 15 C 0.363551 5.029480 2.119875 0
M  V30 16 N -0.676119 2.745247 0.639313 0
M  V30 17 C -1.117698 1.670119 -0.000957 0
M  V30 18 S -2.289022 1.707745 -1.320995 0
M  V30 19 C -2.317395 -0.086090 -1.573275 0
M  V30 20 C -1.407567 -0.516323 -0.596581 0
M  V30 21 C -0.769610 0.368645 0.229497 0
M  V30 22 C -1.410190 -1.998635 -0.708512 0
M  V30 23 C -2.891071 -2.429275 -0.582530 0
M  V30 24 C -3.506152 -2.219251 -1.952667 0
M  V30 25 C -3.066212 -0.887103 -2.527415 0
M  V30 26 H 1.036353 -5.321552 -0.128602 0
M  V30 27 H 2.815281 -5.311932 -0.368231 0
M  V30 28 H 1.711774 -4.669021 -1.693336 0
M  V30 29 H 1.394678 -2.672300 -0.696597 0
M  V30 30 H 2.936646 -3.000872 0.092348 0
M  V30 31 H 0.368912 -3.939432 1.386121 0
M  V30 32 H 1.879223 -5.327021 2.070220 0
M  V30 33 H 2.421233 -4.011966 3.049002 0
M  V30 34 H 2.525353 -1.984546 2.242517 0
M  V30 35 H 1.082197 -2.452400 3.201135 0
M  V30 36 H 1.213715 -0.651115 2.392135 0
M  V30 37 H 1.984389 2.431311 3.631362 0
M  V30 38 H 2.926007 4.229882 4.937238 0
M  V30 39 H 0.633307 7.042188 2.687582 0
M  V30 40 H -0.346161 5.243910 1.338696 0
M  V30 41 H -0.837796 -2.430088 0.107461 0
M  V30 42 H -1.054210 -2.282117 -1.709701 0
M  V30 43 H -2.948272 -3.509248 -0.350229 0
M  V30 44 H -3.366785 -1.785511 0.183044 0
M  V30 45 H -4.606281 -2.268560 -1.835122 0
M  V30 46 H -3.209685 -3.079668 -2.583948 0
M  V30 47 H -3.965935 -0.318234 -2.826548 0
M  V30 48 H -2.470635 -1.095702 -3.427713 0
M  V30 END ATOM
M  V30 BEGIN BOND
M  V30 1 1 1 2
M  V30 2 1 2 3
M  V30 3 1 3 4
M  V30 4 1 3 5
M  V30 5 1 5 6
M  V30 6 1 6 7
M  V30 7 2 7 8
M  V30 8 1 8 9
M  V30 9 1 9 10
M  V30 10 2 10 11
M  V30 11 1 11 12
M  V30 12 2 12 13
M  V30 13 1 13 14
M  V30 14 2 14 15
M  V30 15 2 9 16
M  V30 16 1 16 17
M  V30 17 1 17 18
M  V30 18 1 18 19
M  V30 19 2 19 20
M  V30 20 1 20 21
M  V30 21 1 20 22
M  V30 22 1 22 23
M  V30 23 1 23 24
M  V30 24 1 24 25
M  V30 25 1 21 7
M  V30 26 1 15 10
M  V30 27 2 21 17
M  V30 28 1 25 19
M  V30 29 1 1 26
M  V30 30 1 1 27
M  V30 31 1 1 28
M  V30 32 1 2 29
M  V30 33 1 2 30
M  V30 34 1 3 31 CFG=3
M  V30 35 1 4 32
M  V30 36 1 4 33
M  V30 37 1 5 34
M  V30 38 1 5 35
M  V30 39 1 6 36
M  V30 40 1 11 37
M  V30 41 1 12 38
M  V30 42 1 14 39
M  V30 43 1 15 40
M  V30 44 1 22 41
M  V30 45 1 22 42
M  V30 46 1 23 43
M  V30 47 1 23 44
M  V30 48 1 24 45
M  V30 49 1 24 46
M  V30 50 1 25 47
M  V30 51 1 25 48
M  V30 END BOND
M  V30 END CTAB
M  END
>  <Dataset>  (771) 
ChEMBL_Kinases

>  <Ligand_Instance>  (771) 
nan

>  <PDB_ID>  (771) 
nan

>  <Standardized_SMILES>  (771) 
CC[C@@H](N)CNc1nc(-c2ccncc2)nc2sc3c(c12)CCCC3

>  <Name>  (771) 
nan

>  <Pocket>  (771) 
nan

>  <ATP_Site>  (771) 
nan

>  <Peripheral>  (771) 
nan

>  <Num_H_Atoms_ProtBoundConf>  (771) 
nan

>  <Num_Resolved_Atoms>  (771) 
nan

>  <Num_Not_Resolved_Atoms>  (771) 
nan

$$$$
CHEMBL3730839
     RDKit          3D

  0  0  0  0  0  0  0  0  0  0999 V3000
M  V30 BEGIN CTAB
M  V30 COUNTS 55 58 0 0 0
M  V30 BEGIN ATOM
M  V30 1 C 0.940141 -4.005500 4.284163 0
M  V30 2 N 2.034261 -4.052324 5.271371 0
M  V30 3 C 3.266652 -4.157816 4.434590 0
M  V30 4 C 3.371880 -2.914485 3.695236 0
M  V30 5 C 3.436286 -1.885040 3.085016 0
M  V30 6 C 3.489178 -0.591295 2.320703 0
M  V30 7 C 4.115017 0.471165 2.814870 0
M  V30 8 S 3.501051 1.789663 1.755704 0
M  V30 9 C 2.512351 0.735228 0.823760 0
M  V30 10 C 1.608750 0.922342 -0.268923 0
M  V30 11 N 0.978683 2.208617 -0.463039 0
M  V30 12 C 0.305459 3.565470 -0.681311 0
M  V30 13 C -1.128436 3.070369 -1.028573 0 CFG=1
M  V30 14 N -1.142936 2.262578 -2.207149 0
M  V30 15 C -1.836453 2.449297 0.162318 0
M  V30 16 C -3.009371 1.703209 -0.389539 0
M  V30 17 C -3.002042 0.339522 -0.074061 0
M  V30 18 C -3.826842 -0.575147 -0.670371 0
M  V30 19 C -4.683583 -0.084960 -1.625168 0
M  V30 20 C -4.707976 1.232891 -1.941280 0
M  V30 21 C -3.861645 2.178653 -1.313719 0
M  V30 22 N 0.920677 -0.112291 -0.863210 0
M  V30 23 C 1.101889 -1.332723 -0.390032 0
M  V30 24 C 0.441953 -2.615292 -0.681099 0
M  V30 25 C -0.747979 -2.635068 -1.360457 0
M  V30 26 C -1.497369 -3.756513 -1.587463 0
M  V30 27 N -1.048216 -4.958540 -1.120049 0
M  V30 28 C 0.091681 -4.988301 -0.466082 0
M  V30 29 C 0.858569 -3.859465 -0.229829 0
M  V30 30 N 1.923827 -1.448250 0.609586 0
M  V30 31 C 2.630995 -0.516836 1.252721 0
M  V30 32 H 1.303616 -3.750018 3.275725 0
M  V30 33 H 0.367490 -4.928881 4.233517 0
M  V30 34 H 0.180879 -3.198139 4.540383 0
M  V30 35 H 2.116345 -3.049781 5.619437 0
M  V30 36 H 3.095973 -5.065866 3.824251 0
M  V30 37 H 4.153457 -4.282402 5.048560 0
M  V30 38 H 4.827763 0.586316 3.625402 0
M  V30 39 H 0.649884 2.027806 -1.488816 0
M  V30 40 H 0.293442 4.111597 0.250447 0
M  V30 41 H 0.730871 4.038789 -1.510292 0
M  V30 42 H -1.737769 4.010675 -1.233976 0
M  V30 43 H -1.250555 1.277581 -2.158706 0
M  V30 44 H -0.747531 2.684345 -3.024181 0
M  V30 45 H -1.132481 1.790984 0.668223 0
M  V30 46 H -2.176305 3.210051 0.853103 0
M  V30 47 H -2.307951 -0.063369 0.681236 0
M  V30 48 H -3.766788 -1.628655 -0.367258 0
M  V30 49 H -5.314050 -0.802358 -2.109521 0
M  V30 50 H -5.365705 1.629633 -2.683371 0
M  V30 51 H -3.793208 3.258236 -1.494251 0
M  V30 52 H -1.179624 -1.750432 -1.750408 0
M  V30 53 H -2.459298 -3.859093 -2.102892 0
M  V30 54 H 0.597665 -5.817932 -0.033818 0
M  V30 55 H 1.822509 -3.809178 0.295769 0
M  V30 END ATOM
M  V30 BEGIN BOND
M  V30 1 1 1 2
M  V30 2 1 2 3
M  V30 3 1 3 4
M  V30 4 3 4 5
M  V30 5 1 5 6
M  V30 6 2 6 7
M  V30 7 1 7 8
M  V30 8 1 8 9
M  V30 9 2 9 10
M  V30 10 1 10 11
M  V30 11 1 11 12
M  V30 12 1 12 13
M  V30 13 1 13 14
M  V30 14 1 13 15
M  V30 15 1 15 16
M  V30 16 2 16 17
M  V30 17 1 17 18
M  V30 18 2 18 19
M  V30 19 1 19 20
M  V30 20 2 20 21
M  V30 21 1 10 22
M  V30 22 2 22 23
M  V30 23 1 23 24
M  V30 24 2 24 25
M  V30 25 1 25 26
M  V30 26 2 26 27
M  V30 27 1 27 28
M  V30 28 2 28 29
M  V30 29 1 23 30
M  V30 30 2 30 31
M  V30 31 1 31 6
M  V30 32 1 31 9
M  V30 33 1 21 16
M  V30 34 1 29 24
M  V30 35 1 1 32
M  V30 36 1 1 33
M  V30 37 1 1 34
M  V30 38 1 2 35
M  V30 39 1 3 36
M  V30 40 1 3 37
M  V30 41 1 7 38
M  V30 42 1 11 39
M  V30 43 1 12 40
M  V30 44 1 12 41
M  V30 45 1 13 42 CFG=3
M  V30 46 1 14 43
M  V30 47 1 14 44
M  V30 48 1 15 45
M  V30 49 1 15 46
M  V30 50 1 17 47
M  V30 51 1 18 48
M  V30 52 1 19 49
M  V30 53 1 20 50
M  V30 54 1 21 51
M  V30 55 1 25 52
M  V30 56 1 26 53
M  V30 57 1 28 54
M  V30 58 1 29 55
M  V30 END BOND
M  V30 END CTAB
M  END
>  <Dataset>  (772) 
ChEMBL_Kinases

>  <Ligand_Instance>  (772) 
nan

>  <PDB_ID>  (772) 
nan

>  <Standardized_SMILES>  (772) 
CNCC#Cc1csc2c(NC[C@@H](N)Cc3ccccc3)nc(-c3ccncc3)nc12

>  <Name>  (772) 
nan

>  <Pocket>  (772) 
nan

>  <ATP_Site>  (772) 
nan

>  <Peripheral>  (772) 
nan

>  <Num_H_Atoms_ProtBoundConf>  (772) 
nan

>  <Num_Resolved_Atoms>  (772) 
nan

>  <Num_Not_Resolved_Atoms>  (772) 
nan

$$$$
CHEMBL3730837
     RDKit          3D

  0  0  0  0  0  0  0  0  0  0999 V3000
M  V30 BEGIN CTAB
M  V30 COUNTS 71 76 0 0 0
M  V30 BEGIN ATOM
M  V30 1 C 5.224859 -1.731835 1.466894 0
M  V30 2 N 4.082745 -1.696364 0.612277 0
M  V30 3 C 2.942035 -2.327294 0.935703 0
M  V30 4 N 2.728563 -3.062378 2.130557 0
M  V30 5 C 3.572114 -3.287008 3.277708 0
M  V30 6 C 2.680277 -3.699693 4.466932 0
M  V30 7 N 1.501691 -2.834954 4.511182 0
M  V30 8 C 0.607561 -3.155852 3.409873 0 CFG=1
M  V30 9 C -0.161889 -2.006231 2.915171 0
M  V30 10 C 0.439859 -0.803242 2.677559 0
M  V30 11 C -0.304258 0.252869 2.216154 0
M  V30 12 C -1.657604 0.221696 1.956551 0
M  V30 13 N -2.423512 1.317238 1.478420 0
M  V30 14 C -3.847758 1.204813 1.238402 0
M  V30 15 C -4.238857 2.234721 0.208533 0
M  V30 16 N -3.205864 2.317779 -0.802954 0
M  V30 17 C -3.368919 1.990916 -2.158033 0
M  V30 18 C -4.541283 1.550571 -2.713814 0
M  V30 19 C -4.722386 1.224111 -4.040719 0
M  V30 20 C -3.632132 1.345794 -4.905163 0
M  V30 21 C -2.446758 1.781114 -4.391134 0
M  V30 22 C -2.324272 2.096592 -3.039330 0
M  V30 23 C -1.912274 2.781882 -0.324679 0
M  V30 24 C -1.847905 2.616765 1.197185 0
M  V30 25 C -2.227959 -0.998388 2.205806 0
M  V30 26 C -1.524738 -2.089426 2.669340 0
M  V30 27 C 1.468389 -3.756376 2.331215 0
M  V30 28 N 1.914355 -2.257619 0.086874 0
M  V30 29 C 1.896256 -1.608818 -1.084242 0
M  V30 30 C 0.675531 -1.651945 -1.865555 0
M  V30 31 C -0.400037 -2.355126 -1.366435 0
M  V30 32 C -1.585605 -2.428338 -2.067636 0
M  V30 33 N -1.754354 -1.832574 -3.247722 0
M  V30 34 C -0.742386 -1.127683 -3.794628 0
M  V30 35 C 0.432287 -1.067380 -3.078208 0
M  V30 36 F 1.430317 -0.357993 -3.641814 0
M  V30 37 C 3.077325 -0.979754 -1.375205 0
M  V30 38 C 4.155710 -1.012238 -0.557817 0
M  V30 39 O 5.226808 -0.413070 -0.872949 0
M  V30 40 H 5.252405 -0.930879 2.245333 0
M  V30 41 H 5.526283 -2.731057 1.826134 0
M  V30 42 H 6.122525 -1.442232 0.821987 0
M  V30 43 H 4.079189 -2.387290 3.663935 0
M  V30 44 H 4.244982 -4.177937 3.168011 0
M  V30 45 H 3.253125 -3.491351 5.393140 0
M  V30 46 H 2.450463 -4.765511 4.440009 0
M  V30 47 H 0.999571 -3.129595 5.387307 0
M  V30 48 H -0.111038 -3.950314 3.698628 0
M  V30 49 H 1.495043 -0.721441 2.863399 0
M  V30 50 H 0.251699 1.164137 2.055025 0
M  V30 51 H -4.341586 1.504977 2.208425 0
M  V30 52 H -4.203210 0.202572 1.004493 0
M  V30 53 H -5.249781 2.071953 -0.190026 0
M  V30 54 H -4.247275 3.237976 0.726921 0
M  V30 55 H -5.422944 1.432433 -2.108749 0
M  V30 56 H -5.675188 0.877915 -4.439243 0
M  V30 57 H -3.756683 1.096047 -5.936432 0
M  V30 58 H -1.632088 1.859431 -5.097590 0
M  V30 59 H -1.341355 2.426029 -2.762594 0
M  V30 60 H -1.735482 3.854426 -0.527009 0
M  V30 61 H -1.090139 2.151398 -0.759138 0
M  V30 62 H -0.817185 2.755815 1.495642 0
M  V30 63 H -2.462977 3.398163 1.698346 0
M  V30 64 H -3.256433 -1.213970 2.067175 0
M  V30 65 H -1.966031 -3.068081 2.872590 0
M  V30 66 H 1.700710 -4.813107 2.557091 0
M  V30 67 H 0.885610 -3.810316 1.372028 0
M  V30 68 H -0.381510 -2.873574 -0.429050 0
M  V30 69 H -2.424306 -2.975793 -1.679299 0
M  V30 70 H -0.854088 -0.643633 -4.735751 0
M  V30 71 H 3.159038 -0.431904 -2.295438 0
M  V30 END ATOM
M  V30 BEGIN BOND
M  V30 1 1 1 2
M  V30 2 1 2 3
M  V30 3 1 3 4
M  V30 4 1 4 5
M  V30 5 1 5 6
M  V30 6 1 6 7
M  V30 7 1 7 8
M  V30 8 1 8 9
M  V30 9 2 9 10
M  V30 10 1 10 11
M  V30 11 2 11 12
M  V30 12 1 12 13
M  V30 13 1 13 14
M  V30 14 1 14 15
M  V30 15 1 15 16
M  V30 16 1 16 17
M  V30 17 2 17 18
M  V30 18 1 18 19
M  V30 19 2 19 20
M  V30 20 1 20 21
M  V30 21 2 21 22
M  V30 22 1 16 23
M  V30 23 1 23 24
M  V30 24 1 12 25
M  V30 25 2 25 26
M  V30 26 1 8 27
M  V30 27 2 3 28
M  V30 28 1 28 29
M  V30 29 1 29 30
M  V30 30 2 30 31
M  V30 31 1 31 32
M  V30 32 2 32 33
M  V30 33 1 33 34
M  V30 34 2 34 35
M  V30 35 1 35 36
M  V30 36 2 29 37
M  V30 37 1 37 38
M  V30 38 2 38 39
M  V30 39 1 38 2
M  V30 40 1 27 4
M  V30 41 1 35 30
M  V30 42 1 26 9
M  V30 43 1 24 13
M  V30 44 1 22 17
M  V30 45 1 1 40
M  V30 46 1 1 41
M  V30 47 1 1 42
M  V30 48 1 5 43
M  V30 49 1 5 44
M  V30 50 1 6 45
M  V30 51 1 6 46
M  V30 52 1 7 47
M  V30 53 1 8 48 CFG=1
M  V30 54 1 10 49
M  V30 55 1 11 50
M  V30 56 1 14 51
M  V30 57 1 14 52
M  V30 58 1 15 53
M  V30 59 1 15 54
M  V30 60 1 18 55
M  V30 61 1 19 56
M  V30 62 1 20 57
M  V30 63 1 21 58
M  V30 64 1 22 59
M  V30 65 1 23 60
M  V30 66 1 23 61
M  V30 67 1 24 62
M  V30 68 1 24 63
M  V30 69 1 25 64
M  V30 70 1 26 65
M  V30 71 1 27 66
M  V30 72 1 27 67
M  V30 73 1 31 68
M  V30 74 1 32 69
M  V30 75 1 34 70
M  V30 76 1 37 71
M  V30 END BOND
M  V30 END CTAB
M  END
>  <Dataset>  (773) 
ChEMBL_Kinases

>  <Ligand_Instance>  (773) 
nan

>  <PDB_ID>  (773) 
nan

>  <Standardized_SMILES>  (773) 
Cn1c(N2CCN[C@@H](c3ccc(N4CCN(c5ccccc5)CC4)cc3)C2)nc(-c2ccncc2F)cc1=O

>  <Name>  (773) 
nan

>  <Pocket>  (773) 
nan

>  <ATP_Site>  (773) 
nan

>  <Peripheral>  (773) 
nan

>  <Num_H_Atoms_ProtBoundConf>  (773) 
nan

>  <Num_Resolved_Atoms>  (773) 
nan

>  <Num_Not_Resolved_Atoms>  (773) 
nan

$$$$
CHEMBL3730828
     RDKit          3D

  0  0  0  0  0  0  0  0  0  0999 V3000
M  V30 BEGIN CTAB
M  V30 COUNTS 46 50 0 0 0
M  V30 BEGIN ATOM
M  V30 1 C 2.495030 -4.565316 3.720659 0
M  V30 2 C 1.356062 -4.169326 3.052122 0
M  V30 3 N 1.239099 -4.228948 1.693264 0
M  V30 4 C 2.272821 -4.688835 1.003028 0
M  V30 5 N 2.210044 -4.767319 -0.437685 0
M  V30 6 C 0.941145 -4.327810 -0.968989 0
M  V30 7 C 0.655688 -3.007085 -0.683958 0
M  V30 8 C -0.528206 -2.483664 -1.146560 0
M  V30 9 C -0.844775 -1.093669 -0.846086 0
M  V30 10 N 0.021122 -0.381259 -0.115082 0
M  V30 11 C -0.247965 0.892900 0.176919 0
M  V30 12 N 0.576737 1.760958 0.921819 0
M  V30 13 C 0.450128 3.133964 1.381887 0 CFG=2
M  V30 14 C 1.713763 3.642267 2.000819 0
M  V30 15 C 1.348734 4.088364 3.377237 0
M  V30 16 N 0.163017 3.367090 3.712804 0
M  V30 17 C -0.583743 3.260489 2.461750 0
M  V30 18 C -1.422415 1.390054 -0.307855 0
M  V30 19 S -2.251480 3.086243 -0.198994 0
M  V30 20 C -3.772184 2.592077 -1.225292 0
M  V30 21 C -3.506398 1.276156 -1.522739 0
M  V30 22 C -2.379615 0.664565 -1.095153 0
M  V30 23 N -1.985045 -0.597925 -1.311989 0
M  V30 24 C -1.391262 -3.265725 -1.871159 0
M  V30 25 C -1.062490 -4.589753 -2.134251 0
M  V30 26 N 0.105823 -5.126128 -1.683951 0
M  V30 27 C 3.433775 -5.097879 1.620777 0
M  V30 28 N 3.495319 -5.018994 2.946243 0
M  V30 29 H 2.413671 -4.450179 4.774865 0
M  V30 30 H 0.459648 -3.777243 3.537743 0
M  V30 31 H 3.021369 -5.111416 -0.995993 0
M  V30 32 H 1.329725 -2.374771 -0.111467 0
M  V30 33 H 1.459488 1.306988 1.193840 0
M  V30 34 H 0.158077 3.816047 0.550432 0
M  V30 35 H 2.174975 4.470333 1.404493 0
M  V30 36 H 2.448459 2.786350 2.086465 0
M  V30 37 H 2.165828 3.889748 4.114766 0
M  V30 38 H 1.198981 5.196427 3.366627 0
M  V30 39 H 0.451237 2.379550 3.971817 0
M  V30 40 H -1.170269 4.190828 2.332447 0
M  V30 41 H -1.228341 2.348376 2.490877 0
M  V30 42 H -4.460135 3.295034 -1.375249 0
M  V30 43 H -4.281644 0.825515 -2.113106 0
M  V30 44 H -2.326291 -2.899403 -2.252562 0
M  V30 45 H -1.750377 -5.195589 -2.706653 0
M  V30 46 H 4.321169 -5.488556 1.098973 0
M  V30 END ATOM
M  V30 BEGIN BOND
M  V30 1 2 1 2
M  V30 2 1 2 3
M  V30 3 2 3 4
M  V30 4 1 4 5
M  V30 5 1 5 6
M  V30 6 2 6 7
M  V30 7 1 7 8
M  V30 8 1 8 9
M  V30 9 2 9 10
M  V30 10 1 10 11
M  V30 11 1 11 12
M  V30 12 1 12 13
M  V30 13 1 13 14
M  V30 14 1 14 15
M  V30 15 1 15 16
M  V30 16 1 16 17
M  V30 17 2 11 18
M  V30 18 1 18 19
M  V30 19 1 19 20
M  V30 20 2 20 21
M  V30 21 1 21 22
M  V30 22 2 22 23
M  V30 23 2 8 24
M  V30 24 1 24 25
M  V30 25 2 25 26
M  V30 26 1 4 27
M  V30 27 2 27 28
M  V30 28 1 28 1
M  V30 29 1 26 6
M  V30 30 1 23 9
M  V30 31 1 17 13
M  V30 32 1 22 18
M  V30 33 1 1 29
M  V30 34 1 2 30
M  V30 35 1 5 31
M  V30 36 1 7 32
M  V30 37 1 12 33
M  V30 38 1 13 34 CFG=3
M  V30 39 1 14 35
M  V30 40 1 14 36
M  V30 41 1 15 37
M  V30 42 1 15 38
M  V30 43 1 16 39
M  V30 44 1 17 40
M  V30 45 1 17 41
M  V30 46 1 20 42
M  V30 47 1 21 43
M  V30 48 1 24 44
M  V30 49 1 25 45
M  V30 50 1 27 46
M  V30 END BOND
M  V30 END CTAB
M  END
>  <Dataset>  (774) 
ChEMBL_Kinases

>  <Ligand_Instance>  (774) 
nan

>  <PDB_ID>  (774) 
nan

>  <Standardized_SMILES>  (774) 
c1cnc(Nc2cc(-c3nc(N[C@@H]4CCNC4)c4sccc4n3)ccn2)cn1

>  <Name>  (774) 
nan

>  <Pocket>  (774) 
nan

>  <ATP_Site>  (774) 
nan

>  <Peripheral>  (774) 
nan

>  <Num_H_Atoms_ProtBoundConf>  (774) 
nan

>  <Num_Resolved_Atoms>  (774) 
nan

>  <Num_Not_Resolved_Atoms>  (774) 
nan

$$$$
CHEMBL3730825
     RDKit          3D

  0  0  0  0  0  0  0  0  0  0999 V3000
M  V30 BEGIN CTAB
M  V30 COUNTS 59 63 0 0 0
M  V30 BEGIN ATOM
M  V30 1 C 4.713354 -1.680646 3.968290 0
M  V30 2 N 5.637384 -0.621971 4.316380 0
M  V30 3 C 5.069367 0.307968 5.262431 0
M  V30 4 S 6.320865 0.130603 2.932608 0
M  V30 5 O 7.245244 1.221466 3.428217 0
M  V30 6 O 7.093778 -0.896057 2.166692 0
M  V30 7 C 5.110133 0.888803 1.929914 0
M  V30 8 C 4.488827 0.084200 1.000683 0
M  V30 9 C 3.503441 0.606682 0.153711 0
M  V30 10 C 3.146082 1.956088 0.250909 0
M  V30 11 N 2.130099 2.488845 -0.579970 0
M  V30 12 C 0.905640 1.936851 -1.015408 0
M  V30 13 C 0.353977 0.752309 -0.593145 0
M  V30 14 C -0.823024 0.237553 -1.041528 0
M  V30 15 C -1.372377 -1.033136 -0.556593 0
M  V30 16 N -2.553494 -1.465948 -1.069747 0
M  V30 17 C -3.033807 -2.622449 -0.610263 0
M  V30 18 N -4.227257 -3.286540 -0.969952 0
M  V30 19 C -5.054880 -2.646479 -1.960830 0 CFG=2
M  V30 20 C -5.512742 -1.276748 -1.513870 0
M  V30 21 C -6.809696 -1.099212 -2.236192 0
M  V30 22 N -7.296926 -2.389113 -2.596883 0
M  V30 23 C -6.345703 -3.374242 -2.196999 0
M  V30 24 C -2.280276 -3.273208 0.348808 0
M  V30 25 S -2.579775 -4.894929 1.250901 0
M  V30 26 C -0.964598 -4.795183 2.288781 0
M  V30 27 C -0.404382 -3.567066 1.834165 0
M  V30 28 C -1.050780 -2.840124 0.895064 0
M  V30 29 N -0.651133 -1.674169 0.373336 0
M  V30 30 C -1.544747 0.903015 -1.973937 0
M  V30 31 C -0.988489 2.104391 -2.403649 0
M  V30 32 N 0.176582 2.583257 -1.939426 0
M  V30 33 C 3.805496 2.719615 1.204555 0
M  V30 34 C 4.786641 2.225978 2.057693 0
M  V30 35 H 3.700313 -1.232973 3.858797 0
M  V30 36 H 5.015634 -2.262380 3.100822 0
M  V30 37 H 4.644032 -2.371858 4.845748 0
M  V30 38 H 5.565316 1.275250 5.287038 0
M  V30 39 H 5.155929 -0.160518 6.268009 0
M  V30 40 H 3.973723 0.389706 5.062002 0
M  V30 41 H 4.754268 -0.975270 0.907451 0
M  V30 42 H 3.072518 -0.084927 -0.554387 0
M  V30 43 H 2.391673 3.441424 -0.884958 0
M  V30 44 H 0.863997 0.166625 0.156322 0
M  V30 45 H -4.552157 -4.187463 -0.582161 0
M  V30 46 H -4.514231 -2.500698 -2.936967 0
M  V30 47 H -4.743367 -0.505861 -1.809239 0
M  V30 48 H -5.604581 -1.283875 -0.404271 0
M  V30 49 H -6.612856 -0.525140 -3.181828 0
M  V30 50 H -7.548938 -0.499302 -1.660854 0
M  V30 51 H -7.655770 -2.486088 -3.555863 0
M  V30 52 H -6.255015 -4.224850 -2.912682 0
M  V30 53 H -6.671072 -3.801106 -1.216460 0
M  V30 54 H -0.661267 -5.494605 2.974541 0
M  V30 55 H 0.527161 -3.324553 2.305337 0
M  V30 56 H -2.478745 0.606442 -2.404355 0
M  V30 57 H -1.512911 2.686126 -3.145569 0
M  V30 58 H 3.544497 3.778586 1.299183 0
M  V30 59 H 5.277897 2.851971 2.789143 0
M  V30 END ATOM
M  V30 BEGIN BOND
M  V30 1 1 1 2
M  V30 2 1 2 3
M  V30 3 1 2 4
M  V30 4 2 4 5
M  V30 5 2 4 6
M  V30 6 1 4 7
M  V30 7 2 7 8
M  V30 8 1 8 9
M  V30 9 2 9 10
M  V30 10 1 10 11
M  V30 11 1 11 12
M  V30 12 2 12 13
M  V30 13 1 13 14
M  V30 14 1 14 15
M  V30 15 2 15 16
M  V30 16 1 16 17
M  V30 17 1 17 18
M  V30 18 1 18 19
M  V30 19 1 19 20
M  V30 20 1 20 21
M  V30 21 1 21 22
M  V30 22 1 22 23
M  V30 23 2 17 24
M  V30 24 1 24 25
M  V30 25 1 25 26
M  V30 26 2 26 27
M  V30 27 1 27 28
M  V30 28 2 28 29
M  V30 29 2 14 30
M  V30 30 1 30 31
M  V30 31 2 31 32
M  V30 32 1 10 33
M  V30 33 2 33 34
M  V30 34 1 34 7
M  V30 35 1 32 12
M  V30 36 1 29 15
M  V30 37 1 23 19
M  V30 38 1 28 24
M  V30 39 1 1 35
M  V30 40 1 1 36
M  V30 41 1 1 37
M  V30 42 1 3 38
M  V30 43 1 3 39
M  V30 44 1 3 40
M  V30 45 1 8 41
M  V30 46 1 9 42
M  V30 47 1 11 43
M  V30 48 1 13 44
M  V30 49 1 18 45
M  V30 50 1 19 46 CFG=3
M  V30 51 1 20 47
M  V30 52 1 20 48
M  V30 53 1 21 49
M  V30 54 1 21 50
M  V30 55 1 22 51
M  V30 56 1 23 52
M  V30 57 1 23 53
M  V30 58 1 26 54
M  V30 59 1 27 55
M  V30 60 1 30 56
M  V30 61 1 31 57
M  V30 62 1 33 58
M  V30 63 1 34 59
M  V30 END BOND
M  V30 END CTAB
M  END
>  <Dataset>  (775) 
ChEMBL_Kinases

>  <Ligand_Instance>  (775) 
nan

>  <PDB_ID>  (775) 
nan

>  <Standardized_SMILES>  (775) 
CN(C)S(=O)(=O)c1ccc(Nc2cc(-c3nc(N[C@@H]4CCNC4)c4sccc4n3)ccn2)cc1

>  <Name>  (775) 
nan

>  <Pocket>  (775) 
nan

>  <ATP_Site>  (775) 
nan

>  <Peripheral>  (775) 
nan

>  <Num_H_Atoms_ProtBoundConf>  (775) 
nan

>  <Num_Resolved_Atoms>  (775) 
nan

>  <Num_Not_Resolved_Atoms>  (775) 
nan

$$$$
CHEMBL3730633
     RDKit          3D

  0  0  0  0  0  0  0  0  0  0999 V3000
M  V30 BEGIN CTAB
M  V30 COUNTS 47 49 0 0 0
M  V30 BEGIN ATOM
M  V30 1 C -1.928385 -4.602189 -0.195988 0
M  V30 2 C -0.569804 -3.917167 0.014389 0
M  V30 3 C -0.415790 -3.424364 1.417024 0
M  V30 4 C -0.320179 -2.926594 -1.081775 0
M  V30 5 C 0.937109 -2.191389 -0.979800 0
M  V30 6 C 1.940976 -2.910697 -1.711339 0
M  V30 7 S 3.508709 -1.896231 -1.432717 0
M  V30 8 C 2.679991 -0.673317 -0.412043 0
M  V30 9 N 3.184127 0.421821 0.166528 0
M  V30 10 C 2.424826 1.257385 0.887034 0
M  V30 11 C 2.925512 2.455314 1.528006 0
M  V30 12 C 4.265264 2.781511 1.401895 0
M  V30 13 C 4.683623 3.936146 2.032998 0
M  V30 14 N 3.847690 4.738122 2.752222 0
M  V30 15 C 2.570236 4.365440 2.833178 0
M  V30 16 C 2.023853 3.241588 2.253508 0
M  V30 17 N 1.165701 0.873562 0.948291 0
M  V30 18 C 0.586337 -0.195512 0.405318 0
M  V30 19 N -0.804536 -0.326661 0.646488 0
M  V30 20 C -1.488949 0.651456 1.432101 0
M  V30 21 C -2.944755 0.496052 1.627587 0 CFG=2
M  V30 22 C -3.246530 -0.803604 2.309145 0
M  V30 23 N -3.721894 0.688772 0.420978 0
M  V30 24 C 1.333321 -1.066681 -0.333674 0
M  V30 25 H -2.608989 -4.260526 0.625423 0
M  V30 26 H -2.328202 -4.340293 -1.198702 0
M  V30 27 H -1.871176 -5.697853 -0.114082 0
M  V30 28 H 0.160216 -4.782786 -0.069614 0
M  V30 29 H 0.502488 -2.829149 1.531591 0
M  V30 30 H -0.247412 -4.329436 2.062607 0
M  V30 31 H -1.283533 -2.850516 1.805863 0
M  V30 32 H -1.212704 -2.287628 -1.205442 0
M  V30 33 H -0.370524 -3.534798 -2.049164 0
M  V30 34 H 2.061285 -3.770526 -2.312689 0
M  V30 35 H 4.962356 2.170651 0.839264 0
M  V30 36 H 5.738239 4.178020 1.924401 0
M  V30 37 H 1.912495 5.006603 3.405774 0
M  V30 38 H 0.976817 2.967724 2.339838 0
M  V30 39 H -1.591136 -0.952018 0.436849 0
M  V30 40 H -1.316595 1.697107 1.060989 0
M  V30 41 H -1.026257 0.676273 2.464539 0
M  V30 42 H -3.268549 1.316534 2.319350 0
M  V30 43 H -2.452196 -0.994477 3.045008 0
M  V30 44 H -3.324666 -1.610551 1.545742 0
M  V30 45 H -4.189504 -0.694641 2.885342 0
M  V30 46 H -3.284483 0.309877 -0.436985 0
M  V30 47 H -3.984338 1.695380 0.286343 0
M  V30 END ATOM
M  V30 BEGIN BOND
M  V30 1 1 1 2
M  V30 2 1 2 3
M  V30 3 1 2 4
M  V30 4 1 4 5
M  V30 5 2 5 6
M  V30 6 1 6 7
M  V30 7 1 7 8
M  V30 8 2 8 9
M  V30 9 1 9 10
M  V30 10 1 10 11
M  V30 11 2 11 12
M  V30 12 1 12 13
M  V30 13 2 13 14
M  V30 14 1 14 15
M  V30 15 2 15 16
M  V30 16 2 10 17
M  V30 17 1 17 18
M  V30 18 1 18 19
M  V30 19 1 19 20
M  V30 20 1 20 21
M  V30 21 1 21 22
M  V30 22 1 21 23
M  V30 23 2 18 24
M  V30 24 1 24 5
M  V30 25 1 24 8
M  V30 26 1 16 11
M  V30 27 1 1 25
M  V30 28 1 1 26
M  V30 29 1 1 27
M  V30 30 1 2 28
M  V30 31 1 3 29
M  V30 32 1 3 30
M  V30 33 1 3 31
M  V30 34 1 4 32
M  V30 35 1 4 33
M  V30 36 1 6 34
M  V30 37 1 12 35
M  V30 38 1 13 36
M  V30 39 1 15 37
M  V30 40 1 16 38
M  V30 41 1 19 39
M  V30 42 1 20 40
M  V30 43 1 20 41
M  V30 44 1 21 42 CFG=1
M  V30 45 1 22 43
M  V30 46 1 22 44
M  V30 47 1 22 45
M  V30 48 1 23 46
M  V30 49 1 23 47
M  V30 END BOND
M  V30 END CTAB
M  END
>  <Dataset>  (776) 
ChEMBL_Kinases

>  <Ligand_Instance>  (776) 
nan

>  <PDB_ID>  (776) 
nan

>  <Standardized_SMILES>  (776) 
CC(C)Cc1csc2nc(-c3ccncc3)nc(NC[C@H](C)N)c12

>  <Name>  (776) 
nan

>  <Pocket>  (776) 
nan

>  <ATP_Site>  (776) 
nan

>  <Peripheral>  (776) 
nan

>  <Num_H_Atoms_ProtBoundConf>  (776) 
nan

>  <Num_Resolved_Atoms>  (776) 
nan

>  <Num_Not_Resolved_Atoms>  (776) 
nan

$$$$
CHEMBL3730798
     RDKit          3D

  0  0  0  0  0  0  0  0  0  0999 V3000
M  V30 BEGIN CTAB
M  V30 COUNTS 49 52 0 0 0
M  V30 BEGIN ATOM
M  V30 1 C -3.157600 -4.530153 2.605905 0
M  V30 2 C -2.355206 -4.744939 1.376791 0
M  V30 3 C -1.691725 -3.713398 0.759688 0
M  V30 4 C -0.915570 -3.767714 -0.376872 0
M  V30 5 C -0.244296 -2.590744 -0.959553 0
M  V30 6 C 0.981720 -2.184809 -0.134497 0
M  V30 7 N 0.961231 -0.778288 0.028679 0
M  V30 8 C 1.067701 0.192893 1.078677 0
M  V30 9 N 1.086173 1.487989 0.731778 0
M  V30 10 C 1.175104 2.527557 1.557750 0
M  V30 11 C 1.179067 3.849375 0.979097 0
M  V30 12 C 1.080690 3.997190 -0.387665 0
M  V30 13 C 1.078013 5.210857 -1.009174 0
M  V30 14 N 1.176775 6.356895 -0.273087 0
M  V30 15 C 1.275916 6.290617 1.062730 0
M  V30 16 C 1.273160 5.049299 1.631268 0
M  V30 17 F 1.377221 5.020790 2.974942 0
M  V30 18 C 1.253490 2.200498 2.874715 0
M  V30 19 C 1.240295 0.915676 3.298315 0
M  V30 20 O 1.315167 0.642607 4.538834 0
M  V30 21 N 1.146986 -0.071899 2.391795 0
M  V30 22 C 1.120455 -1.426620 2.849239 0
M  V30 23 C 0.744431 -0.237983 -1.325054 0
M  V30 24 C -0.666617 -0.488874 -1.762121 0
M  V30 25 O -1.178300 -1.541697 -0.987646 0
M  V30 26 C -0.802167 -5.036042 -0.957892 0
M  V30 27 C -1.446854 -6.138454 -0.390966 0
M  V30 28 C -2.214927 -5.984177 0.766847 0
M  V30 29 Br -3.100935 -7.472409 1.554781 0
M  V30 30 H -2.546865 -4.433354 3.527530 0
M  V30 31 H -3.767269 -3.595632 2.414833 0
M  V30 32 H -3.936538 -5.322203 2.730532 0
M  V30 33 H -1.796220 -2.733278 1.233371 0
M  V30 34 H 0.021046 -2.766564 -2.019343 0
M  V30 35 H 1.128182 -2.830621 0.715406 0
M  V30 36 H 1.874471 -2.403905 -0.818711 0
M  V30 37 H 0.997168 3.195320 -1.101077 0
M  V30 38 H 1.003512 5.380032 -2.069717 0
M  V30 39 H 1.355447 7.202554 1.667528 0
M  V30 40 H 1.327358 2.958042 3.619412 0
M  V30 41 H 2.058583 -1.972417 2.638122 0
M  V30 42 H 1.100259 -1.411768 3.989428 0
M  V30 43 H 0.183504 -1.957407 2.606688 0
M  V30 44 H 1.006070 0.845304 -1.341372 0
M  V30 45 H 1.453199 -0.749751 -1.999104 0
M  V30 46 H -1.284486 0.403916 -1.478212 0
M  V30 47 H -0.788117 -0.654624 -2.850805 0
M  V30 48 H -0.211172 -5.168009 -1.852610 0
M  V30 49 H -1.344630 -7.127128 -0.863604 0
M  V30 END ATOM
M  V30 BEGIN BOND
M  V30 1 1 1 2
M  V30 2 2 2 3
M  V30 3 1 3 4
M  V30 4 1 4 5
M  V30 5 1 5 6
M  V30 6 1 6 7
M  V30 7 1 7 8
M  V30 8 2 8 9
M  V30 9 1 9 10
M  V30 10 1 10 11
M  V30 11 2 11 12
M  V30 12 1 12 13
M  V30 13 2 13 14
M  V30 14 1 14 15
M  V30 15 2 15 16
M  V30 16 1 16 17
M  V30 17 2 10 18
M  V30 18 1 18 19
M  V30 19 2 19 20
M  V30 20 1 19 21
M  V30 21 1 21 22
M  V30 22 1 7 23
M  V30 23 1 23 24
M  V30 24 1 24 25
M  V30 25 2 4 26
M  V30 26 1 26 27
M  V30 27 2 27 28
M  V30 28 1 28 29
M  V30 29 1 28 2
M  V30 30 1 25 5
M  V30 31 1 21 8
M  V30 32 1 16 11
M  V30 33 1 1 30
M  V30 34 1 1 31
M  V30 35 1 1 32
M  V30 36 1 3 33
M  V30 37 1 5 34
M  V30 38 1 6 35
M  V30 39 1 6 36
M  V30 40 1 12 37
M  V30 41 1 13 38
M  V30 42 1 15 39
M  V30 43 1 18 40
M  V30 44 1 22 41
M  V30 45 1 22 42
M  V30 46 1 22 43
M  V30 47 1 23 44
M  V30 48 1 23 45
M  V30 49 1 24 46
M  V30 50 1 24 47
M  V30 51 1 26 48
M  V30 52 1 27 49
M  V30 END BOND
M  V30 END CTAB
M  END
>  <Dataset>  (777) 
ChEMBL_Kinases

>  <Ligand_Instance>  (777) 
nan

>  <PDB_ID>  (777) 
nan

>  <Standardized_SMILES>  (777) 
Cc1cc(C2CN(c3nc(-c4ccncc4F)cc(=O)n3C)CCO2)ccc1Br

>  <Name>  (777) 
nan

>  <Pocket>  (777) 
nan

>  <ATP_Site>  (777) 
nan

>  <Peripheral>  (777) 
nan

>  <Num_H_Atoms_ProtBoundConf>  (777) 
nan

>  <Num_Resolved_Atoms>  (777) 
nan

>  <Num_Not_Resolved_Atoms>  (777) 
nan

$$$$
CHEMBL3730792
     RDKit          3D

  0  0  0  0  0  0  0  0  0  0999 V3000
M  V30 BEGIN CTAB
M  V30 COUNTS 59 64 0 0 0
M  V30 BEGIN ATOM
M  V30 1 C 4.466482 -2.414096 5.287477 0
M  V30 2 C 3.485327 -3.315083 4.930280 0
M  V30 3 C 3.104889 -3.477409 3.622004 0
M  V30 4 C 3.686888 -2.742919 2.582869 0
M  V30 5 C 3.395203 -2.797577 1.150375 0
M  V30 6 N 2.397246 -1.840357 0.793613 0
M  V30 7 C 1.174922 -2.117770 1.509718 0
M  V30 8 C 0.192289 -1.027063 1.238878 0
M  V30 9 N 0.200223 -0.536559 -0.127425 0
M  V30 10 C -0.897332 0.220373 -0.607894 0
M  V30 11 N -0.605837 1.507164 -0.676198 0
M  V30 12 C -1.426565 2.480380 -1.040900 0
M  V30 13 C -1.229015 3.913933 -1.155270 0
M  V30 14 C 0.059831 4.310896 -0.815962 0
M  V30 15 C 0.359367 5.674004 -0.891138 0
M  V30 16 N -0.544146 6.594067 -1.274241 0
M  V30 17 C -1.780878 6.173499 -1.595022 0
M  V30 18 C -2.162918 4.848297 -1.549246 0
M  V30 19 N -2.667816 2.094317 -1.367301 0
M  V30 20 C -3.016576 0.770188 -1.312665 0
M  V30 21 S -4.599052 -0.168283 -1.682158 0
M  V30 22 C -3.924669 -1.710899 -1.297728 0
M  V30 23 C -2.616498 -1.526250 -0.923421 0
M  V30 24 C -2.143366 -0.251868 -0.927155 0
M  V30 25 C -2.078121 -2.869088 -0.636143 0
M  V30 26 C -2.914782 -3.514203 0.432790 0
M  V30 27 C -4.357934 -3.611204 0.108585 0
M  V30 28 C -4.563447 -3.096813 -1.320181 0
M  V30 29 C 1.262018 -0.760168 -1.065726 0
M  V30 30 C 2.128616 -1.896455 -0.634673 0
M  V30 31 C 4.673148 -1.849567 3.019037 0
M  V30 32 C 5.077790 -1.661371 4.313234 0
M  V30 33 H 4.724698 -2.329124 6.332684 0
M  V30 34 H 2.991450 -3.917731 5.683101 0
M  V30 35 H 2.341102 -4.170082 3.287635 0
M  V30 36 H 4.341096 -2.541691 0.595343 0
M  V30 37 H 3.118782 -3.829116 0.815977 0
M  V30 38 H 0.751901 -3.120724 1.233131 0
M  V30 39 H 1.406694 -2.071602 2.596959 0
M  V30 40 H -0.846979 -1.364961 1.523318 0
M  V30 41 H 0.482127 -0.141955 1.877636 0
M  V30 42 H 0.851821 3.635710 -0.496061 0
M  V30 43 H 1.371738 6.009881 -0.627535 0
M  V30 44 H -2.528119 6.894555 -1.907016 0
M  V30 45 H -3.142643 4.464299 -1.797199 0
M  V30 46 H -2.166246 -3.505214 -1.578224 0
M  V30 47 H -1.034287 -2.933424 -0.356793 0
M  V30 48 H -2.509507 -4.542832 0.592690 0
M  V30 49 H -2.793708 -3.011300 1.414142 0
M  V30 50 H -4.712199 -4.631422 0.231082 0
M  V30 51 H -4.938622 -2.884743 0.740149 0
M  V30 52 H -5.654636 -2.959378 -1.515609 0
M  V30 53 H -4.101151 -3.733074 -2.071935 0
M  V30 54 H 0.869461 -1.032897 -2.086319 0
M  V30 55 H 1.879759 0.147515 -1.237187 0
M  V30 56 H 3.100219 -1.799561 -1.192531 0
M  V30 57 H 1.698971 -2.870480 -0.953185 0
M  V30 58 H 5.182036 -1.232105 2.265347 0
M  V30 59 H 5.849824 -0.945596 4.551538 0
M  V30 END ATOM
M  V30 BEGIN BOND
M  V30 1 2 1 2
M  V30 2 1 2 3
M  V30 3 2 3 4
M  V30 4 1 4 5
M  V30 5 1 5 6
M  V30 6 1 6 7
M  V30 7 1 7 8
M  V30 8 1 8 9
M  V30 9 1 9 10
M  V30 10 2 10 11
M  V30 11 1 11 12
M  V30 12 1 12 13
M  V30 13 2 13 14
M  V30 14 1 14 15
M  V30 15 2 15 16
M  V30 16 1 16 17
M  V30 17 2 17 18
M  V30 18 2 12 19
M  V30 19 1 19 20
M  V30 20 1 20 21
M  V30 21 1 21 22
M  V30 22 2 22 23
M  V30 23 1 23 24
M  V30 24 1 23 25
M  V30 25 1 25 26
M  V30 26 1 26 27
M  V30 27 1 27 28
M  V30 28 1 9 29
M  V30 29 1 29 30
M  V30 30 1 4 31
M  V30 31 2 31 32
M  V30 32 1 32 1
M  V30 33 1 30 6
M  V30 34 1 24 10
M  V30 35 1 18 13
M  V30 36 2 24 20
M  V30 37 1 28 22
M  V30 38 1 1 33
M  V30 39 1 2 34
M  V30 40 1 3 35
M  V30 41 1 5 36
M  V30 42 1 5 37
M  V30 43 1 7 38
M  V30 44 1 7 39
M  V30 45 1 8 40
M  V30 46 1 8 41
M  V30 47 1 14 42
M  V30 48 1 15 43
M  V30 49 1 17 44
M  V30 50 1 18 45
M  V30 51 1 25 46
M  V30 52 1 25 47
M  V30 53 1 26 48
M  V30 54 1 26 49
M  V30 55 1 27 50
M  V30 56 1 27 51
M  V30 57 1 28 52
M  V30 58 1 28 53
M  V30 59 1 29 54
M  V30 60 1 29 55
M  V30 61 1 30 56
M  V30 62 1 30 57
M  V30 63 1 31 58
M  V30 64 1 32 59
M  V30 END BOND
M  V30 END CTAB
M  END
>  <Dataset>  (778) 
ChEMBL_Kinases

>  <Ligand_Instance>  (778) 
nan

>  <PDB_ID>  (778) 
nan

>  <Standardized_SMILES>  (778) 
c1ccc(CN2CCN(c3nc(-c4ccncc4)nc4sc5c(c34)CCCC5)CC2)cc1

>  <Name>  (778) 
nan

>  <Pocket>  (778) 
nan

>  <ATP_Site>  (778) 
nan

>  <Peripheral>  (778) 
nan

>  <Num_H_Atoms_ProtBoundConf>  (778) 
nan

>  <Num_Resolved_Atoms>  (778) 
nan

>  <Num_Not_Resolved_Atoms>  (778) 
nan

$$$$
CHEMBL3730767
     RDKit          3D

  0  0  0  0  0  0  0  0  0  0999 V3000
M  V30 BEGIN CTAB
M  V30 COUNTS 39 42 0 0 0
M  V30 BEGIN ATOM
M  V30 1 C 0.650093 -3.782789 4.409277 0
M  V30 2 C 1.426727 -3.211595 3.283384 0
M  V30 3 C 2.748567 -3.713728 3.091695 0
M  V30 4 S 3.396609 -2.839259 1.684788 0
M  V30 5 C 1.841272 -1.822606 1.411489 0
M  V30 6 C 1.554822 -0.842575 0.432357 0
M  V30 7 N 2.571504 -0.570960 -0.488743 0
M  V30 8 C 2.266072 0.429559 -1.474814 0 CFG=1
M  V30 9 C 1.067341 0.070833 -2.305592 0
M  V30 10 C 0.322442 1.349575 -2.500995 0
M  V30 11 N 0.729561 2.255491 -1.455714 0
M  V30 12 C 1.892067 1.707380 -0.806643 0
M  V30 13 N 0.340316 -0.285396 0.496251 0
M  V30 14 C -0.479816 -0.707257 1.474420 0
M  V30 15 C -1.830000 -0.110681 1.571326 0
M  V30 16 C -2.751937 -0.457823 2.524085 0
M  V30 17 C -4.001898 0.124059 2.579351 0
M  V30 18 N -4.336202 1.068770 1.667143 0
M  V30 19 C -3.414209 1.395140 0.738747 0
M  V30 20 C -2.137562 0.844139 0.631424 0
M  V30 21 N -0.200664 -1.626265 2.386386 0
M  V30 22 C 0.980469 -2.256153 2.427377 0
M  V30 23 H 0.593386 -4.889576 4.353706 0
M  V30 24 H 1.091372 -3.532521 5.393663 0
M  V30 25 H -0.396919 -3.427362 4.364717 0
M  V30 26 H 3.286351 -4.426817 3.609814 0
M  V30 27 H 3.483361 -1.035050 -0.489028 0
M  V30 28 H 3.105219 0.592391 -2.187290 0
M  V30 29 H 0.449141 -0.733933 -1.856114 0
M  V30 30 H 1.371355 -0.310470 -3.315372 0
M  V30 31 H -0.774641 1.209441 -2.445482 0
M  V30 32 H 0.573368 1.799463 -3.494095 0
M  V30 33 H 0.896356 3.211317 -1.838845 0
M  V30 34 H 1.774585 1.594929 0.294103 0
M  V30 35 H 2.769673 2.412747 -0.907487 0
M  V30 36 H -2.416597 -1.221756 3.223311 0
M  V30 37 H -4.612677 -0.268506 3.401541 0
M  V30 38 H -3.720389 2.155751 0.026187 0
M  V30 39 H -1.521554 1.211289 -0.164216 0
M  V30 END ATOM
M  V30 BEGIN BOND
M  V30 1 1 1 2
M  V30 2 2 2 3
M  V30 3 1 3 4
M  V30 4 1 4 5
M  V30 5 2 5 6
M  V30 6 1 6 7
M  V30 7 1 7 8
M  V30 8 1 8 9
M  V30 9 1 9 10
M  V30 10 1 10 11
M  V30 11 1 11 12
M  V30 12 1 6 13
M  V30 13 2 13 14
M  V30 14 1 14 15
M  V30 15 2 15 16
M  V30 16 1 16 17
M  V30 17 2 17 18
M  V30 18 1 18 19
M  V30 19 2 19 20
M  V30 20 1 14 21
M  V30 21 2 21 22
M  V30 22 1 22 2
M  V30 23 1 22 5
M  V30 24 1 12 8
M  V30 25 1 20 15
M  V30 26 1 1 23
M  V30 27 1 1 24
M  V30 28 1 1 25
M  V30 29 1 3 26
M  V30 30 1 7 27
M  V30 31 1 8 28 CFG=3
M  V30 32 1 9 29
M  V30 33 1 9 30
M  V30 34 1 10 31
M  V30 35 1 10 32
M  V30 36 1 11 33
M  V30 37 1 12 34
M  V30 38 1 12 35
M  V30 39 1 16 36
M  V30 40 1 17 37
M  V30 41 1 19 38
M  V30 42 1 20 39
M  V30 END BOND
M  V30 END CTAB
M  END
>  <Dataset>  (779) 
ChEMBL_Kinases

>  <Ligand_Instance>  (779) 
nan

>  <PDB_ID>  (779) 
nan

>  <Standardized_SMILES>  (779) 
Cc1csc2c(N[C@H]3CCNC3)nc(-c3ccncc3)nc12

>  <Name>  (779) 
nan

>  <Pocket>  (779) 
nan

>  <ATP_Site>  (779) 
nan

>  <Peripheral>  (779) 
nan

>  <Num_H_Atoms_ProtBoundConf>  (779) 
nan

>  <Num_Resolved_Atoms>  (779) 
nan

>  <Num_Not_Resolved_Atoms>  (779) 
nan

$$$$
CHEMBL3730731
     RDKit          3D

  0  0  0  0  0  0  0  0  0  0999 V3000
M  V30 BEGIN CTAB
M  V30 COUNTS 36 39 0 0 0
M  V30 BEGIN ATOM
M  V30 1 F 1.471777 -1.171807 2.710811 0
M  V30 2 C 0.949610 -2.405246 2.765114 0
M  V30 3 C 1.231518 -3.133000 3.892634 0
M  V30 4 N 0.752801 -4.394113 4.049460 0
M  V30 5 C -0.022358 -4.961814 3.080248 0
M  V30 6 C -0.308416 -4.232955 1.944123 0
M  V30 7 C 0.171033 -2.955036 1.774739 0
M  V30 8 C -0.122434 -2.154396 0.563846 0
M  V30 9 N 0.394033 -0.886614 0.481256 0
M  V30 10 C 0.073799 -0.227398 -0.665692 0
M  V30 11 N 0.511203 1.093936 -0.939967 0
M  V30 12 C 1.318443 1.752807 0.034621 0 CFG=2
M  V30 13 C 0.661230 1.924917 1.369952 0
M  V30 14 C 0.580749 3.442066 1.582900 0
M  V30 15 N 1.807272 3.844999 0.890421 0
M  V30 16 C 1.778975 3.112991 -0.359375 0
M  V30 17 C -0.715175 -0.846068 -1.632137 0
M  V30 18 S -1.272583 -0.247241 -3.173760 0
M  V30 19 C -2.199747 -1.856668 -3.577945 0
M  V30 20 C -1.970347 -2.657468 -2.483897 0
M  V30 21 Br -2.785378 -4.379366 -2.584576 0
M  V30 22 C -1.202390 -2.087841 -1.516191 0
M  V30 23 N -0.879629 -2.731430 -0.377474 0
M  V30 24 H 1.841734 -2.738111 4.698770 0
M  V30 25 H -0.402528 -5.966635 3.207520 0
M  V30 26 H -0.922912 -4.670078 1.165074 0
M  V30 27 H 0.269656 1.592521 -1.810485 0
M  V30 28 H 2.231924 1.112657 0.177251 0
M  V30 29 H 1.274448 1.466465 2.197529 0
M  V30 30 H -0.347314 1.531811 1.465701 0
M  V30 31 H -0.327458 3.846087 1.105031 0
M  V30 32 H 0.671339 3.627961 2.658293 0
M  V30 33 H 2.595289 3.475082 1.487675 0
M  V30 34 H 2.807654 3.084113 -0.779033 0
M  V30 35 H 1.075178 3.643379 -1.044928 0
M  V30 36 H -2.777327 -1.975379 -4.562526 0
M  V30 END ATOM
M  V30 BEGIN BOND
M  V30 1 1 1 2
M  V30 2 2 2 3
M  V30 3 1 3 4
M  V30 4 2 4 5
M  V30 5 1 5 6
M  V30 6 2 6 7
M  V30 7 1 7 8
M  V30 8 2 8 9
M  V30 9 1 9 10
M  V30 10 1 10 11
M  V30 11 1 11 12
M  V30 12 1 12 13
M  V30 13 1 13 14
M  V30 14 1 14 15
M  V30 15 1 15 16
M  V30 16 2 10 17
M  V30 17 1 17 18
M  V30 18 1 18 19
M  V30 19 2 19 20
M  V30 20 1 20 21
M  V30 21 1 20 22
M  V30 22 2 22 23
M  V30 23 1 7 2
M  V30 24 1 23 8
M  V30 25 1 16 12
M  V30 26 1 22 17
M  V30 27 1 3 24
M  V30 28 1 5 25
M  V30 29 1 6 26
M  V30 30 1 11 27
M  V30 31 1 12 28 CFG=1
M  V30 32 1 13 29
M  V30 33 1 13 30
M  V30 34 1 14 31
M  V30 35 1 14 32
M  V30 36 1 15 33
M  V30 37 1 16 34
M  V30 38 1 16 35
M  V30 39 1 19 36
M  V30 END BOND
M  V30 END CTAB
M  END
>  <Dataset>  (780) 
ChEMBL_Kinases

>  <Ligand_Instance>  (780) 
nan

>  <PDB_ID>  (780) 
nan

>  <Standardized_SMILES>  (780) 
Fc1cnccc1-c1nc(N[C@@H]2CCNC2)c2scc(Br)c2n1

>  <Name>  (780) 
nan

>  <Pocket>  (780) 
nan

>  <ATP_Site>  (780) 
nan

>  <Peripheral>  (780) 
nan

>  <Num_H_Atoms_ProtBoundConf>  (780) 
nan

>  <Num_Resolved_Atoms>  (780) 
nan

>  <Num_Not_Resolved_Atoms>  (780) 
nan

$$$$
CHEMBL3730691
     RDKit          3D

  0  0  0  0  0  0  0  0  0  0999 V3000
M  V30 BEGIN CTAB
M  V30 COUNTS 52 56 0 0 0
M  V30 BEGIN ATOM
M  V30 1 C 1.443643 3.009708 -1.467792 0
M  V30 2 N 0.924600 1.707468 -1.810258 0
M  V30 3 C 1.147597 0.655044 -1.009098 0
M  V30 4 N 1.808820 0.682085 0.277783 0
M  V30 5 C 2.091155 1.814372 1.118584 0
M  V30 6 C 1.964547 1.412438 2.590819 0
M  V30 7 N 2.744758 0.221328 2.843642 0
M  V30 8 C 2.113952 -0.908414 2.164720 0 CFG=1
M  V30 9 C 0.752976 -1.148617 2.637161 0
M  V30 10 C 0.620302 -1.059335 4.024764 0
M  V30 11 C -0.586656 -1.253129 4.663739 0
M  V30 12 C -1.735916 -1.550610 3.932800 0
M  V30 13 C -3.077043 -1.777558 4.464761 0
M  V30 14 N -3.585573 -2.724577 5.307011 0
M  V30 15 C -4.914131 -2.441568 5.456696 0
M  V30 16 O -5.211029 -1.375525 4.744701 0
M  V30 17 N -4.119815 -0.982661 4.156468 0
M  V30 18 C -1.630745 -1.644449 2.559102 0
M  V30 19 C -0.407897 -1.443931 1.956979 0
M  V30 20 C 2.265280 -0.634751 0.699682 0
M  V30 21 N 0.645183 -0.481270 -1.477399 0
M  V30 22 C -0.023426 -0.706906 -2.587235 0
M  V30 23 C -0.459521 -2.060760 -2.854070 0
M  V30 24 C -0.174230 -3.062679 -1.951353 0
M  V30 25 C -0.552244 -4.355542 -2.138913 0
M  V30 26 N -1.235364 -4.738275 -3.230166 0
M  V30 27 C -1.566629 -3.816267 -4.186398 0
M  V30 28 C -1.153292 -2.528735 -3.932061 0
M  V30 29 F -1.495319 -1.646234 -4.889359 0
M  V30 30 C -0.239221 0.377480 -3.383969 0
M  V30 31 C 0.252269 1.586314 -2.964923 0
M  V30 32 O 0.067638 2.616837 -3.685757 0
M  V30 33 H 2.433077 3.011805 -1.001835 0
M  V30 34 H 1.551511 3.560666 -2.470705 0
M  V30 35 H 0.667792 3.590798 -0.962014 0
M  V30 36 H 3.142074 2.188624 1.027691 0
M  V30 37 H 1.345317 2.621077 0.981977 0
M  V30 38 H 0.901289 1.273764 2.808755 0
M  V30 39 H 2.377230 2.236910 3.193390 0
M  V30 40 H 2.891555 0.092701 3.844444 0
M  V30 41 H 2.741621 -1.780413 2.403770 0
M  V30 42 H 1.374565 -0.841341 4.792660 0
M  V30 43 H -0.794548 -1.207255 5.723139 0
M  V30 44 H -5.550197 -3.058447 6.087479 0
M  V30 45 H -2.470539 -1.872336 1.890536 0
M  V30 46 H -0.281996 -1.512056 0.893625 0
M  V30 47 H 3.390641 -0.595323 0.535502 0
M  V30 48 H 1.848745 -1.459187 0.080470 0
M  V30 49 H 0.360037 -2.928102 -1.031394 0
M  V30 50 H -0.353261 -5.170014 -1.466529 0
M  V30 51 H -2.113050 -4.097095 -5.068875 0
M  V30 52 H -0.772189 0.307400 -4.309055 0
M  V30 END ATOM
M  V30 BEGIN BOND
M  V30 1 1 1 2
M  V30 2 1 2 3
M  V30 3 1 3 4
M  V30 4 1 4 5
M  V30 5 1 5 6
M  V30 6 1 6 7
M  V30 7 1 7 8
M  V30 8 1 8 9
M  V30 9 2 9 10
M  V30 10 1 10 11
M  V30 11 2 11 12
M  V30 12 1 12 13
M  V30 13 1 13 14
M  V30 14 2 14 15
M  V30 15 1 15 16
M  V30 16 1 16 17
M  V30 17 1 12 18
M  V30 18 2 18 19
M  V30 19 1 8 20
M  V30 20 2 3 21
M  V30 21 1 21 22
M  V30 22 1 22 23
M  V30 23 2 23 24
M  V30 24 1 24 25
M  V30 25 2 25 26
M  V30 26 1 26 27
M  V30 27 2 27 28
M  V30 28 1 28 29
M  V30 29 2 22 30
M  V30 30 1 30 31
M  V30 31 2 31 32
M  V30 32 1 31 2
M  V30 33 1 20 4
M  V30 34 1 28 23
M  V30 35 1 19 9
M  V30 36 2 17 13
M  V30 37 1 1 33
M  V30 38 1 1 34
M  V30 39 1 1 35
M  V30 40 1 5 36
M  V30 41 1 5 37
M  V30 42 1 6 38
M  V30 43 1 6 39
M  V30 44 1 7 40
M  V30 45 1 8 41 CFG=3
M  V30 46 1 10 42
M  V30 47 1 11 43
M  V30 48 1 15 44
M  V30 49 1 18 45
M  V30 50 1 19 46
M  V30 51 1 20 47
M  V30 52 1 20 48
M  V30 53 1 24 49
M  V30 54 1 25 50
M  V30 55 1 27 51
M  V30 56 1 30 52
M  V30 END BOND
M  V30 END CTAB
M  END
>  <Dataset>  (781) 
ChEMBL_Kinases

>  <Ligand_Instance>  (781) 
nan

>  <PDB_ID>  (781) 
nan

>  <Standardized_SMILES>  (781) 
Cn1c(N2CCN[C@@H](c3ccc(-c4ncon4)cc3)C2)nc(-c2ccncc2F)cc1=O

>  <Name>  (781) 
nan

>  <Pocket>  (781) 
nan

>  <ATP_Site>  (781) 
nan

>  <Peripheral>  (781) 
nan

>  <Num_H_Atoms_ProtBoundConf>  (781) 
nan

>  <Num_Resolved_Atoms>  (781) 
nan

>  <Num_Not_Resolved_Atoms>  (781) 
nan

$$$$
CHEMBL3730662
     RDKit          3D

  0  0  0  0  0  0  0  0  0  0999 V3000
M  V30 BEGIN CTAB
M  V30 COUNTS 35 37 0 0 0
M  V30 BEGIN ATOM
M  V30 1 C 1.783616 -1.332386 4.650263 0
M  V30 2 C 1.451156 -2.020494 3.375730 0
M  V30 3 C 1.607874 -3.399368 3.407772 0
M  V30 4 S 1.100193 -3.899126 1.651745 0
M  V30 5 C 0.762045 -2.271722 1.134032 0
M  V30 6 C 0.323136 -1.787503 -0.079273 0
M  V30 7 N 0.108841 -2.727657 -1.113183 0
M  V30 8 C -0.350853 -2.482154 -2.452944 0
M  V30 9 C -1.788077 -2.034893 -2.478803 0
M  V30 10 N -1.997120 -0.815666 -1.752444 0
M  V30 11 N 0.133352 -0.465879 -0.233788 0
M  V30 12 C 0.387573 0.324250 0.825216 0
M  V30 13 C 0.206637 1.793964 0.747901 0
M  V30 14 C -0.232095 2.295759 -0.458224 0
M  V30 15 C -0.422658 3.660740 -0.600417 0
M  V30 16 N -0.182613 4.496458 0.428944 0
M  V30 17 C 0.245128 3.984672 1.597357 0
M  V30 18 C 0.458232 2.633131 1.814571 0
M  V30 19 N 0.814349 -0.156319 2.001710 0
M  V30 20 C 1.020850 -1.469314 2.211438 0
M  V30 21 H 2.868676 -1.269828 4.836199 0
M  V30 22 H 1.229139 -1.803685 5.507736 0
M  V30 23 H 1.404891 -0.277236 4.644213 0
M  V30 24 H 1.927943 -4.107617 4.174488 0
M  V30 25 H 0.287664 -3.756494 -0.949992 0
M  V30 26 H 0.256416 -1.647709 -2.913251 0
M  V30 27 H -0.215038 -3.348722 -3.135545 0
M  V30 28 H -2.400404 -2.821647 -1.983519 0
M  V30 29 H -2.148536 -1.975643 -3.531705 0
M  V30 30 H -1.848564 0.033668 -2.340998 0
M  V30 31 H -2.938870 -0.822701 -1.294783 0
M  V30 32 H -0.439216 1.682793 -1.310385 0
M  V30 33 H -0.767044 4.049765 -1.548816 0
M  V30 34 H 0.446980 4.650638 2.450696 0
M  V30 35 H 0.800560 2.216475 2.747351 0
M  V30 END ATOM
M  V30 BEGIN BOND
M  V30 1 1 1 2
M  V30 2 2 2 3
M  V30 3 1 3 4
M  V30 4 1 4 5
M  V30 5 2 5 6
M  V30 6 1 6 7
M  V30 7 1 7 8
M  V30 8 1 8 9
M  V30 9 1 9 10
M  V30 10 1 6 11
M  V30 11 2 11 12
M  V30 12 1 12 13
M  V30 13 2 13 14
M  V30 14 1 14 15
M  V30 15 2 15 16
M  V30 16 1 16 17
M  V30 17 2 17 18
M  V30 18 1 12 19
M  V30 19 2 19 20
M  V30 20 1 20 2
M  V30 21 1 20 5
M  V30 22 1 18 13
M  V30 23 1 1 21
M  V30 24 1 1 22
M  V30 25 1 1 23
M  V30 26 1 3 24
M  V30 27 1 7 25
M  V30 28 1 8 26
M  V30 29 1 8 27
M  V30 30 1 9 28
M  V30 31 1 9 29
M  V30 32 1 10 30
M  V30 33 1 10 31
M  V30 34 1 14 32
M  V30 35 1 15 33
M  V30 36 1 17 34
M  V30 37 1 18 35
M  V30 END BOND
M  V30 END CTAB
M  END
>  <Dataset>  (782) 
ChEMBL_Kinases

>  <Ligand_Instance>  (782) 
nan

>  <PDB_ID>  (782) 
nan

>  <Standardized_SMILES>  (782) 
Cc1csc2c(NCCN)nc(-c3ccncc3)nc12

>  <Name>  (782) 
nan

>  <Pocket>  (782) 
nan

>  <ATP_Site>  (782) 
nan

>  <Peripheral>  (782) 
nan

>  <Num_H_Atoms_ProtBoundConf>  (782) 
nan

>  <Num_Resolved_Atoms>  (782) 
nan

>  <Num_Not_Resolved_Atoms>  (782) 
nan

$$$$
CHEMBL3730660
     RDKit          3D

  0  0  0  0  0  0  0  0  0  0999 V3000
M  V30 BEGIN CTAB
M  V30 COUNTS 57 61 0 0 0
M  V30 BEGIN ATOM
M  V30 1 N 1.498283 -5.202163 4.406824 0
M  V30 2 C 1.558949 -4.217336 3.280608 0 CFG=2
M  V30 3 C 0.332450 -3.374233 3.333852 0
M  V30 4 N 0.169368 -2.323686 2.399587 0
M  V30 5 C 0.042436 -1.270837 1.488279 0
M  V30 6 N 0.841413 -0.232789 1.227245 0
M  V30 7 C 0.477288 0.648702 0.293818 0
M  V30 8 C 1.336314 1.786565 0.033768 0
M  V30 9 C 2.494322 1.964968 0.746857 0
M  V30 10 C 3.305819 3.043058 0.515465 0
M  V30 11 N 2.948606 3.948326 -0.442012 0
M  V30 12 C 1.800065 3.768171 -1.147699 0
M  V30 13 C 0.970916 2.690467 -0.928920 0
M  V30 14 N -0.665388 0.485836 -0.360567 0
M  V30 15 C -1.557983 -0.490810 -0.211160 0
M  V30 16 C -2.739228 -0.640319 -0.890820 0
M  V30 17 N -3.205466 0.239837 -1.905725 0
M  V30 18 C -3.405391 1.599243 -1.561045 0
M  V30 19 C -3.362998 1.946053 -0.234040 0
M  V30 20 C -3.519029 3.229172 0.255043 0
M  V30 21 C -3.735252 4.250541 -0.647126 0
M  V30 22 C -3.783263 3.924760 -1.994657 0
M  V30 23 C -3.622148 2.626296 -2.448273 0
M  V30 24 C -3.489041 -1.724733 -0.546134 0
M  V30 25 S -2.509780 -2.595245 0.797220 0
M  V30 26 C -1.151475 -1.401739 0.775369 0
M  V30 27 C 1.592344 -5.116372 2.065253 0
M  V30 28 C 1.661982 -4.439476 0.764422 0
M  V30 29 C 0.568364 -4.179768 -0.036485 0
M  V30 30 C 0.705823 -3.517983 -1.261796 0
M  V30 31 C 1.959405 -3.105273 -1.702674 0
M  V30 32 C 3.068244 -3.344608 -0.938825 0
M  V30 33 C 2.896373 -4.004812 0.275763 0
M  V30 34 H 2.037913 -6.048833 4.187858 0
M  V30 35 H 0.497103 -5.427616 4.627227 0
M  V30 36 H 2.486822 -3.634356 3.377013 0
M  V30 37 H 0.140304 -3.016233 4.396774 0
M  V30 38 H -0.570259 -4.107642 3.239397 0
M  V30 39 H 1.110408 -2.017094 2.803589 0
M  V30 40 H 2.733623 1.219086 1.492550 0
M  V30 41 H 4.215576 3.138231 1.114412 0
M  V30 42 H 1.480948 4.457192 -1.909780 0
M  V30 43 H 0.041822 2.531285 -1.490463 0
M  V30 44 H -3.361126 -0.211613 -2.832373 0
M  V30 45 H -3.197821 1.194306 0.557421 0
M  V30 46 H -3.475283 3.432187 1.330870 0
M  V30 47 H -3.861649 5.267041 -0.307746 0
M  V30 48 H -3.948676 4.743920 -2.657140 0
M  V30 49 H -3.662340 2.379436 -3.502776 0
M  V30 50 H -4.392123 -2.066201 -0.891907 0
M  V30 51 H 2.375884 -5.916447 2.182794 0
M  V30 52 H 0.625374 -5.716258 2.123569 0
M  V30 53 H -0.342804 -4.552365 0.410578 0
M  V30 54 H -0.228642 -3.363552 -1.821563 0
M  V30 55 H 2.021263 -2.595429 -2.662255 0
M  V30 56 H 4.023729 -3.022150 -1.291041 0
M  V30 57 H 3.829643 -4.150459 0.812672 0
M  V30 END ATOM
M  V30 BEGIN BOND
M  V30 1 1 1 2
M  V30 2 1 2 3
M  V30 3 1 3 4
M  V30 4 1 4 5
M  V30 5 2 5 6
M  V30 6 1 6 7
M  V30 7 1 7 8
M  V30 8 2 8 9
M  V30 9 1 9 10
M  V30 10 2 10 11
M  V30 11 1 11 12
M  V30 12 2 12 13
M  V30 13 2 7 14
M  V30 14 1 14 15
M  V30 15 1 15 16
M  V30 16 1 16 17
M  V30 17 1 17 18
M  V30 18 2 18 19
M  V30 19 1 19 20
M  V30 20 2 20 21
M  V30 21 1 21 22
M  V30 22 2 22 23
M  V30 23 2 16 24
M  V30 24 1 24 25
M  V30 25 1 25 26
M  V30 26 1 2 27
M  V30 27 1 27 28
M  V30 28 2 28 29
M  V30 29 1 29 30
M  V30 30 2 30 31
M  V30 31 1 31 32
M  V30 32 2 32 33
M  V30 33 1 26 5
M  V30 34 1 33 28
M  V30 35 1 13 8
M  V30 36 2 26 15
M  V30 37 1 23 18
M  V30 38 1 1 34
M  V30 39 1 1 35
M  V30 40 1 2 36 CFG=1
M  V30 41 1 3 37
M  V30 42 1 3 38
M  V30 43 1 4 39
M  V30 44 1 9 40
M  V30 45 1 10 41
M  V30 46 1 12 42
M  V30 47 1 13 43
M  V30 48 1 17 44
M  V30 49 1 19 45
M  V30 50 1 20 46
M  V30 51 1 21 47
M  V30 52 1 22 48
M  V30 53 1 23 49
M  V30 54 1 24 50
M  V30 55 1 27 51
M  V30 56 1 27 52
M  V30 57 1 29 53
M  V30 58 1 30 54
M  V30 59 1 31 55
M  V30 60 1 32 56
M  V30 61 1 33 57
M  V30 END BOND
M  V30 END CTAB
M  END
>  <Dataset>  (783) 
ChEMBL_Kinases

>  <Ligand_Instance>  (783) 
nan

>  <PDB_ID>  (783) 
nan

>  <Standardized_SMILES>  (783) 
N[C@H](CNc1nc(-c2ccncc2)nc2c(Nc3ccccc3)csc12)Cc1ccccc1

>  <Name>  (783) 
nan

>  <Pocket>  (783) 
nan

>  <ATP_Site>  (783) 
nan

>  <Peripheral>  (783) 
nan

>  <Num_H_Atoms_ProtBoundConf>  (783) 
nan

>  <Num_Resolved_Atoms>  (783) 
nan

>  <Num_Not_Resolved_Atoms>  (783) 
nan

$$$$
CHEMBL3730659
     RDKit          3D

  0  0  0  0  0  0  0  0  0  0999 V3000
M  V30 BEGIN CTAB
M  V30 COUNTS 57 61 0 0 0
M  V30 BEGIN ATOM
M  V30 1 C 3.060932 -3.873539 0.398637 0
M  V30 2 C 2.587464 -5.184829 0.963486 0
M  V30 3 C 1.147004 -5.263441 1.331769 0 CFG=1
M  V30 4 N 0.685240 -4.352756 2.311953 0
M  V30 5 C 0.389324 -2.971802 2.444632 0
M  V30 6 C 0.403140 -2.083807 1.394237 0
M  V30 7 C 0.139537 -0.736295 1.461449 0
M  V30 8 C 0.160799 0.199566 0.345745 0
M  V30 9 N -0.162756 1.472567 0.623324 0
M  V30 10 C -0.142066 2.375736 -0.366451 0
M  V30 11 N -0.468950 3.725339 -0.202110 0
M  V30 12 C -0.863602 4.072756 1.129318 0 CFG=2
M  V30 13 C -2.108213 3.390284 1.594026 0
M  V30 14 C -3.181342 4.283348 1.009147 0
M  V30 15 N -2.680116 5.600795 1.231060 0
M  V30 16 C -1.236664 5.535261 1.191453 0
M  V30 17 C 0.219682 1.911501 -1.620603 0
M  V30 18 S 0.380809 2.793735 -3.240050 0
M  V30 19 C 0.911415 1.203781 -4.182555 0
M  V30 20 C 0.896235 0.260768 -3.188522 0
M  V30 21 C 0.554538 0.599390 -1.913260 0
M  V30 22 N 0.502741 -0.226406 -0.855577 0
M  V30 23 C -0.165809 -0.259765 2.715659 0
M  V30 24 C -0.182061 -1.143371 3.772475 0
M  V30 25 N 0.085103 -2.446045 3.639483 0
M  V30 26 C 0.338097 -5.238738 0.076405 0
M  V30 27 C 0.658672 -5.342842 -1.260463 0
M  V30 28 C -0.330072 -5.267465 -2.206126 0
M  V30 29 C -1.657814 -5.089830 -1.891089 0
M  V30 30 C -2.024348 -4.980467 -0.557372 0
M  V30 31 C -1.008587 -5.058339 0.402149 0
M  V30 32 H 4.160452 -3.968239 0.127977 0
M  V30 33 H 2.510285 -3.496110 -0.456577 0
M  V30 34 H 3.095658 -3.121280 1.242837 0
M  V30 35 H 3.251377 -5.492705 1.836096 0
M  V30 36 H 2.833320 -5.976963 0.201105 0
M  V30 37 H 0.991431 -6.318640 1.711644 0
M  V30 38 H 0.509194 -4.873140 3.235337 0
M  V30 39 H 0.618259 -2.405318 0.389283 0
M  V30 40 H -0.419838 4.396840 -0.997182 0
M  V30 41 H -0.064670 3.840558 1.872613 0
M  V30 42 H -2.227296 2.345840 1.326995 0
M  V30 43 H -2.169710 3.501746 2.698210 0
M  V30 44 H -3.374303 4.079128 -0.061073 0
M  V30 45 H -4.115828 4.116643 1.561785 0
M  V30 46 H -3.046121 5.974362 2.132853 0
M  V30 47 H -0.782571 6.159369 0.421678 0
M  V30 48 H -0.884172 5.913300 2.180426 0
M  V30 49 H 1.101928 1.298667 -5.172278 0
M  V30 50 H 1.176850 -0.710405 -3.559839 0
M  V30 51 H -0.393606 0.772064 2.914471 0
M  V30 52 H -0.421618 -0.775647 4.762643 0
M  V30 53 H 1.717531 -5.487465 -1.403121 0
M  V30 54 H 0.015156 -5.358348 -3.225591 0
M  V30 55 H -2.407881 -5.035020 -2.664731 0
M  V30 56 H -3.071007 -4.842357 -0.344177 0
M  V30 57 H -1.449138 -4.955721 1.407476 0
M  V30 END ATOM
M  V30 BEGIN BOND
M  V30 1 1 1 2
M  V30 2 1 2 3
M  V30 3 1 3 4
M  V30 4 1 4 5
M  V30 5 2 5 6
M  V30 6 1 6 7
M  V30 7 1 7 8
M  V30 8 2 8 9
M  V30 9 1 9 10
M  V30 10 1 10 11
M  V30 11 1 11 12
M  V30 12 1 12 13
M  V30 13 1 13 14
M  V30 14 1 14 15
M  V30 15 1 15 16
M  V30 16 2 10 17
M  V30 17 1 17 18
M  V30 18 1 18 19
M  V30 19 2 19 20
M  V30 20 1 20 21
M  V30 21 2 21 22
M  V30 22 2 7 23
M  V30 23 1 23 24
M  V30 24 2 24 25
M  V30 25 1 3 26
M  V30 26 2 26 27
M  V30 27 1 27 28
M  V30 28 2 28 29
M  V30 29 1 29 30
M  V30 30 2 30 31
M  V30 31 1 25 5
M  V30 32 1 31 26
M  V30 33 1 22 8
M  V30 34 1 16 12
M  V30 35 1 21 17
M  V30 36 1 1 32
M  V30 37 1 1 33
M  V30 38 1 1 34
M  V30 39 1 2 35
M  V30 40 1 2 36
M  V30 41 1 3 37 CFG=1
M  V30 42 1 4 38
M  V30 43 1 6 39
M  V30 44 1 11 40
M  V30 45 1 12 41 CFG=1
M  V30 46 1 13 42
M  V30 47 1 13 43
M  V30 48 1 14 44
M  V30 49 1 14 45
M  V30 50 1 15 46
M  V30 51 1 16 47
M  V30 52 1 16 48
M  V30 53 1 19 49
M  V30 54 1 20 50
M  V30 55 1 23 51
M  V30 56 1 24 52
M  V30 57 1 27 53
M  V30 58 1 28 54
M  V30 59 1 29 55
M  V30 60 1 30 56
M  V30 61 1 31 57
M  V30 END BOND
M  V30 END CTAB
M  END
>  <Dataset>  (784) 
ChEMBL_Kinases

>  <Ligand_Instance>  (784) 
nan

>  <PDB_ID>  (784) 
nan

>  <Standardized_SMILES>  (784) 
CC[C@@H](Nc1cc(-c2nc(N[C@@H]3CCNC3)c3sccc3n2)ccn1)c1ccccc1

>  <Name>  (784) 
nan

>  <Pocket>  (784) 
nan

>  <ATP_Site>  (784) 
nan

>  <Peripheral>  (784) 
nan

>  <Num_H_Atoms_ProtBoundConf>  (784) 
nan

>  <Num_Resolved_Atoms>  (784) 
nan

>  <Num_Not_Resolved_Atoms>  (784) 
nan

$$$$
CHEMBL3730647
     RDKit          3D

  0  0  0  0  0  0  0  0  0  0999 V3000
M  V30 BEGIN CTAB
M  V30 COUNTS 55 59 0 0 0
M  V30 BEGIN ATOM
M  V30 1 N 1.844363 -3.530493 2.081995 0
M  V30 2 C 0.756185 -2.820653 1.421600 0 CFG=1
M  V30 3 C 1.042146 -1.346933 1.348292 0
M  V30 4 N -0.010640 -0.637870 0.718248 0
M  V30 5 C 0.105732 0.788390 0.518215 0
M  V30 6 N 1.247839 1.334433 0.951464 0
M  V30 7 C 1.617500 2.606194 0.887597 0
M  V30 8 C 2.895804 3.076526 1.399245 0
M  V30 9 C 3.749342 2.156712 1.971199 0
M  V30 10 C 4.957701 2.684097 2.439840 0
M  V30 11 N 5.279593 3.999799 2.345602 0
M  V30 12 C 4.409875 4.857714 1.777598 0
M  V30 13 C 3.197459 4.418061 1.290672 0
M  V30 14 N 0.714907 3.414492 0.314047 0
M  V30 15 C -0.430803 2.910592 -0.128589 0
M  V30 16 S -1.765004 3.744591 -0.910002 0
M  V30 17 C -2.800265 2.304788 -1.126243 0
M  V30 18 C -2.045884 1.248064 -0.574829 0
M  V30 19 C -0.833624 1.605821 -0.073819 0
M  V30 20 C -2.931858 0.089773 -0.768711 0
M  V30 21 C -4.252866 0.437765 -0.034523 0
M  V30 22 C -5.072376 1.374768 -0.904654 0
M  V30 23 C -4.152010 2.239610 -1.751095 0
M  V30 24 C 0.564764 -3.397482 0.024766 0
M  V30 25 C 0.231136 -4.861115 0.162525 0
M  V30 26 C 1.191849 -5.834600 0.183362 0
M  V30 27 C 0.876842 -7.183981 0.310920 0
M  V30 28 C -0.471887 -7.532273 0.419788 0
M  V30 29 C -1.474373 -6.580109 0.403166 0
M  V30 30 C -1.103830 -5.251124 0.273925 0
M  V30 31 H 1.684427 -3.617311 3.123576 0
M  V30 32 H 2.778620 -3.113949 1.867807 0
M  V30 33 H -0.165110 -2.962687 2.019773 0
M  V30 34 H 1.302028 -0.943812 2.351483 0
M  V30 35 H 1.944972 -1.257215 0.672961 0
M  V30 36 H -0.750765 -1.303840 0.486738 0
M  V30 37 H 3.556702 1.099766 2.077803 0
M  V30 38 H 5.720335 2.092510 2.907997 0
M  V30 39 H 4.577054 5.934693 1.655284 0
M  V30 40 H 2.458118 5.073675 0.821614 0
M  V30 41 H -2.632203 -0.858326 -0.357797 0
M  V30 42 H -3.258301 -0.000409 -1.845700 0
M  V30 43 H -4.786907 -0.453024 0.295826 0
M  V30 44 H -3.944075 1.016842 0.857017 0
M  V30 45 H -5.704677 2.050781 -0.315938 0
M  V30 46 H -5.730079 0.806471 -1.590587 0
M  V30 47 H -4.569887 3.236344 -1.848978 0
M  V30 48 H -4.028223 1.725351 -2.723510 0
M  V30 49 H -0.255658 -2.956119 -0.528870 0
M  V30 50 H 1.541850 -3.369886 -0.477535 0
M  V30 51 H 2.234512 -5.517303 0.095318 0
M  V30 52 H 1.650866 -7.949590 0.326211 0
M  V30 53 H -0.653380 -8.613836 0.517813 0
M  V30 54 H -2.497688 -6.898443 0.490201 0
M  V30 55 H -1.865069 -4.477177 0.257139 0
M  V30 END ATOM
M  V30 BEGIN BOND
M  V30 1 1 1 2
M  V30 2 1 2 3
M  V30 3 1 3 4
M  V30 4 1 4 5
M  V30 5 2 5 6
M  V30 6 1 6 7
M  V30 7 1 7 8
M  V30 8 2 8 9
M  V30 9 1 9 10
M  V30 10 2 10 11
M  V30 11 1 11 12
M  V30 12 2 12 13
M  V30 13 2 7 14
M  V30 14 1 14 15
M  V30 15 1 15 16
M  V30 16 1 16 17
M  V30 17 2 17 18
M  V30 18 1 18 19
M  V30 19 1 18 20
M  V30 20 1 20 21
M  V30 21 1 21 22
M  V30 22 1 22 23
M  V30 23 1 2 24
M  V30 24 1 24 25
M  V30 25 2 25 26
M  V30 26 1 26 27
M  V30 27 2 27 28
M  V30 28 1 28 29
M  V30 29 2 29 30
M  V30 30 1 19 5
M  V30 31 1 30 25
M  V30 32 1 13 8
M  V30 33 2 19 15
M  V30 34 1 23 17
M  V30 35 1 1 31
M  V30 36 1 1 32
M  V30 37 1 2 33 CFG=1
M  V30 38 1 3 34
M  V30 39 1 3 35
M  V30 40 1 4 36
M  V30 41 1 9 37
M  V30 42 1 10 38
M  V30 43 1 12 39
M  V30 44 1 13 40
M  V30 45 1 20 41
M  V30 46 1 20 42
M  V30 47 1 21 43
M  V30 48 1 21 44
M  V30 49 1 22 45
M  V30 50 1 22 46
M  V30 51 1 23 47
M  V30 52 1 23 48
M  V30 53 1 24 49
M  V30 54 1 24 50
M  V30 55 1 26 51
M  V30 56 1 27 52
M  V30 57 1 28 53
M  V30 58 1 29 54
M  V30 59 1 30 55
M  V30 END BOND
M  V30 END CTAB
M  END
>  <Dataset>  (785) 
ChEMBL_Kinases

>  <Ligand_Instance>  (785) 
nan

>  <PDB_ID>  (785) 
nan

>  <Standardized_SMILES>  (785) 
N[C@@H](CNc1nc(-c2ccncc2)nc2sc3c(c12)CCCC3)Cc1ccccc1

>  <Name>  (785) 
nan

>  <Pocket>  (785) 
nan

>  <ATP_Site>  (785) 
nan

>  <Peripheral>  (785) 
nan

>  <Num_H_Atoms_ProtBoundConf>  (785) 
nan

>  <Num_Resolved_Atoms>  (785) 
nan

>  <Num_Not_Resolved_Atoms>  (785) 
nan

$$$$
CHEMBL3730639
     RDKit          3D

  0  0  0  0  0  0  0  0  0  0999 V3000
M  V30 BEGIN CTAB
M  V30 COUNTS 47 49 0 0 0
M  V30 BEGIN ATOM
M  V30 1 C -1.201470 -5.265346 0.267166 0
M  V30 2 C -0.139856 -4.305167 0.770407 0
M  V30 3 C -0.584629 -3.397245 1.849586 0
M  V30 4 C 0.638096 -3.738047 -0.367882 0
M  V30 5 C 1.677198 -2.778682 0.043819 0
M  V30 6 C 2.927641 -3.412903 0.219437 0
M  V30 7 S 4.084808 -2.055145 0.773412 0
M  V30 8 C 2.792723 -0.794063 0.712885 0
M  V30 9 N 2.892914 0.511016 0.976525 0
M  V30 10 C 1.842650 1.337251 0.860945 0
M  V30 11 C 1.980972 2.747427 1.151293 0
M  V30 12 C 3.205299 3.250020 1.549765 0
M  V30 13 C 3.392514 4.584986 1.838751 0
M  V30 14 N 2.346900 5.421293 1.727849 0
M  V30 15 C 1.155174 4.936826 1.340817 0
M  V30 16 C 0.917686 3.618890 1.042285 0
M  V30 17 N 0.763655 0.713468 0.474011 0
M  V30 18 C 0.576853 -0.574091 0.192495 0
M  V30 19 N -0.726190 -0.904117 -0.188507 0
M  V30 20 C -1.798472 0.072293 -0.297601 0
M  V30 21 C -2.117689 0.650721 1.062051 0 CFG=1
M  V30 22 C -3.242779 1.677225 0.959919 0
M  V30 23 N -2.493063 -0.412414 1.982371 0
M  V30 24 C 1.632169 -1.440318 0.301857 0
M  V30 25 H -1.864013 -5.506132 1.124388 0
M  V30 26 H -1.771481 -4.862554 -0.580466 0
M  V30 27 H -0.740255 -6.244876 -0.039505 0
M  V30 28 H 0.612277 -5.014471 1.288380 0
M  V30 29 H -0.817260 -4.043629 2.757579 0
M  V30 30 H 0.190128 -2.672906 2.092402 0
M  V30 31 H -1.568974 -2.984204 1.577601 0
M  V30 32 H 1.119672 -4.649263 -0.863780 0
M  V30 33 H 0.027595 -3.361175 -1.224389 0
M  V30 34 H 3.335666 -4.407904 0.119242 0
M  V30 35 H 4.027931 2.541308 1.627604 0
M  V30 36 H 4.391292 4.911122 2.147964 0
M  V30 37 H 0.388293 5.694869 1.285725 0
M  V30 38 H -0.054426 3.277293 0.736606 0
M  V30 39 H -1.222758 -1.776203 -0.442555 0
M  V30 40 H -1.439986 0.966609 -0.893519 0
M  V30 41 H -2.690622 -0.278193 -0.822565 0
M  V30 42 H -1.264591 1.193245 1.478279 0
M  V30 43 H -3.914076 1.493580 1.822878 0
M  V30 44 H -3.853822 1.523987 0.047012 0
M  V30 45 H -2.876819 2.719522 1.061466 0
M  V30 46 H -2.566141 -0.085668 2.954015 0
M  V30 47 H -3.380648 -0.822506 1.623574 0
M  V30 END ATOM
M  V30 BEGIN BOND
M  V30 1 1 1 2
M  V30 2 1 2 3
M  V30 3 1 2 4
M  V30 4 1 4 5
M  V30 5 2 5 6
M  V30 6 1 6 7
M  V30 7 1 7 8
M  V30 8 2 8 9
M  V30 9 1 9 10
M  V30 10 1 10 11
M  V30 11 2 11 12
M  V30 12 1 12 13
M  V30 13 2 13 14
M  V30 14 1 14 15
M  V30 15 2 15 16
M  V30 16 2 10 17
M  V30 17 1 17 18
M  V30 18 1 18 19
M  V30 19 1 19 20
M  V30 20 1 20 21
M  V30 21 1 21 22
M  V30 22 1 21 23
M  V30 23 2 18 24
M  V30 24 1 24 5
M  V30 25 1 24 8
M  V30 26 1 16 11
M  V30 27 1 1 25
M  V30 28 1 1 26
M  V30 29 1 1 27
M  V30 30 1 2 28
M  V30 31 1 3 29
M  V30 32 1 3 30
M  V30 33 1 3 31
M  V30 34 1 4 32
M  V30 35 1 4 33
M  V30 36 1 6 34
M  V30 37 1 12 35
M  V30 38 1 13 36
M  V30 39 1 15 37
M  V30 40 1 16 38
M  V30 41 1 19 39
M  V30 42 1 20 40
M  V30 43 1 20 41
M  V30 44 1 21 42 CFG=1
M  V30 45 1 22 43
M  V30 46 1 22 44
M  V30 47 1 22 45
M  V30 48 1 23 46
M  V30 49 1 23 47
M  V30 END BOND
M  V30 END CTAB
M  END
>  <Dataset>  (786) 
ChEMBL_Kinases

>  <Ligand_Instance>  (786) 
nan

>  <PDB_ID>  (786) 
nan

>  <Standardized_SMILES>  (786) 
CC(C)Cc1csc2nc(-c3ccncc3)nc(NC[C@@H](C)N)c12

>  <Name>  (786) 
nan

>  <Pocket>  (786) 
nan

>  <ATP_Site>  (786) 
nan

>  <Peripheral>  (786) 
nan

>  <Num_H_Atoms_ProtBoundConf>  (786) 
nan

>  <Num_Resolved_Atoms>  (786) 
nan

>  <Num_Not_Resolved_Atoms>  (786) 
nan

$$$$
CHEMBL3730634
     RDKit          3D

  0  0  0  0  0  0  0  0  0  0999 V3000
M  V30 BEGIN CTAB
M  V30 COUNTS 45 48 0 0 0
M  V30 BEGIN ATOM
M  V30 1 C 3.741493 -6.204363 2.999980 0
M  V30 2 N 3.734732 -5.522653 1.714403 0
M  V30 3 C 2.473652 -5.099207 1.202168 0
M  V30 4 O 1.391341 -5.276990 1.784477 0
M  V30 5 N 2.481004 -4.440975 -0.042427 0
M  V30 6 C 1.316477 -3.952615 -0.699474 0
M  V30 7 C 0.926720 -2.663105 -0.424285 0
M  V30 8 C -0.201573 -2.213520 -1.071320 0
M  V30 9 C -0.662377 -0.855365 -0.819005 0
M  V30 10 N 0.025277 -0.077924 0.037919 0
M  V30 11 C -0.370124 1.183980 0.297092 0
M  V30 12 N 0.292780 2.077176 1.169131 0
M  V30 13 C 0.022349 3.411012 1.594056 0 CFG=2
M  V30 14 C 1.129303 3.998925 2.454546 0
M  V30 15 C 0.764207 3.413361 3.825030 0
M  V30 16 N -0.638866 3.697755 3.875050 0
M  V30 17 C -1.174382 3.487843 2.526823 0
M  V30 18 C -1.466404 1.605269 -0.338841 0
M  V30 19 S -2.394121 3.209606 -0.341196 0
M  V30 20 C -3.720578 2.653241 -1.582571 0
M  V30 21 C -3.332729 1.320363 -1.869467 0
M  V30 22 C -2.230894 0.845960 -1.245366 0
M  V30 23 N -1.758927 -0.399028 -1.439374 0
M  V30 24 C -0.890416 -3.027934 -1.945154 0
M  V30 25 C -0.454309 -4.314903 -2.184540 0
M  V30 26 N 0.660986 -4.765629 -1.547723 0
M  V30 27 H 3.424159 -7.261884 2.904711 0
M  V30 28 H 4.793166 -6.200004 3.352876 0
M  V30 29 H 3.141255 -5.626161 3.703470 0
M  V30 30 H 4.624814 -5.338694 1.164347 0
M  V30 31 H 3.320931 -4.232732 -0.626950 0
M  V30 32 H 1.470803 -2.031009 0.261052 0
M  V30 33 H 1.155762 1.658026 1.577289 0
M  V30 34 H -0.114721 4.060267 0.731129 0
M  V30 35 H 0.999613 5.086021 2.531527 0
M  V30 36 H 2.126610 3.652786 2.188318 0
M  V30 37 H 0.912463 2.314061 3.826887 0
M  V30 38 H 1.342178 3.897782 4.623772 0
M  V30 39 H -1.069359 3.004616 4.527356 0
M  V30 40 H -1.811093 4.373505 2.337388 0
M  V30 41 H -1.798772 2.574987 2.500772 0
M  V30 42 H -4.540912 3.259163 -1.937494 0
M  V30 43 H -3.990176 0.845004 -2.571399 0
M  V30 44 H -1.762584 -2.624605 -2.420853 0
M  V30 45 H -1.059922 -4.874410 -2.883987 0
M  V30 END ATOM
M  V30 BEGIN BOND
M  V30 1 1 1 2
M  V30 2 1 2 3
M  V30 3 2 3 4
M  V30 4 1 3 5
M  V30 5 1 5 6
M  V30 6 2 6 7
M  V30 7 1 7 8
M  V30 8 1 8 9
M  V30 9 2 9 10
M  V30 10 1 10 11
M  V30 11 1 11 12
M  V30 12 1 12 13
M  V30 13 1 13 14
M  V30 14 1 14 15
M  V30 15 1 15 16
M  V30 16 1 16 17
M  V30 17 2 11 18
M  V30 18 1 18 19
M  V30 19 1 19 20
M  V30 20 2 20 21
M  V30 21 1 21 22
M  V30 22 2 22 23
M  V30 23 2 8 24
M  V30 24 1 24 25
M  V30 25 2 25 26
M  V30 26 1 26 6
M  V30 27 1 23 9
M  V30 28 1 17 13
M  V30 29 1 22 18
M  V30 30 1 1 27
M  V30 31 1 1 28
M  V30 32 1 1 29
M  V30 33 1 2 30
M  V30 34 1 5 31
M  V30 35 1 7 32
M  V30 36 1 12 33
M  V30 37 1 13 34 CFG=3
M  V30 38 1 14 35
M  V30 39 1 14 36
M  V30 40 1 15 37
M  V30 41 1 15 38
M  V30 42 1 16 39
M  V30 43 1 17 40
M  V30 44 1 17 41
M  V30 45 1 20 42
M  V30 46 1 21 43
M  V30 47 1 24 44
M  V30 48 1 25 45
M  V30 END BOND
M  V30 END CTAB
M  END
>  <Dataset>  (787) 
ChEMBL_Kinases

>  <Ligand_Instance>  (787) 
nan

>  <PDB_ID>  (787) 
nan

>  <Standardized_SMILES>  (787) 
CNC(=O)Nc1cc(-c2nc(N[C@@H]3CCNC3)c3sccc3n2)ccn1

>  <Name>  (787) 
nan

>  <Pocket>  (787) 
nan

>  <ATP_Site>  (787) 
nan

>  <Peripheral>  (787) 
nan

>  <Num_H_Atoms_ProtBoundConf>  (787) 
nan

>  <Num_Resolved_Atoms>  (787) 
nan

>  <Num_Not_Resolved_Atoms>  (787) 
nan

$$$$
CHEMBL3730803
     RDKit          3D

  0  0  0  0  0  0  0  0  0  0999 V3000
M  V30 BEGIN CTAB
M  V30 COUNTS 51 55 0 0 0
M  V30 BEGIN ATOM
M  V30 1 N -1.607135 -2.748356 -2.008366 0
M  V30 2 C -0.436024 -3.127963 -1.265355 0 CFG=1
M  V30 3 C 0.315169 -1.888706 -0.819065 0
M  V30 4 O -0.483708 -1.067614 0.005478 0
M  V30 5 C 0.052785 0.111336 0.502658 0
M  V30 6 N 1.311960 0.444369 0.191307 0
M  V30 7 C 1.973242 1.533295 0.582933 0
M  V30 8 C 3.347342 1.826528 0.200644 0
M  V30 9 C 4.025075 0.944399 -0.610957 0
M  V30 10 C 5.327638 1.199071 -0.987374 0
M  V30 11 N 5.930111 2.323803 -0.550398 0
M  V30 12 C 5.286152 3.190791 0.238248 0
M  V30 13 C 3.977324 2.986419 0.647743 0
M  V30 14 N 1.274428 2.365269 1.373286 0
M  V30 15 C -0.025940 2.085543 1.733821 0
M  V30 16 S -1.141825 2.972487 2.727932 0
M  V30 17 C -2.497278 1.767382 2.548909 0
M  V30 18 C -1.952607 0.790366 1.733250 0
M  V30 19 C -0.674187 0.984031 1.329224 0
M  V30 20 C -2.990300 -0.255906 1.523489 0
M  V30 21 C -4.183177 0.483657 0.898632 0
M  V30 22 C -4.865125 1.319608 1.956471 0
M  V30 23 C -3.920410 1.689050 3.077397 0
M  V30 24 C -0.792608 -3.975225 -0.062852 0
M  V30 25 C 0.357867 -4.355553 0.678186 0
M  V30 26 C 1.238382 -5.427963 0.649635 0
M  V30 27 C 2.279983 -5.498595 1.532413 0
M  V30 28 C 2.409384 -4.413625 2.478817 0
M  V30 29 S 0.995975 -3.310762 2.051328 0
M  V30 30 H -2.348644 -3.480149 -2.016652 0
M  V30 31 H -1.347801 -2.387633 -2.942067 0
M  V30 32 H 0.258893 -3.732338 -1.883888 0
M  V30 33 H 1.214961 -2.182942 -0.232159 0
M  V30 34 H 0.673301 -1.340848 -1.710654 0
M  V30 35 H 3.601680 0.022957 -0.997543 0
M  V30 36 H 5.952434 0.579986 -1.617767 0
M  V30 37 H 5.687316 4.124654 0.641437 0
M  V30 38 H 3.386493 3.633248 1.281133 0
M  V30 39 H -2.649696 -1.013128 0.824526 0
M  V30 40 H -3.305858 -0.655118 2.508450 0
M  V30 41 H -3.741676 1.181428 0.156910 0
M  V30 42 H -4.833840 -0.258994 0.430105 0
M  V30 43 H -5.676532 0.705977 2.398001 0
M  V30 44 H -5.345553 2.195061 1.477291 0
M  V30 45 H -3.925734 0.965329 3.897709 0
M  V30 46 H -4.217858 2.716762 3.383231 0
M  V30 47 H -1.345868 -4.871576 -0.426227 0
M  V30 48 H -1.523670 -3.398795 0.564004 0
M  V30 49 H 1.018780 -6.159998 -0.107944 0
M  V30 50 H 2.975342 -6.322029 1.527869 0
M  V30 51 H 3.208741 -4.395696 3.211460 0
M  V30 END ATOM
M  V30 BEGIN BOND
M  V30 1 1 1 2
M  V30 2 1 2 3
M  V30 3 1 3 4
M  V30 4 1 4 5
M  V30 5 2 5 6
M  V30 6 1 6 7
M  V30 7 1 7 8
M  V30 8 2 8 9
M  V30 9 1 9 10
M  V30 10 2 10 11
M  V30 11 1 11 12
M  V30 12 2 12 13
M  V30 13 2 7 14
M  V30 14 1 14 15
M  V30 15 1 15 16
M  V30 16 1 16 17
M  V30 17 2 17 18
M  V30 18 1 18 19
M  V30 19 1 18 20
M  V30 20 1 20 21
M  V30 21 1 21 22
M  V30 22 1 22 23
M  V30 23 1 2 24
M  V30 24 1 24 25
M  V30 25 2 25 26
M  V30 26 1 26 27
M  V30 27 2 27 28
M  V30 28 1 28 29
M  V30 29 1 19 5
M  V30 30 1 29 25
M  V30 31 1 13 8
M  V30 32 2 19 15
M  V30 33 1 23 17
M  V30 34 1 1 30
M  V30 35 1 1 31
M  V30 36 1 2 32 CFG=3
M  V30 37 1 3 33
M  V30 38 1 3 34
M  V30 39 1 9 35
M  V30 40 1 10 36
M  V30 41 1 12 37
M  V30 42 1 13 38
M  V30 43 1 20 39
M  V30 44 1 20 40
M  V30 45 1 21 41
M  V30 46 1 21 42
M  V30 47 1 22 43
M  V30 48 1 22 44
M  V30 49 1 23 45
M  V30 50 1 23 46
M  V30 51 1 24 47
M  V30 52 1 24 48
M  V30 53 1 26 49
M  V30 54 1 27 50
M  V30 55 1 28 51
M  V30 END BOND
M  V30 END CTAB
M  END
>  <Dataset>  (788) 
ChEMBL_Kinases

>  <Ligand_Instance>  (788) 
nan

>  <PDB_ID>  (788) 
nan

>  <Standardized_SMILES>  (788) 
N[C@@H](COc1nc(-c2ccncc2)nc2sc3c(c12)CCCC3)Cc1cccs1

>  <Name>  (788) 
nan

>  <Pocket>  (788) 
nan

>  <ATP_Site>  (788) 
nan

>  <Peripheral>  (788) 
nan

>  <Num_H_Atoms_ProtBoundConf>  (788) 
nan

>  <Num_Resolved_Atoms>  (788) 
nan

>  <Num_Not_Resolved_Atoms>  (788) 
nan

$$$$
CHEMBL3706770
     RDKit          3D

  0  0  0  0  0  0  0  0  0  0999 V3000
M  V30 BEGIN CTAB
M  V30 COUNTS 37 39 0 0 0
M  V30 BEGIN ATOM
M  V30 1 C 0.340447 -5.620074 1.509328 0
M  V30 2 O 0.861322 -5.062242 0.312832 0
M  V30 3 C 0.810735 -3.687855 0.117726 0
M  V30 4 C 0.274724 -2.783953 1.026910 0
M  V30 5 C 0.276140 -1.418910 0.726524 0
M  V30 6 C 0.803636 -0.960539 -0.461942 0
M  V30 7 C 1.335091 -1.878674 -1.358623 0
M  V30 8 C 1.340147 -3.235225 -1.073443 0
M  V30 9 O 1.886372 -4.103668 -2.011436 0
M  V30 10 C 2.411642 -3.596400 -3.205973 0
M  V30 11 O 0.773533 0.407634 -0.697952 0
M  V30 12 C 0.240090 1.319397 0.204224 0
M  V30 13 C 0.218570 2.677312 -0.047241 0
M  V30 14 C -0.305658 3.602057 0.833104 0
M  V30 15 N -0.309862 4.993828 0.538533 0
M  V30 16 C -0.821037 3.093921 2.007402 0
M  V30 17 C -1.385476 4.016603 2.971150 0
M  V30 18 N -1.846793 4.736543 3.743481 0
M  V30 19 C -0.838045 1.750422 2.335236 0
M  V30 20 N -1.385921 1.277888 3.568836 0
M  V30 21 C -0.296366 0.876668 1.407762 0
M  V30 22 C -0.324667 -0.557379 1.778605 0
M  V30 23 H 0.238398 -6.709383 1.427821 0
M  V30 24 H 1.001030 -5.349725 2.374888 0
M  V30 25 H -0.653362 -5.159842 1.762845 0
M  V30 26 H -0.135173 -3.188502 1.960956 0
M  V30 27 H 1.736451 -1.434266 -2.283740 0
M  V30 28 H 1.635148 -3.178659 -3.880364 0
M  V30 29 H 3.166050 -2.809275 -3.061908 0
M  V30 30 H 2.856348 -4.447865 -3.766175 0
M  V30 31 H 0.630730 3.057147 -0.980569 0
M  V30 32 H 0.066162 5.625881 1.297015 0
M  V30 33 H -0.700956 5.197280 -0.426409 0
M  V30 34 H -1.454188 1.871037 4.409160 0
M  V30 35 H -1.736058 0.295116 3.640281 0
M  V30 36 H -1.365182 -0.880016 2.014682 0
M  V30 37 H 0.253625 -0.692705 2.729447 0
M  V30 END ATOM
M  V30 BEGIN BOND
M  V30 1 1 1 2
M  V30 2 1 2 3
M  V30 3 2 3 4
M  V30 4 1 4 5
M  V30 5 2 5 6
M  V30 6 1 6 7
M  V30 7 2 7 8
M  V30 8 1 8 9
M  V30 9 1 9 10
M  V30 10 1 6 11
M  V30 11 1 11 12
M  V30 12 2 12 13
M  V30 13 1 13 14
M  V30 14 1 14 15
M  V30 15 2 14 16
M  V30 16 1 16 17
M  V30 17 3 17 18
M  V30 18 1 16 19
M  V30 19 1 19 20
M  V30 20 2 19 21
M  V30 21 1 21 22
M  V30 22 1 8 3
M  V30 23 1 21 12
M  V30 24 1 22 5
M  V30 25 1 1 23
M  V30 26 1 1 24
M  V30 27 1 1 25
M  V30 28 1 4 26
M  V30 29 1 7 27
M  V30 30 1 10 28
M  V30 31 1 10 29
M  V30 32 1 10 30
M  V30 33 1 13 31
M  V30 34 1 15 32
M  V30 35 1 15 33
M  V30 36 1 20 34
M  V30 37 1 20 35
M  V30 38 1 22 36
M  V30 39 1 22 37
M  V30 END BOND
M  V30 END CTAB
M  END
>  <Dataset>  (789) 
ChEMBL_Kinases

>  <Ligand_Instance>  (789) 
nan

>  <PDB_ID>  (789) 
nan

>  <Standardized_SMILES>  (789) 
COc1cc2c(cc1OC)Oc1cc(N)c(C#N)c(N)c1C2

>  <Name>  (789) 
nan

>  <Pocket>  (789) 
nan

>  <ATP_Site>  (789) 
nan

>  <Peripheral>  (789) 
nan

>  <Num_H_Atoms_ProtBoundConf>  (789) 
nan

>  <Num_Resolved_Atoms>  (789) 
nan

>  <Num_Not_Resolved_Atoms>  (789) 
nan

$$$$
CHEMBL3728888
     RDKit          3D

  0  0  0  0  0  0  0  0  0  0999 V3000
M  V30 BEGIN CTAB
M  V30 COUNTS 56 60 0 0 0
M  V30 BEGIN ATOM
M  V30 1 O 0.028168 -4.000327 0.126664 0
M  V30 2 C -1.079363 -4.122769 0.738063 0
M  V30 3 N -1.057577 -3.172176 1.814388 0
M  V30 4 C 0.098284 -2.361966 1.959606 0
M  V30 5 C 1.105093 -2.907616 2.790904 0
M  V30 6 S 2.462161 -1.580252 2.749568 0
M  V30 7 C 1.586871 -0.534252 1.704911 0
M  V30 8 C 1.925934 0.714066 1.178320 0
M  V30 9 N 3.193331 1.246439 1.538039 0
M  V30 10 C 3.531419 2.518410 0.997674 0 CFG=2
M  V30 11 C 4.906743 2.911451 1.492110 0
M  V30 12 C 4.608403 3.254402 2.945677 0
M  V30 13 N 3.267893 3.763855 2.975575 0
M  V30 14 C 2.692177 3.599572 1.675729 0
M  V30 15 N 1.060603 1.378303 0.353888 0
M  V30 16 C -0.114935 0.722956 0.111200 0
M  V30 17 C -1.080744 1.407871 -0.777156 0
M  V30 18 C -2.286137 0.803829 -1.064281 0
M  V30 19 C -3.174235 1.473362 -1.903535 0
M  V30 20 N -2.841493 2.675138 -2.407187 0
M  V30 21 C -1.657475 3.238079 -2.108036 0
M  V30 22 C -0.714127 2.627789 -1.273393 0
M  V30 23 N -0.421389 -0.469944 0.623547 0
M  V30 24 C 0.415510 -1.142425 1.437829 0
M  V30 25 C -2.317362 -4.932780 0.648832 0
M  V30 26 C -2.312402 -5.914407 -0.481148 0
M  V30 27 C -1.890549 -5.163840 -1.737515 0
M  V30 28 C -2.568403 -3.838590 -1.859139 0
M  V30 29 C -3.823076 -3.776320 -1.003032 0
M  V30 30 C -3.541012 -4.032409 0.444882 0
M  V30 31 H -1.808575 -2.983344 2.541012 0
M  V30 32 H 1.137922 -3.875494 3.353109 0
M  V30 33 H 3.835631 0.737047 2.159142 0
M  V30 34 H 3.446269 2.579714 -0.104425 0
M  V30 35 H 5.341686 3.740715 0.931367 0
M  V30 36 H 5.544156 1.988146 1.461159 0
M  V30 37 H 5.367969 3.906095 3.389071 0
M  V30 38 H 4.581115 2.289393 3.531669 0
M  V30 39 H 2.638399 3.263124 3.662040 0
M  V30 40 H 2.716249 4.544884 1.078139 0
M  V30 41 H 1.643384 3.246302 1.714391 0
M  V30 42 H -2.565184 -0.173334 -0.659186 0
M  V30 43 H -4.139398 1.063100 -2.174774 0
M  V30 44 H -1.421022 4.217716 -2.536695 0
M  V30 45 H 0.219455 3.132220 -1.071623 0
M  V30 46 H -2.475006 -5.425018 1.634512 0
M  V30 47 H -3.350798 -6.264639 -0.635493 0
M  V30 48 H -1.633599 -6.757851 -0.301258 0
M  V30 49 H -2.171652 -5.832949 -2.598861 0
M  V30 50 H -0.797066 -5.044718 -1.795021 0
M  V30 51 H -1.951247 -2.963627 -1.617765 0
M  V30 52 H -2.921576 -3.682291 -2.916343 0
M  V30 53 H -4.277193 -2.783253 -1.175000 0
M  V30 54 H -4.563994 -4.510885 -1.418696 0
M  V30 55 H -3.347793 -3.097382 1.025972 0
M  V30 56 H -4.426940 -4.504990 0.953418 0
M  V30 END ATOM
M  V30 BEGIN BOND
M  V30 1 2 1 2
M  V30 2 1 2 3
M  V30 3 1 3 4
M  V30 4 2 4 5
M  V30 5 1 5 6
M  V30 6 1 6 7
M  V30 7 2 7 8
M  V30 8 1 8 9
M  V30 9 1 9 10
M  V30 10 1 10 11
M  V30 11 1 11 12
M  V30 12 1 12 13
M  V30 13 1 13 14
M  V30 14 1 8 15
M  V30 15 2 15 16
M  V30 16 1 16 17
M  V30 17 2 17 18
M  V30 18 1 18 19
M  V30 19 2 19 20
M  V30 20 1 20 21
M  V30 21 2 21 22
M  V30 22 1 16 23
M  V30 23 2 23 24
M  V30 24 1 2 25
M  V30 25 1 25 26
M  V30 26 1 26 27
M  V30 27 1 27 28
M  V30 28 1 28 29
M  V30 29 1 29 30
M  V30 30 1 24 4
M  V30 31 1 30 25
M  V30 32 1 24 7
M  V30 33 1 14 10
M  V30 34 1 22 17
M  V30 35 1 3 31
M  V30 36 1 5 32
M  V30 37 1 9 33
M  V30 38 1 10 34 CFG=3
M  V30 39 1 11 35
M  V30 40 1 11 36
M  V30 41 1 12 37
M  V30 42 1 12 38
M  V30 43 1 13 39
M  V30 44 1 14 40
M  V30 45 1 14 41
M  V30 46 1 18 42
M  V30 47 1 19 43
M  V30 48 1 21 44
M  V30 49 1 22 45
M  V30 50 1 25 46
M  V30 51 1 26 47
M  V30 52 1 26 48
M  V30 53 1 27 49
M  V30 54 1 27 50
M  V30 55 1 28 51
M  V30 56 1 28 52
M  V30 57 1 29 53
M  V30 58 1 29 54
M  V30 59 1 30 55
M  V30 60 1 30 56
M  V30 END BOND
M  V30 END CTAB
M  END
>  <Dataset>  (790) 
ChEMBL_Kinases

>  <Ligand_Instance>  (790) 
nan

>  <PDB_ID>  (790) 
nan

>  <Standardized_SMILES>  (790) 
O=C(Nc1csc2c(N[C@@H]3CCNC3)nc(-c3ccncc3)nc12)C1CCCCC1

>  <Name>  (790) 
nan

>  <Pocket>  (790) 
nan

>  <ATP_Site>  (790) 
nan

>  <Peripheral>  (790) 
nan

>  <Num_H_Atoms_ProtBoundConf>  (790) 
nan

>  <Num_Resolved_Atoms>  (790) 
nan

>  <Num_Not_Resolved_Atoms>  (790) 
nan

$$$$
CHEMBL3706771
     RDKit          3D

  0  0  0  0  0  0  0  0  0  0999 V3000
M  V30 BEGIN CTAB
M  V30 COUNTS 30 32 0 0 0
M  V30 BEGIN ATOM
M  V30 1 N 3.165500 -5.118521 1.962638 0
M  V30 2 C 2.441363 -4.210918 1.895195 0
M  V30 3 C 1.548191 -3.066134 1.794949 0
M  V30 4 C 0.716640 -2.857587 2.875297 0
M  V30 5 N 0.713783 -3.694298 4.025504 0
M  V30 6 C -0.132737 -1.774012 2.786929 0
M  V30 7 C -0.168415 -0.942577 1.707223 0
M  V30 8 C 0.662168 -1.149782 0.626633 0
M  V30 9 C 1.535103 -2.242305 0.688551 0
M  V30 10 N 2.459260 -2.588793 -0.355061 0
M  V30 11 C 0.796354 -0.386892 -0.638261 0
M  V30 12 C -0.167430 0.739457 -0.597262 0
M  V30 13 C -0.201861 1.579529 -1.690849 0
M  V30 14 C -1.098332 2.625904 -1.650944 0
M  V30 15 C -1.963979 2.905914 -0.612441 0
M  V30 16 C -1.898446 2.039460 0.466182 0
M  V30 17 O -2.739805 2.267090 1.536512 0
M  V30 18 C -1.014576 0.981089 0.463398 0
M  V30 19 O -1.005100 0.155644 1.577949 0
M  V30 20 H 1.473665 -3.439979 4.720347 0
M  V30 21 H 1.396260 -3.585263 4.814231 0
M  V30 22 H -0.815124 -1.547156 3.597178 0
M  V30 23 H 3.058662 -1.993762 -0.968322 0
M  V30 24 H 2.613931 -3.602175 -0.603881 0
M  V30 25 H 0.555068 -1.123183 -1.457575 0
M  V30 26 H 1.832640 -0.017794 -0.766947 0
M  V30 27 H 0.446904 1.424388 -2.544061 0
M  V30 28 H -1.167782 3.325025 -2.494057 0
M  V30 29 H -2.642313 3.738119 -0.637613 0
M  V30 30 H -3.196716 1.542372 2.061463 0
M  V30 END ATOM
M  V30 BEGIN BOND
M  V30 1 3 1 2
M  V30 2 1 2 3
M  V30 3 2 3 4
M  V30 4 1 4 5
M  V30 5 1 4 6
M  V30 6 2 6 7
M  V30 7 1 7 8
M  V30 8 2 8 9
M  V30 9 1 9 10
M  V30 10 1 8 11
M  V30 11 1 11 12
M  V30 12 2 12 13
M  V30 13 1 13 14
M  V30 14 2 14 15
M  V30 15 1 15 16
M  V30 16 1 16 17
M  V30 17 2 16 18
M  V30 18 1 18 19
M  V30 19 1 9 3
M  V30 20 1 18 12
M  V30 21 1 19 7
M  V30 22 1 5 20
M  V30 23 1 5 21
M  V30 24 1 6 22
M  V30 25 1 10 23
M  V30 26 1 10 24
M  V30 27 1 11 25
M  V30 28 1 11 26
M  V30 29 1 13 27
M  V30 30 1 14 28
M  V30 31 1 15 29
M  V30 32 1 17 30
M  V30 END BOND
M  V30 END CTAB
M  END
>  <Dataset>  (791) 
ChEMBL_Kinases

>  <Ligand_Instance>  (791) 
nan

>  <PDB_ID>  (791) 
nan

>  <Standardized_SMILES>  (791) 
N#Cc1c(N)cc2c(c1N)Cc1cccc(O)c1O2

>  <Name>  (791) 
nan

>  <Pocket>  (791) 
nan

>  <ATP_Site>  (791) 
nan

>  <Peripheral>  (791) 
nan

>  <Num_H_Atoms_ProtBoundConf>  (791) 
nan

>  <Num_Resolved_Atoms>  (791) 
nan

>  <Num_Not_Resolved_Atoms>  (791) 
nan

$$$$
CHEMBL3728884
     RDKit          3D

  0  0  0  0  0  0  0  0  0  0999 V3000
M  V30 BEGIN CTAB
M  V30 COUNTS 45 48 0 0 0
M  V30 BEGIN ATOM
M  V30 1 N 1.711605 -3.948522 2.440659 0
M  V30 2 C 0.506630 -3.490292 1.769607 0 CFG=2
M  V30 3 C 0.769256 -2.187623 1.022875 0
M  V30 4 N 1.198874 -1.148957 1.921532 0
M  V30 5 C 1.465820 0.090344 1.327550 0
M  V30 6 N 1.353578 0.369824 0.023776 0
M  V30 7 C 1.658406 1.641276 -0.375715 0
M  V30 8 C 1.559314 2.027449 -1.797579 0
M  V30 9 C 1.149654 1.044876 -2.670813 0
M  V30 10 C 1.044977 1.369315 -4.010995 0
M  V30 11 N 1.325467 2.583431 -4.463889 0
M  V30 12 C 1.730685 3.570025 -3.628599 0
M  V30 13 C 1.850183 3.288708 -2.271512 0
M  V30 14 N 2.060451 2.622207 0.448099 0
M  V30 15 C 2.201824 2.434829 1.770771 0
M  V30 16 C 2.596006 3.333218 2.701417 0
M  V30 17 C 2.678004 2.926840 4.046295 0
M  V30 18 S 2.146645 1.102661 3.981641 0
M  V30 19 C 1.875521 1.101524 2.144582 0
M  V30 20 C -0.670363 -3.366340 2.681910 0
M  V30 21 C -1.908793 -2.906159 2.044467 0
M  V30 22 C -2.705065 -3.920948 1.551397 0
M  V30 23 C -3.915952 -3.649431 0.916770 0
M  V30 24 C -4.252177 -2.301338 0.821336 0
M  V30 25 C -3.478024 -1.286701 1.302491 0
M  V30 26 C -2.277897 -1.577325 1.930111 0
M  V30 27 H 1.882109 -4.965592 2.246313 0
M  V30 28 H 1.528629 -3.888987 3.474942 0
M  V30 29 H 0.236136 -4.239674 0.994970 0
M  V30 30 H -0.172909 -1.855856 0.568233 0
M  V30 31 H 1.569942 -2.337650 0.270446 0
M  V30 32 H 1.295948 -1.334330 2.939599 0
M  V30 33 H 0.916247 0.042434 -2.309200 0
M  V30 34 H 0.719967 0.566608 -4.658869 0
M  V30 35 H 1.960625 4.566033 -4.001205 0
M  V30 36 H 2.170914 4.037894 -1.548813 0
M  V30 37 H 2.858715 4.354922 2.500849 0
M  V30 38 H 2.972721 3.512881 4.908294 0
M  V30 39 H -0.788776 -4.338637 3.203707 0
M  V30 40 H -0.409468 -2.630155 3.486546 0
M  V30 41 H -2.462267 -4.986749 1.614456 0
M  V30 42 H -4.565894 -4.413548 0.518378 0
M  V30 43 H -5.206545 -2.096085 0.320595 0
M  V30 44 H -3.760124 -0.239969 1.217058 0
M  V30 45 H -1.591767 -0.849434 2.345663 0
M  V30 END ATOM
M  V30 BEGIN BOND
M  V30 1 1 1 2
M  V30 2 1 2 3
M  V30 3 1 3 4
M  V30 4 1 4 5
M  V30 5 2 5 6
M  V30 6 1 6 7
M  V30 7 1 7 8
M  V30 8 2 8 9
M  V30 9 1 9 10
M  V30 10 2 10 11
M  V30 11 1 11 12
M  V30 12 2 12 13
M  V30 13 2 7 14
M  V30 14 1 14 15
M  V30 15 1 15 16
M  V30 16 2 16 17
M  V30 17 1 17 18
M  V30 18 1 18 19
M  V30 19 1 2 20
M  V30 20 1 20 21
M  V30 21 2 21 22
M  V30 22 1 22 23
M  V30 23 2 23 24
M  V30 24 1 24 25
M  V30 25 2 25 26
M  V30 26 1 19 5
M  V30 27 1 26 21
M  V30 28 1 13 8
M  V30 29 2 19 15
M  V30 30 1 1 27
M  V30 31 1 1 28
M  V30 32 1 2 29 CFG=3
M  V30 33 1 3 30
M  V30 34 1 3 31
M  V30 35 1 4 32
M  V30 36 1 9 33
M  V30 37 1 10 34
M  V30 38 1 12 35
M  V30 39 1 13 36
M  V30 40 1 16 37
M  V30 41 1 17 38
M  V30 42 1 20 39
M  V30 43 1 20 40
M  V30 44 1 22 41
M  V30 45 1 23 42
M  V30 46 1 24 43
M  V30 47 1 25 44
M  V30 48 1 26 45
M  V30 END BOND
M  V30 END CTAB
M  END
>  <Dataset>  (792) 
ChEMBL_Kinases

>  <Ligand_Instance>  (792) 
nan

>  <PDB_ID>  (792) 
nan

>  <Standardized_SMILES>  (792) 
N[C@H](CNc1nc(-c2ccncc2)nc2ccsc12)Cc1ccccc1

>  <Name>  (792) 
nan

>  <Pocket>  (792) 
nan

>  <ATP_Site>  (792) 
nan

>  <Peripheral>  (792) 
nan

>  <Num_H_Atoms_ProtBoundConf>  (792) 
nan

>  <Num_Resolved_Atoms>  (792) 
nan

>  <Num_Not_Resolved_Atoms>  (792) 
nan

$$$$
CHEMBL3728881
     RDKit          3D

  0  0  0  0  0  0  0  0  0  0999 V3000
M  V30 BEGIN CTAB
M  V30 COUNTS 60 65 0 0 0
M  V30 BEGIN ATOM
M  V30 1 C 1.233486 -2.734205 2.586881 0
M  V30 2 C 1.376476 -1.378009 2.414654 0
M  V30 3 C 0.255223 -0.589579 2.286455 0
M  V30 4 C 0.416670 0.871167 2.101250 0
M  V30 5 N 1.683474 1.380149 2.061945 0
M  V30 6 C 1.743296 2.712114 1.890986 0
M  V30 7 N 2.970254 3.420358 1.824459 0
M  V30 8 C 4.179393 2.673546 1.945969 0 CFG=2
M  V30 9 C 4.254584 1.952728 3.274917 0
M  V30 10 C 5.760748 1.670840 3.353105 0
M  V30 11 N 6.373520 2.856172 2.842227 0
M  V30 12 C 5.406817 3.566174 2.061635 0
M  V30 13 C 0.574950 3.442909 1.771970 0
M  V30 14 S 0.352488 5.189363 1.541209 0
M  V30 15 C -1.549895 5.056956 1.518511 0
M  V30 16 C -1.765672 3.714658 1.687689 0
M  V30 17 C -0.675927 2.914234 1.814123 0
M  V30 18 N -0.701720 1.565426 1.988081 0
M  V30 19 C -0.988294 -1.215643 2.338606 0
M  V30 20 C -1.065862 -2.582774 2.513811 0
M  V30 21 N -2.425177 -3.065565 2.544215 0
M  V30 22 C -2.696310 -3.357041 1.173940 0
M  V30 23 C -3.228827 -2.458967 0.255777 0
M  V30 24 C -3.448902 -2.853328 -1.049014 0
M  V30 25 C -3.165048 -4.118613 -1.510601 0
M  V30 26 N -3.396589 -4.517437 -2.853181 0
M  V30 27 C -4.017573 -3.689725 -3.848666 0
M  V30 28 C -3.003199 -3.510287 -4.985917 0
M  V30 29 O -2.931729 -4.748808 -5.617866 0
M  V30 30 C -2.473605 -5.747193 -4.800750 0
M  V30 31 C -3.052908 -5.777896 -3.416629 0
M  V30 32 C -2.641224 -4.958057 -0.553709 0
M  V30 33 N -2.418650 -4.594406 0.723334 0
M  V30 34 N 0.037524 -3.334467 2.636818 0
M  V30 35 H 2.141764 -3.341676 2.686674 0
M  V30 36 H 2.364478 -0.922533 2.378683 0
M  V30 37 H 3.011262 4.449963 1.692058 0
M  V30 38 H 4.299059 1.933257 1.128404 0
M  V30 39 H 4.027831 2.643652 4.095902 0
M  V30 40 H 3.679064 1.007127 3.297012 0
M  V30 41 H 6.055291 1.381507 4.374011 0
M  V30 42 H 5.952729 0.813395 2.670169 0
M  V30 43 H 7.234753 2.565864 2.297739 0
M  V30 44 H 5.070409 4.481157 2.613436 0
M  V30 45 H 5.841429 3.784621 1.069687 0
M  V30 46 H -2.224895 5.916094 1.393103 0
M  V30 47 H -2.808506 3.433904 1.702103 0
M  V30 48 H -1.834331 -0.532567 2.230614 0
M  V30 49 H -3.088302 -3.190099 3.343176 0
M  V30 50 H -3.452076 -1.464875 0.617261 0
M  V30 51 H -3.855579 -2.094549 -1.665363 0
M  V30 52 H -4.351380 -2.706236 -3.518212 0
M  V30 53 H -4.861471 -4.255505 -4.346947 0
M  V30 54 H -3.470888 -2.808629 -5.710088 0
M  V30 55 H -2.050791 -3.105085 -4.651812 0
M  V30 56 H -2.700089 -6.722541 -5.282050 0
M  V30 57 H -1.345305 -5.693212 -4.760829 0
M  V30 58 H -2.300281 -6.272412 -2.770281 0
M  V30 59 H -3.973251 -6.423712 -3.355561 0
M  V30 60 H -2.376039 -5.976668 -0.780248 0
M  V30 END ATOM
M  V30 BEGIN BOND
M  V30 1 2 1 2
M  V30 2 1 2 3
M  V30 3 1 3 4
M  V30 4 2 4 5
M  V30 5 1 5 6
M  V30 6 1 6 7
M  V30 7 1 7 8
M  V30 8 1 8 9
M  V30 9 1 9 10
M  V30 10 1 10 11
M  V30 11 1 11 12
M  V30 12 2 6 13
M  V30 13 1 13 14
M  V30 14 1 14 15
M  V30 15 2 15 16
M  V30 16 1 16 17
M  V30 17 2 17 18
M  V30 18 2 3 19
M  V30 19 1 19 20
M  V30 20 1 20 21
M  V30 21 1 21 22
M  V30 22 2 22 23
M  V30 23 1 23 24
M  V30 24 2 24 25
M  V30 25 1 25 26
M  V30 26 1 26 27
M  V30 27 1 27 28
M  V30 28 1 28 29
M  V30 29 1 29 30
M  V30 30 1 30 31
M  V30 31 1 25 32
M  V30 32 2 32 33
M  V30 33 2 20 34
M  V30 34 1 34 1
M  V30 35 1 18 4
M  V30 36 1 33 22
M  V30 37 1 12 8
M  V30 38 1 17 13
M  V30 39 1 31 26
M  V30 40 1 1 35
M  V30 41 1 2 36
M  V30 42 1 7 37
M  V30 43 1 8 38 CFG=3
M  V30 44 1 9 39
M  V30 45 1 9 40
M  V30 46 1 10 41
M  V30 47 1 10 42
M  V30 48 1 11 43
M  V30 49 1 12 44
M  V30 50 1 12 45
M  V30 51 1 15 46
M  V30 52 1 16 47
M  V30 53 1 19 48
M  V30 54 1 21 49
M  V30 55 1 23 50
M  V30 56 1 24 51
M  V30 57 1 27 52
M  V30 58 1 27 53
M  V30 59 1 28 54
M  V30 60 1 28 55
M  V30 61 1 30 56
M  V30 62 1 30 57
M  V30 63 1 31 58
M  V30 64 1 31 59
M  V30 65 1 32 60
M  V30 END BOND
M  V30 END CTAB
M  END
>  <Dataset>  (793) 
ChEMBL_Kinases

>  <Ligand_Instance>  (793) 
nan

>  <PDB_ID>  (793) 
nan

>  <Standardized_SMILES>  (793) 
c1cc(-c2nc(N[C@@H]3CCNC3)c3sccc3n2)cc(Nc2ccc(N3CCOCC3)cn2)n1

>  <Name>  (793) 
nan

>  <Pocket>  (793) 
nan

>  <ATP_Site>  (793) 
nan

>  <Peripheral>  (793) 
nan

>  <Num_H_Atoms_ProtBoundConf>  (793) 
nan

>  <Num_Resolved_Atoms>  (793) 
nan

>  <Num_Not_Resolved_Atoms>  (793) 
nan

$$$$
CHEMBL3728861
     RDKit          3D

  0  0  0  0  0  0  0  0  0  0999 V3000
M  V30 BEGIN CTAB
M  V30 COUNTS 60 65 0 0 0
M  V30 BEGIN ATOM
M  V30 1 N 1.566042 -1.768707 1.208954 0
M  V30 2 C 0.577154 -2.687075 1.634752 0 CFG=1
M  V30 3 C -0.309792 -1.951405 2.626674 0
M  V30 4 O -0.988202 -0.868637 2.178510 0
M  V30 5 C -0.669161 0.339075 1.640017 0
M  V30 6 N 0.574849 0.766503 1.410159 0
M  V30 7 C 0.989944 1.900003 0.900998 0
M  V30 8 C 2.380330 2.280538 0.688142 0
M  V30 9 C 3.451197 1.473609 1.010044 0
M  V30 10 C 4.760390 1.887646 0.786234 0
M  V30 11 N 5.025409 3.087731 0.248947 0
M  V30 12 C 4.023816 3.905945 -0.080101 0
M  V30 13 C 2.723444 3.500853 0.139522 0
M  V30 14 N 0.038069 2.778267 0.551029 0
M  V30 15 C -1.263753 2.412834 0.755787 0
M  V30 16 S -2.778204 3.314452 0.415794 0
M  V30 17 C -3.903887 2.027956 1.016464 0
M  V30 18 C -3.040789 1.060290 1.408144 0
M  V30 19 C -1.683607 1.218091 1.291668 0
M  V30 20 C -3.861495 -0.066144 1.928323 0
M  V30 21 C -5.103677 0.438404 2.590661 0
M  V30 22 C -6.041621 1.021723 1.523591 0
M  V30 23 C -5.333939 2.217207 0.986250 0
M  V30 24 C -0.252409 -3.355779 0.570003 0
M  V30 25 C 0.582807 -4.098789 -0.342161 0
M  V30 26 C 0.774785 -5.440692 0.011608 0
M  V30 27 C 1.591343 -6.302384 -0.706018 0
M  V30 28 C 2.242321 -5.814332 -1.818410 0
M  V30 29 C 2.059722 -4.496962 -2.176588 0
M  V30 30 C 2.670824 -3.944273 -3.300745 0
M  V30 31 C 2.503767 -2.638790 -3.710582 0
M  V30 32 C 1.672753 -1.850891 -2.939944 0
M  V30 33 C 1.042959 -2.341086 -1.819729 0
M  V30 34 C 1.233537 -3.646019 -1.440815 0
M  V30 35 H 2.361739 -2.202560 0.676541 0
M  V30 36 H 2.042968 -1.433203 2.094488 0
M  V30 37 H 1.113914 -3.501127 2.207193 0
M  V30 38 H -0.927030 -2.710321 3.170105 0
M  V30 39 H 0.417070 -1.603294 3.421810 0
M  V30 40 H 3.279135 0.510165 1.440964 0
M  V30 41 H 5.620000 1.301337 1.017501 0
M  V30 42 H 4.194278 4.900442 -0.523399 0
M  V30 43 H 1.907377 4.185427 -0.137333 0
M  V30 44 H -3.315966 -0.700634 2.657443 0
M  V30 45 H -4.160233 -0.744934 1.106474 0
M  V30 46 H -4.933857 1.239250 3.317034 0
M  V30 47 H -5.638234 -0.442644 3.003835 0
M  V30 48 H -6.996557 1.297387 2.034533 0
M  V30 49 H -6.230942 0.280042 0.703804 0
M  V30 50 H -5.688612 3.091813 1.608798 0
M  V30 51 H -5.660425 2.486828 -0.049730 0
M  V30 52 H -0.853657 -2.545868 0.128292 0
M  V30 53 H -0.996194 -4.003650 1.116498 0
M  V30 54 H 0.291924 -5.904578 0.882225 0
M  V30 55 H 1.723313 -7.328053 -0.413497 0
M  V30 56 H 2.901802 -6.437624 -2.429707 0
M  V30 57 H 3.310265 -4.637914 -3.850763 0
M  V30 58 H 3.009770 -2.269407 -4.597907 0
M  V30 59 H 1.540458 -0.832535 -3.259386 0
M  V30 60 H 0.389443 -1.698473 -1.248128 0
M  V30 END ATOM
M  V30 BEGIN BOND
M  V30 1 1 1 2
M  V30 2 1 2 3
M  V30 3 1 3 4
M  V30 4 1 4 5
M  V30 5 2 5 6
M  V30 6 1 6 7
M  V30 7 1 7 8
M  V30 8 2 8 9
M  V30 9 1 9 10
M  V30 10 2 10 11
M  V30 11 1 11 12
M  V30 12 2 12 13
M  V30 13 2 7 14
M  V30 14 1 14 15
M  V30 15 1 15 16
M  V30 16 1 16 17
M  V30 17 2 17 18
M  V30 18 1 18 19
M  V30 19 1 18 20
M  V30 20 1 20 21
M  V30 21 1 21 22
M  V30 22 1 22 23
M  V30 23 1 2 24
M  V30 24 1 24 25
M  V30 25 2 25 26
M  V30 26 1 26 27
M  V30 27 2 27 28
M  V30 28 1 28 29
M  V30 29 2 29 30
M  V30 30 1 30 31
M  V30 31 2 31 32
M  V30 32 1 32 33
M  V30 33 2 33 34
M  V30 34 1 19 5
M  V30 35 1 34 25
M  V30 36 1 13 8
M  V30 37 2 19 15
M  V30 38 1 34 29
M  V30 39 1 23 17
M  V30 40 1 1 35
M  V30 41 1 1 36
M  V30 42 1 2 37 CFG=1
M  V30 43 1 3 38
M  V30 44 1 3 39
M  V30 45 1 9 40
M  V30 46 1 10 41
M  V30 47 1 12 42
M  V30 48 1 13 43
M  V30 49 1 20 44
M  V30 50 1 20 45
M  V30 51 1 21 46
M  V30 52 1 21 47
M  V30 53 1 22 48
M  V30 54 1 22 49
M  V30 55 1 23 50
M  V30 56 1 23 51
M  V30 57 1 24 52
M  V30 58 1 24 53
M  V30 59 1 26 54
M  V30 60 1 27 55
M  V30 61 1 28 56
M  V30 62 1 30 57
M  V30 63 1 31 58
M  V30 64 1 32 59
M  V30 65 1 33 60
M  V30 END BOND
M  V30 END CTAB
M  END
>  <Dataset>  (794) 
ChEMBL_Kinases

>  <Ligand_Instance>  (794) 
nan

>  <PDB_ID>  (794) 
nan

>  <Standardized_SMILES>  (794) 
N[C@@H](COc1nc(-c2ccncc2)nc2sc3c(c12)CCCC3)Cc1cccc2ccccc12

>  <Name>  (794) 
nan

>  <Pocket>  (794) 
nan

>  <ATP_Site>  (794) 
nan

>  <Peripheral>  (794) 
nan

>  <Num_H_Atoms_ProtBoundConf>  (794) 
nan

>  <Num_Resolved_Atoms>  (794) 
nan

>  <Num_Not_Resolved_Atoms>  (794) 
nan

$$$$
CHEMBL3728860
     RDKit          3D

  0  0  0  0  0  0  0  0  0  0999 V3000
M  V30 BEGIN CTAB
M  V30 COUNTS 61 65 0 0 0
M  V30 BEGIN ATOM
M  V30 1 C 5.343044 1.015808 7.866014 0
M  V30 2 O 5.930434 0.406012 6.752570 0
M  V30 3 C 5.313118 0.241128 5.524184 0
M  V30 4 C 5.959789 -0.376110 4.463256 0
M  V30 5 C 5.325592 -0.531367 3.243253 0
M  V30 6 C 4.036871 -0.075630 3.056880 0
M  V30 7 C 3.228085 -0.168590 1.846234 0
M  V30 8 C 3.360877 -1.235543 0.983768 0
M  V30 9 C 2.613020 -1.357502 -0.169189 0
M  V30 10 C 1.691738 -0.377260 -0.482795 0
M  V30 11 C 0.759907 -0.249470 -1.637696 0 CFG=1
M  V30 12 C -0.676504 -0.537932 -1.189748 0
M  V30 13 N -1.420795 -0.853054 -2.384913 0
M  V30 14 C -2.301163 -1.957616 -2.208018 0
M  V30 15 N -3.456113 -1.566871 -1.647995 0
M  V30 16 C -4.486367 -2.385044 -1.355863 0
M  V30 17 C -5.725736 -1.931170 -0.737107 0
M  V30 18 C -6.792214 -2.772118 -0.447947 0
M  V30 19 C -7.898089 -2.189060 0.148661 0
M  V30 20 N -7.943905 -0.882710 0.434258 0
M  V30 21 C -6.925122 -0.055293 0.162352 0
M  V30 22 C -5.771175 -0.563140 -0.439347 0
M  V30 23 F -4.737542 0.268294 -0.716092 0
M  V30 24 C -4.260798 -3.723588 -1.689948 0
M  V30 25 C -3.065145 -4.096311 -2.264197 0
M  V30 26 O -2.818685 -5.308917 -2.584770 0
M  V30 27 N -2.077825 -3.243470 -2.531748 0
M  V30 28 C -0.799871 -3.501802 -3.121672 0
M  V30 29 C -1.087540 0.033945 -3.474067 0
M  V30 30 C -0.511005 1.297500 -2.888770 0
M  V30 31 N 0.739945 1.078944 -2.206480 0
M  V30 32 C 1.541612 0.713501 0.377463 0
M  V30 33 C 2.311015 0.815866 1.542235 0
M  V30 34 C 3.437446 0.531382 4.143951 0
M  V30 35 C 4.010261 0.726013 5.406784 0
M  V30 36 H 5.472772 2.127004 7.857702 0
M  V30 37 H 5.860016 0.675302 8.792209 0
M  V30 38 H 4.272900 0.757268 8.020997 0
M  V30 39 H 6.966994 -0.750842 4.555552 0
M  V30 40 H 5.775630 -1.003732 2.374407 0
M  V30 41 H 4.061955 -2.042090 1.164167 0
M  V30 42 H 2.631270 -2.140319 -0.910609 0
M  V30 43 H 1.016631 -0.954472 -2.417056 0
M  V30 44 H -0.609422 -1.358081 -0.459088 0
M  V30 45 H -1.082401 0.372259 -0.678308 0
M  V30 46 H -6.728319 -3.822705 -0.688420 0
M  V30 47 H -8.738275 -2.857338 0.375481 0
M  V30 48 H -6.923250 1.023402 0.380292 0
M  V30 49 H -5.003899 -4.469580 -1.506475 0
M  V30 50 H -0.742092 -4.552182 -3.531558 0
M  V30 51 H 0.062342 -3.405622 -2.443939 0
M  V30 52 H -0.695558 -2.854610 -4.042711 0
M  V30 53 H -2.030466 0.312101 -3.983989 0
M  V30 54 H -0.430193 -0.403576 -4.218383 0
M  V30 55 H -1.232242 1.815441 -2.242293 0
M  V30 56 H -0.291490 1.981872 -3.753022 0
M  V30 57 H 1.584767 1.339541 -2.716962 0
M  V30 58 H 0.846121 1.558664 0.242394 0
M  V30 59 H 2.188196 1.678829 2.213819 0
M  V30 60 H 2.413829 0.917577 4.077401 0
M  V30 61 H 3.479210 1.206453 6.200322 0
M  V30 END ATOM
M  V30 BEGIN BOND
M  V30 1 1 1 2
M  V30 2 1 2 3
M  V30 3 2 3 4
M  V30 4 1 4 5
M  V30 5 2 5 6
M  V30 6 1 6 7
M  V30 7 2 7 8
M  V30 8 1 8 9
M  V30 9 2 9 10
M  V30 10 1 10 11
M  V30 11 1 11 12
M  V30 12 1 12 13
M  V30 13 1 13 14
M  V30 14 2 14 15
M  V30 15 1 15 16
M  V30 16 1 16 17
M  V30 17 2 17 18
M  V30 18 1 18 19
M  V30 19 2 19 20
M  V30 20 1 20 21
M  V30 21 2 21 22
M  V30 22 1 22 23
M  V30 23 2 16 24
M  V30 24 1 24 25
M  V30 25 2 25 26
M  V30 26 1 25 27
M  V30 27 1 27 28
M  V30 28 1 13 29
M  V30 29 1 29 30
M  V30 30 1 30 31
M  V30 31 1 10 32
M  V30 32 2 32 33
M  V30 33 1 6 34
M  V30 34 2 34 35
M  V30 35 1 35 3
M  V30 36 1 33 7
M  V30 37 1 31 11
M  V30 38 1 27 14
M  V30 39 1 22 17
M  V30 40 1 1 36
M  V30 41 1 1 37
M  V30 42 1 1 38
M  V30 43 1 4 39
M  V30 44 1 5 40
M  V30 45 1 8 41
M  V30 46 1 9 42
M  V30 47 1 11 43 CFG=3
M  V30 48 1 12 44
M  V30 49 1 12 45
M  V30 50 1 18 46
M  V30 51 1 19 47
M  V30 52 1 21 48
M  V30 53 1 24 49
M  V30 54 1 28 50
M  V30 55 1 28 51
M  V30 56 1 28 52
M  V30 57 1 29 53
M  V30 58 1 29 54
M  V30 59 1 30 55
M  V30 60 1 30 56
M  V30 61 1 31 57
M  V30 62 1 32 58
M  V30 63 1 33 59
M  V30 64 1 34 60
M  V30 65 1 35 61
M  V30 END BOND
M  V30 END CTAB
M  END
>  <Dataset>  (795) 
ChEMBL_Kinases

>  <Ligand_Instance>  (795) 
nan

>  <PDB_ID>  (795) 
nan

>  <Standardized_SMILES>  (795) 
COc1ccc(-c2ccc([C@H]3CN(c4nc(-c5ccncc5F)cc(=O)n4C)CCN3)cc2)cc1

>  <Name>  (795) 
nan

>  <Pocket>  (795) 
nan

>  <ATP_Site>  (795) 
nan

>  <Peripheral>  (795) 
nan

>  <Num_H_Atoms_ProtBoundConf>  (795) 
nan

>  <Num_Resolved_Atoms>  (795) 
nan

>  <Num_Not_Resolved_Atoms>  (795) 
nan

$$$$
CHEMBL3706773
     RDKit          3D

  0  0  0  0  0  0  0  0  0  0999 V3000
M  V30 BEGIN CTAB
M  V30 COUNTS 35 38 0 0 0
M  V30 BEGIN ATOM
M  V30 1 N 3.735694 -4.781178 3.826033 0
M  V30 2 C 3.186883 -4.163342 3.016118 0
M  V30 3 C 2.489099 -3.391880 2.027716 0
M  V30 4 C 2.526959 -3.876562 0.735105 0
M  V30 5 N 3.218551 -5.074114 0.398570 0
M  V30 6 C 1.862897 -3.154339 -0.241832 0
M  V30 7 C 1.185978 -1.990719 0.061696 0
M  V30 8 C 1.139114 -1.496992 1.338782 0
M  V30 9 C 1.798819 -2.210184 2.322362 0
M  V30 10 N 1.862364 -1.856045 3.702571 0
M  V30 11 C 0.486449 -0.297821 1.866281 0
M  V30 12 C -0.194887 0.407066 0.754037 0
M  V30 13 C -0.870576 1.569650 1.060265 0
M  V30 14 C -1.527151 2.274584 0.066510 0
M  V30 15 C -1.482144 1.779789 -1.222679 0
M  V30 16 C -0.803791 0.603462 -1.557937 0
M  V30 17 C -0.150032 -0.086081 -0.530859 0
M  V30 18 O 0.512210 -1.246012 -0.893256 0
M  V30 19 O -2.179304 2.567597 -2.158387 0
M  V30 20 C -3.371229 3.242610 -1.818828 0
M  V30 21 C -3.400549 3.782205 -0.429210 0
M  V30 22 O -2.231041 3.460746 0.309693 0
M  V30 23 H 2.753451 -5.672555 -0.325518 0
M  V30 24 H 4.134290 -5.253805 0.904858 0
M  V30 25 H 1.857264 -3.485249 -1.274656 0
M  V30 26 H 2.593526 -1.593790 4.374089 0
M  V30 27 H 0.884157 -1.878239 4.115348 0
M  V30 28 H -0.196652 -0.507111 2.712723 0
M  V30 29 H 1.290019 0.387701 2.241636 0
M  V30 30 H -0.895282 1.939554 2.066653 0
M  V30 31 H -0.819183 0.289903 -2.584689 0
M  V30 32 H -4.181029 2.465491 -1.921017 0
M  V30 33 H -3.527191 4.049485 -2.561321 0
M  V30 34 H -4.319169 3.437034 0.115649 0
M  V30 35 H -3.474351 4.887686 -0.467216 0
M  V30 END ATOM
M  V30 BEGIN BOND
M  V30 1 3 1 2
M  V30 2 1 2 3
M  V30 3 2 3 4
M  V30 4 1 4 5
M  V30 5 1 4 6
M  V30 6 2 6 7
M  V30 7 1 7 8
M  V30 8 2 8 9
M  V30 9 1 9 10
M  V30 10 1 8 11
M  V30 11 1 11 12
M  V30 12 2 12 13
M  V30 13 1 13 14
M  V30 14 2 14 15
M  V30 15 1 15 16
M  V30 16 2 16 17
M  V30 17 1 17 18
M  V30 18 1 15 19
M  V30 19 1 19 20
M  V30 20 1 20 21
M  V30 21 1 21 22
M  V30 22 1 9 3
M  V30 23 1 17 12
M  V30 24 1 18 7
M  V30 25 1 22 14
M  V30 26 1 5 23
M  V30 27 1 5 24
M  V30 28 1 6 25
M  V30 29 1 10 26
M  V30 30 1 10 27
M  V30 31 1 11 28
M  V30 32 1 11 29
M  V30 33 1 13 30
M  V30 34 1 16 31
M  V30 35 1 20 32
M  V30 36 1 20 33
M  V30 37 1 21 34
M  V30 38 1 21 35
M  V30 END BOND
M  V30 END CTAB
M  END
>  <Dataset>  (796) 
ChEMBL_Kinases

>  <Ligand_Instance>  (796) 
nan

>  <PDB_ID>  (796) 
nan

>  <Standardized_SMILES>  (796) 
N#Cc1c(N)cc2c(c1N)Cc1cc3c(cc1O2)OCCO3

>  <Name>  (796) 
nan

>  <Pocket>  (796) 
nan

>  <ATP_Site>  (796) 
nan

>  <Peripheral>  (796) 
nan

>  <Num_H_Atoms_ProtBoundConf>  (796) 
nan

>  <Num_Resolved_Atoms>  (796) 
nan

>  <Num_Not_Resolved_Atoms>  (796) 
nan

$$$$
CHEMBL3706774
     RDKit          3D

  0  0  0  0  0  0  0  0  0  0999 V3000
M  V30 BEGIN CTAB
M  V30 COUNTS 31 33 0 0 0
M  V30 BEGIN ATOM
M  V30 1 N 1.459231 -5.963605 2.454368 0
M  V30 2 C 1.001330 -4.933115 2.236045 0
M  V30 3 C 0.416273 -3.636175 1.982840 0
M  V30 4 C -0.743122 -3.259009 2.632467 0
M  V30 5 N -1.313766 -4.190903 3.538954 0
M  V30 6 C -1.387110 -2.052045 2.469590 0
M  V30 7 C -0.815913 -1.169878 1.588801 0
M  V30 8 C 0.341084 -1.481049 0.906274 0
M  V30 9 C 0.966574 -2.717341 1.098077 0
M  V30 10 N 2.163048 -3.137375 0.443843 0
M  V30 11 C 1.074579 -0.638723 -0.072261 0
M  V30 12 C 0.351269 0.645539 -0.217719 0
M  V30 13 C 0.897373 1.577803 -1.106459 0
M  V30 14 C 0.278841 2.801504 -1.296734 0
M  V30 15 N 0.751137 3.818349 -2.175910 0
M  V30 16 C -0.882637 3.154370 -0.632829 0
M  V30 17 C -1.423082 2.215450 0.255268 0
M  V30 18 C -0.806698 0.995381 0.445205 0
M  V30 19 O -1.358602 0.080387 1.329126 0
M  V30 20 H -1.162744 -4.673576 4.451198 0
M  V30 21 H -0.891770 -4.507880 4.458069 0
M  V30 22 H -2.289222 -1.785517 2.989195 0
M  V30 23 H 3.014536 -2.529333 0.357751 0
M  V30 24 H 2.230578 -4.106254 0.011424 0
M  V30 25 H 1.207882 -1.149462 -1.047507 0
M  V30 26 H 2.090905 -0.396226 0.291779 0
M  V30 27 H 1.802341 1.387806 -1.668343 0
M  V30 28 H 0.919574 3.926893 -3.218266 0
M  V30 29 H 1.006402 4.708681 -1.673825 0
M  V30 30 H -1.413547 4.083566 -0.732547 0
M  V30 31 H -2.330107 2.407424 0.817588 0
M  V30 END ATOM
M  V30 BEGIN BOND
M  V30 1 3 1 2
M  V30 2 1 2 3
M  V30 3 2 3 4
M  V30 4 1 4 5
M  V30 5 1 4 6
M  V30 6 2 6 7
M  V30 7 1 7 8
M  V30 8 2 8 9
M  V30 9 1 9 10
M  V30 10 1 8 11
M  V30 11 1 11 12
M  V30 12 2 12 13
M  V30 13 1 13 14
M  V30 14 1 14 15
M  V30 15 2 14 16
M  V30 16 1 16 17
M  V30 17 2 17 18
M  V30 18 1 18 19
M  V30 19 1 9 3
M  V30 20 1 18 12
M  V30 21 1 19 7
M  V30 22 1 5 20
M  V30 23 1 5 21
M  V30 24 1 6 22
M  V30 25 1 10 23
M  V30 26 1 10 24
M  V30 27 1 11 25
M  V30 28 1 11 26
M  V30 29 1 13 27
M  V30 30 1 15 28
M  V30 31 1 15 29
M  V30 32 1 16 30
M  V30 33 1 17 31
M  V30 END BOND
M  V30 END CTAB
M  END
>  <Dataset>  (797) 
ChEMBL_Kinases

>  <Ligand_Instance>  (797) 
nan

>  <PDB_ID>  (797) 
nan

>  <Standardized_SMILES>  (797) 
N#Cc1c(N)cc2c(c1N)Cc1cc(N)ccc1O2

>  <Name>  (797) 
nan

>  <Pocket>  (797) 
nan

>  <ATP_Site>  (797) 
nan

>  <Peripheral>  (797) 
nan

>  <Num_H_Atoms_ProtBoundConf>  (797) 
nan

>  <Num_Resolved_Atoms>  (797) 
nan

>  <Num_Not_Resolved_Atoms>  (797) 
nan

$$$$
CHEMBL3728850
     RDKit          3D

  0  0  0  0  0  0  0  0  0  0999 V3000
M  V30 BEGIN CTAB
M  V30 COUNTS 62 67 0 0 0
M  V30 BEGIN ATOM
M  V30 1 C 1.923894 -1.620825 5.615477 0
M  V30 2 C 3.221814 -1.332184 5.256821 0
M  V30 3 C 3.653677 -1.553688 3.961365 0
M  V30 4 C 2.819172 -2.071713 2.961884 0
M  V30 5 C 3.531976 -2.242299 1.698361 0
M  V30 6 C 3.690021 -1.057863 0.807953 0
M  V30 7 N 2.484125 -0.481942 0.394492 0
M  V30 8 C 1.700833 0.250257 1.335019 0
M  V30 9 C 0.261184 -0.075616 1.030006 0
M  V30 10 N 0.059418 0.345505 -0.362034 0
M  V30 11 C -1.298227 0.153663 -0.741739 0
M  V30 12 N -1.951294 1.323443 -0.618552 0
M  V30 13 C -3.251824 1.526389 -0.830521 0
M  V30 14 C -3.971576 2.787626 -0.703502 0
M  V30 15 C -3.232624 3.890296 -0.331897 0
M  V30 16 C -3.963394 5.080157 -0.224034 0
M  V30 17 N -5.288175 5.215367 -0.449661 0
M  V30 18 C -5.975087 4.097085 -0.814361 0
M  V30 19 C -5.328339 2.882677 -0.943619 0
M  V30 20 N -3.932280 0.430798 -1.199962 0
M  V30 21 C -3.351442 -0.771302 -1.345818 0
M  V30 22 S -3.908542 -2.338395 -1.805928 0
M  V30 23 C -2.339551 -3.211881 -1.695274 0
M  V30 24 C -1.441986 -2.185275 -1.289635 0
M  V30 25 C -2.015245 -0.954923 -1.123662 0
M  V30 26 C -0.103070 -2.810063 -1.201867 0
M  V30 27 C -0.257618 -4.003473 -0.243024 0
M  V30 28 C -0.953865 -5.137573 -0.971064 0
M  V30 29 C -1.992225 -4.612120 -1.938032 0
M  V30 30 C 1.182481 0.864701 -1.111068 0
M  V30 31 C 2.488393 0.184106 -0.861547 0
M  V30 32 C 1.500739 -2.359150 3.350259 0
M  V30 33 C 1.093091 -2.130531 4.643483 0
M  V30 34 H 1.533652 -1.468510 6.601998 0
M  V30 35 H 3.840938 -0.934732 6.047632 0
M  V30 36 H 4.699010 -1.276922 3.836456 0
M  V30 37 H 2.943431 -3.011772 1.096738 0
M  V30 38 H 4.520425 -2.766920 1.849572 0
M  V30 39 H 4.279530 -1.410678 -0.090878 0
M  V30 40 H 4.346502 -0.278200 1.321314 0
M  V30 41 H 1.991334 0.204250 2.378082 0
M  V30 42 H 1.791000 1.368755 1.083817 0
M  V30 43 H -0.015217 -1.125976 1.124982 0
M  V30 44 H -0.422753 0.531908 1.669626 0
M  V30 45 H -2.173209 3.933461 -0.120151 0
M  V30 46 H -3.430614 5.984654 0.066173 0
M  V30 47 H -7.041214 4.104379 -1.017038 0
M  V30 48 H -5.831239 1.955299 -1.233269 0
M  V30 49 H 0.702379 -2.168471 -0.871975 0
M  V30 50 H 0.121036 -3.317764 -2.178949 0
M  V30 51 H -0.794551 -3.735295 0.664442 0
M  V30 52 H 0.773234 -4.308011 0.025867 0
M  V30 53 H -1.357189 -5.833273 -0.211067 0
M  V30 54 H -0.168324 -5.703120 -1.532607 0
M  V30 55 H -2.927282 -5.193720 -1.907402 0
M  V30 56 H -1.587469 -4.700791 -2.966299 0
M  V30 57 H 0.942848 0.957947 -2.195779 0
M  V30 58 H 1.279634 1.945811 -0.783928 0
M  V30 59 H 3.311911 0.965034 -0.815570 0
M  V30 60 H 2.813463 -0.462794 -1.706757 0
M  V30 61 H 0.950694 -2.757057 2.516408 0
M  V30 62 H 0.052404 -2.400985 4.783951 0
M  V30 END ATOM
M  V30 BEGIN BOND
M  V30 1 2 1 2
M  V30 2 1 2 3
M  V30 3 2 3 4
M  V30 4 1 4 5
M  V30 5 1 5 6
M  V30 6 1 6 7
M  V30 7 1 7 8
M  V30 8 1 8 9
M  V30 9 1 9 10
M  V30 10 1 10 11
M  V30 11 2 11 12
M  V30 12 1 12 13
M  V30 13 1 13 14
M  V30 14 2 14 15
M  V30 15 1 15 16
M  V30 16 2 16 17
M  V30 17 1 17 18
M  V30 18 2 18 19
M  V30 19 2 13 20
M  V30 20 1 20 21
M  V30 21 1 21 22
M  V30 22 1 22 23
M  V30 23 2 23 24
M  V30 24 1 24 25
M  V30 25 1 24 26
M  V30 26 1 26 27
M  V30 27 1 27 28
M  V30 28 1 28 29
M  V30 29 1 10 30
M  V30 30 1 30 31
M  V30 31 1 4 32
M  V30 32 2 32 33
M  V30 33 1 33 1
M  V30 34 1 31 7
M  V30 35 1 25 11
M  V30 36 1 19 14
M  V30 37 2 25 21
M  V30 38 1 29 23
M  V30 39 1 1 34
M  V30 40 1 2 35
M  V30 41 1 3 36
M  V30 42 1 5 37
M  V30 43 1 5 38
M  V30 44 1 6 39
M  V30 45 1 6 40
M  V30 46 1 8 41
M  V30 47 1 8 42
M  V30 48 1 9 43
M  V30 49 1 9 44
M  V30 50 1 15 45
M  V30 51 1 16 46
M  V30 52 1 18 47
M  V30 53 1 19 48
M  V30 54 1 26 49
M  V30 55 1 26 50
M  V30 56 1 27 51
M  V30 57 1 27 52
M  V30 58 1 28 53
M  V30 59 1 28 54
M  V30 60 1 29 55
M  V30 61 1 29 56
M  V30 62 1 30 57
M  V30 63 1 30 58
M  V30 64 1 31 59
M  V30 65 1 31 60
M  V30 66 1 32 61
M  V30 67 1 33 62
M  V30 END BOND
M  V30 END CTAB
M  END
>  <Dataset>  (798) 
ChEMBL_Kinases

>  <Ligand_Instance>  (798) 
nan

>  <PDB_ID>  (798) 
nan

>  <Standardized_SMILES>  (798) 
c1ccc(CCN2CCN(c3nc(-c4ccncc4)nc4sc5c(c34)CCCC5)CC2)cc1

>  <Name>  (798) 
nan

>  <Pocket>  (798) 
nan

>  <ATP_Site>  (798) 
nan

>  <Peripheral>  (798) 
nan

>  <Num_H_Atoms_ProtBoundConf>  (798) 
nan

>  <Num_Resolved_Atoms>  (798) 
nan

>  <Num_Not_Resolved_Atoms>  (798) 
nan

$$$$
CHEMBL3704393
     RDKit          3D

  0  0  0  0  0  0  0  0  0  0999 V3000
M  V30 BEGIN CTAB
M  V30 COUNTS 72 77 0 0 0
M  V30 BEGIN ATOM
M  V30 1 N 7.348822 -1.623365 0.624922 0
M  V30 2 C 6.736396 -0.644833 0.693560 0
M  V30 3 C 5.977863 0.589164 0.793121 0
M  V30 4 C 6.518704 1.667273 1.450775 0
M  V30 5 C 5.779591 2.829343 1.533802 0
M  V30 6 C 4.544424 2.890414 0.971920 0
M  V30 7 N 3.631424 4.007248 0.956568 0
M  V30 8 C 2.738034 4.031522 2.074181 0
M  V30 9 O 2.999972 3.033240 2.797448 0
M  V30 10 C 1.770212 5.157833 2.118630 0
M  V30 11 O 0.936803 5.101538 3.245215 0
M  V30 12 C 0.074036 4.104079 3.588611 0
M  V30 13 C -0.620508 4.337752 4.775843 0
M  V30 14 C -1.527791 3.363538 5.202661 0
M  V30 15 C -1.726034 2.225572 4.483226 0
M  V30 16 C -1.056583 1.957889 3.301399 0
M  V30 17 C -1.242352 0.750979 2.505081 0
M  V30 18 O -0.643956 0.503067 1.421866 0
M  V30 19 N -2.134651 -0.254642 2.907222 0
M  V30 20 C -2.289969 -1.478241 2.050803 0
M  V30 21 N -1.690427 -2.428551 2.120570 0
M  V30 22 C -1.744957 -3.542062 1.428214 0
M  V30 23 C -2.729342 -3.528424 0.429384 0
M  V30 24 S -3.468110 -1.917337 0.595146 0
M  V30 25 C -2.947811 -4.720396 -0.476072 0
M  V30 26 C -1.610256 -5.277718 -0.963797 0
M  V30 27 N -1.344418 -4.754980 -2.230374 0
M  V30 28 C -2.185324 -5.084818 -3.311449 0
M  V30 29 C -2.388334 -3.886727 -4.247992 0
M  V30 30 N -2.568099 -2.760248 -3.418376 0
M  V30 31 C -3.441684 -1.747610 -3.875981 0
M  V30 32 C -3.665624 -0.551131 -3.047058 0
M  V30 33 C -4.719785 -1.586641 -3.025734 0
M  V30 34 C -1.436199 -2.370443 -2.681185 0
M  V30 35 C -0.566555 -3.606842 -2.424783 0
M  V30 36 C -0.535924 -5.251755 0.060229 0
M  V30 37 C -1.004618 -4.831010 1.450232 0
M  V30 38 C -0.166644 2.933328 2.900175 0
M  V30 39 C 4.006027 1.791191 0.307571 0
M  V30 40 C 4.733827 0.611379 0.212563 0
M  V30 41 H 7.510944 1.647958 1.913181 0
M  V30 42 H 6.104167 3.718992 2.018596 0
M  V30 43 H 3.680712 4.699827 0.160025 0
M  V30 44 H 2.360380 6.091621 2.123652 0
M  V30 45 H 1.122388 5.180851 1.215344 0
M  V30 46 H -0.497927 5.218854 5.377032 0
M  V30 47 H -2.082662 3.515131 6.119912 0
M  V30 48 H -2.431213 1.503908 4.846487 0
M  V30 49 H -2.702416 -0.205479 3.771704 0
M  V30 50 H -3.522568 -4.356690 -1.345391 0
M  V30 51 H -3.550412 -5.480456 0.052938 0
M  V30 52 H -1.867826 -6.384986 -1.130563 0
M  V30 53 H -3.138116 -5.489346 -2.969764 0
M  V30 54 H -1.694482 -5.923657 -3.875763 0
M  V30 55 H -1.413794 -3.787147 -4.799479 0
M  V30 56 H -3.187687 -4.047558 -4.969489 0
M  V30 57 H -3.620376 -1.670629 -4.968387 0
M  V30 58 H -3.932209 0.392266 -3.586954 0
M  V30 59 H -3.067180 -0.334639 -2.129037 0
M  V30 60 H -5.668759 -1.421362 -3.580296 0
M  V30 61 H -4.852214 -2.238262 -2.160363 0
M  V30 62 H -1.640345 -1.815962 -1.768636 0
M  V30 63 H -0.827002 -1.670145 -3.322267 0
M  V30 64 H 0.095707 -3.738993 -3.334682 0
M  V30 65 H 0.108014 -3.308310 -1.629208 0
M  V30 66 H 0.353979 -4.646643 -0.183852 0
M  V30 67 H -0.107478 -6.288424 0.236282 0
M  V30 68 H -0.088404 -4.778864 2.063851 0
M  V30 69 H -1.640149 -5.613488 1.914126 0
M  V30 70 H 0.385295 2.787518 1.990549 0
M  V30 71 H 3.026699 1.754475 -0.169993 0
M  V30 72 H 4.327023 -0.267072 -0.307060 0
M  V30 END ATOM
M  V30 BEGIN BOND
M  V30 1 3 1 2
M  V30 2 1 2 3
M  V30 3 2 3 4
M  V30 4 1 4 5
M  V30 5 2 5 6
M  V30 6 1 6 7
M  V30 7 1 7 8
M  V30 8 2 8 9
M  V30 9 1 8 10
M  V30 10 1 10 11
M  V30 11 1 11 12
M  V30 12 2 12 13
M  V30 13 1 13 14
M  V30 14 2 14 15
M  V30 15 1 15 16
M  V30 16 1 16 17
M  V30 17 2 17 18
M  V30 18 1 17 19
M  V30 19 1 19 20
M  V30 20 2 20 21
M  V30 21 1 21 22
M  V30 22 2 22 23
M  V30 23 1 23 24
M  V30 24 1 23 25
M  V30 25 1 25 26
M  V30 26 1 26 27
M  V30 27 1 27 28
M  V30 28 1 28 29
M  V30 29 1 29 30
M  V30 30 1 30 31
M  V30 31 1 31 32
M  V30 32 1 32 33
M  V30 33 1 30 34
M  V30 34 1 34 35
M  V30 35 1 26 36
M  V30 36 1 36 37
M  V30 37 2 16 38
M  V30 38 1 6 39
M  V30 39 2 39 40
M  V30 40 1 40 3
M  V30 41 1 38 12
M  V30 42 1 24 20
M  V30 43 1 35 27
M  V30 44 1 37 22
M  V30 45 1 33 31
M  V30 46 1 4 41
M  V30 47 1 5 42
M  V30 48 1 7 43
M  V30 49 1 10 44
M  V30 50 1 10 45
M  V30 51 1 13 46
M  V30 52 1 14 47
M  V30 53 1 15 48
M  V30 54 1 19 49
M  V30 55 1 25 50
M  V30 56 1 25 51
M  V30 57 1 26 52
M  V30 58 1 28 53
M  V30 59 1 28 54
M  V30 60 1 29 55
M  V30 61 1 29 56
M  V30 62 1 31 57
M  V30 63 1 32 58
M  V30 64 1 32 59
M  V30 65 1 33 60
M  V30 66 1 33 61
M  V30 67 1 34 62
M  V30 68 1 34 63
M  V30 69 1 35 64
M  V30 70 1 35 65
M  V30 71 1 36 66
M  V30 72 1 36 67
M  V30 73 1 37 68
M  V30 74 1 37 69
M  V30 75 1 38 70
M  V30 76 1 39 71
M  V30 77 1 40 72
M  V30 END BOND
M  V30 END CTAB
M  END
>  <Dataset>  (799) 
ChEMBL_Kinases

>  <Ligand_Instance>  (799) 
nan

>  <PDB_ID>  (799) 
nan

>  <Standardized_SMILES>  (799) 
N#Cc1ccc(NC(=O)COc2cccc(C(=O)Nc3nc4c(s3)CC(N3CCN(C5CC5)CC3)CC4)c2)cc1

>  <Name>  (799) 
nan

>  <Pocket>  (799) 
nan

>  <ATP_Site>  (799) 
nan

>  <Peripheral>  (799) 
nan

>  <Num_H_Atoms_ProtBoundConf>  (799) 
nan

>  <Num_Resolved_Atoms>  (799) 
nan

>  <Num_Not_Resolved_Atoms>  (799) 
nan

$$$$
CHEMBL3706775
     RDKit          3D

  0  0  0  0  0  0  0  0  0  0999 V3000
M  V30 BEGIN CTAB
M  V30 COUNTS 29 31 0 0 0
M  V30 BEGIN ATOM
M  V30 1 N -1.147732 -5.832386 0.433872 0
M  V30 2 C -0.703261 -4.773210 0.690246 0
M  V30 3 C -0.157867 -3.482090 0.997737 0
M  V30 4 C 0.768428 -3.331110 2.024831 0
M  V30 5 N 1.173760 -4.479935 2.774706 0
M  V30 6 C 1.307811 -2.084965 2.336523 0
M  V30 7 C 0.872095 -1.022292 1.573072 0
M  V30 8 C -0.041016 -1.096544 0.542152 0
M  V30 9 C -0.543332 -2.348600 0.274520 0
M  V30 10 N -1.498157 -2.526550 -0.778705 0
M  V30 11 C -0.499550 0.034216 -0.264312 0
M  V30 12 C 0.138405 1.307696 0.153820 0
M  V30 13 C -0.184811 2.474628 -0.506164 0
M  V30 14 C 0.381759 3.682953 -0.153904 0
M  V30 15 C 1.305784 3.768310 0.886811 0
M  V30 16 C 1.589589 2.554076 1.513205 0
M  V30 17 C 1.046685 1.334260 1.190981 0
M  V30 18 O 1.412921 0.215434 1.888494 0
M  V30 19 H 1.666356 -5.188163 2.180930 0
M  V30 20 H 0.984980 -4.572010 3.797546 0
M  V30 21 H 2.023869 -1.951523 3.126373 0
M  V30 22 H -1.267524 -3.308474 -1.451138 0
M  V30 23 H -2.273119 -1.826534 -0.684718 0
M  V30 24 H -0.370857 -0.107406 -1.352289 0
M  V30 25 H -1.611187 0.128794 -0.111049 0
M  V30 26 H -0.893683 2.487133 -1.323863 0
M  V30 27 H 0.151616 4.633059 -0.653333 0
M  V30 28 H 1.788918 4.673305 1.218227 0
M  V30 29 H 2.302019 2.585531 2.324123 0
M  V30 END ATOM
M  V30 BEGIN BOND
M  V30 1 3 1 2
M  V30 2 1 2 3
M  V30 3 2 3 4
M  V30 4 1 4 5
M  V30 5 1 4 6
M  V30 6 2 6 7
M  V30 7 1 7 8
M  V30 8 2 8 9
M  V30 9 1 9 10
M  V30 10 1 8 11
M  V30 11 1 11 12
M  V30 12 2 12 13
M  V30 13 1 13 14
M  V30 14 2 14 15
M  V30 15 1 15 16
M  V30 16 2 16 17
M  V30 17 1 17 18
M  V30 18 1 9 3
M  V30 19 1 17 12
M  V30 20 1 18 7
M  V30 21 1 5 19
M  V30 22 1 5 20
M  V30 23 1 6 21
M  V30 24 1 10 22
M  V30 25 1 10 23
M  V30 26 1 11 24
M  V30 27 1 11 25
M  V30 28 1 13 26
M  V30 29 1 14 27
M  V30 30 1 15 28
M  V30 31 1 16 29
M  V30 END BOND
M  V30 END CTAB
M  END
>  <Dataset>  (800) 
ChEMBL_Kinases

>  <Ligand_Instance>  (800) 
nan

>  <PDB_ID>  (800) 
nan

>  <Standardized_SMILES>  (800) 
N#Cc1c(N)cc2c(c1N)Cc1ccccc1O2

>  <Name>  (800) 
nan

>  <Pocket>  (800) 
nan

>  <ATP_Site>  (800) 
nan

>  <Peripheral>  (800) 
nan

>  <Num_H_Atoms_ProtBoundConf>  (800) 
nan

>  <Num_Resolved_Atoms>  (800) 
nan

>  <Num_Not_Resolved_Atoms>  (800) 
nan

$$$$
CHEMBL3728808
     RDKit          3D

  0  0  0  0  0  0  0  0  0  0999 V3000
M  V30 BEGIN CTAB
M  V30 COUNTS 54 58 0 0 0
M  V30 BEGIN ATOM
M  V30 1 N 0.789651 -1.533807 -0.880199 0
M  V30 2 C 0.357259 -2.632137 -0.101579 0 CFG=2
M  V30 3 C 0.549407 -2.441295 1.373729 0
M  V30 4 O -0.155524 -1.368202 1.869598 0
M  V30 5 C -0.021313 -0.068616 1.566585 0
M  V30 6 N 0.828644 0.506887 0.725402 0
M  V30 7 C 0.973169 1.788398 0.419269 0
M  V30 8 C 1.932538 2.361206 -0.512757 0
M  V30 9 C 2.866372 1.639965 -1.225654 0
M  V30 10 C 3.768776 2.200958 -2.102976 0
M  V30 11 N 3.746051 3.530047 -2.281995 0
M  V30 12 C 2.862585 4.298683 -1.620384 0
M  V30 13 C 1.966383 3.721268 -0.746096 0
M  V30 14 N 0.131536 2.617044 1.059117 0
M  V30 15 C -0.784107 2.160683 1.942733 0
M  V30 16 S -2.001818 3.021417 2.916619 0
M  V30 17 C -2.654856 1.492179 3.713431 0
M  V30 18 C -1.892127 0.525831 3.162204 0
M  V30 19 C -0.906841 0.791627 2.241655 0
M  V30 20 C -2.385001 -0.740249 3.776340 0
M  V30 21 C -2.264185 -0.594517 5.280473 0
M  V30 22 C -3.231683 0.450781 5.801069 0
M  V30 23 C -3.711652 1.350439 4.683539 0
M  V30 24 C 1.038190 -3.896840 -0.593948 0
M  V30 25 C 0.657962 -4.090332 -2.016232 0
M  V30 26 C -0.497037 -4.835492 -2.263553 0
M  V30 27 C -1.004178 -5.120330 -3.505164 0
M  V30 28 C -0.288345 -4.612709 -4.577065 0
M  V30 29 Br -0.894564 -4.941738 -6.361234 0
M  V30 30 C 0.855540 -3.872154 -4.401593 0
M  V30 31 C 1.313898 -3.620399 -3.127729 0
M  V30 32 H 0.305093 -1.450534 -1.801960 0
M  V30 33 H 1.806891 -1.551729 -1.118802 0
M  V30 34 H -0.732185 -2.800152 -0.333793 0
M  V30 35 H 0.340713 -3.397271 1.933178 0
M  V30 36 H 1.675894 -2.321781 1.528573 0
M  V30 37 H 2.890995 0.569845 -1.085002 0
M  V30 38 H 4.489744 1.606285 -2.648080 0
M  V30 39 H 2.862645 5.367863 -1.780610 0
M  V30 40 H 1.254413 4.352499 -0.214877 0
M  V30 41 H -1.802696 -1.623399 3.505190 0
M  V30 42 H -3.469710 -0.913118 3.515831 0
M  V30 43 H -2.473373 -1.533174 5.805680 0
M  V30 44 H -1.237025 -0.246442 5.465938 0
M  V30 45 H -2.681907 1.076824 6.529411 0
M  V30 46 H -4.106767 0.002878 6.314123 0
M  V30 47 H -4.000676 2.353890 5.052367 0
M  V30 48 H -4.610846 0.912124 4.205796 0
M  V30 49 H 0.661849 -4.750032 0.004998 0
M  V30 50 H 2.131942 -3.796791 -0.454767 0
M  V30 51 H -1.065218 -5.238157 -1.419274 0
M  V30 52 H -1.902010 -5.702431 -3.620680 0
M  V30 53 H 1.407033 -3.480207 -5.247136 0
M  V30 54 H 2.201431 -3.049038 -2.941009 0
M  V30 END ATOM
M  V30 BEGIN BOND
M  V30 1 1 1 2
M  V30 2 1 2 3
M  V30 3 1 3 4
M  V30 4 1 4 5
M  V30 5 2 5 6
M  V30 6 1 6 7
M  V30 7 1 7 8
M  V30 8 2 8 9
M  V30 9 1 9 10
M  V30 10 2 10 11
M  V30 11 1 11 12
M  V30 12 2 12 13
M  V30 13 2 7 14
M  V30 14 1 14 15
M  V30 15 1 15 16
M  V30 16 1 16 17
M  V30 17 2 17 18
M  V30 18 1 18 19
M  V30 19 1 18 20
M  V30 20 1 20 21
M  V30 21 1 21 22
M  V30 22 1 22 23
M  V30 23 1 2 24
M  V30 24 1 24 25
M  V30 25 2 25 26
M  V30 26 1 26 27
M  V30 27 2 27 28
M  V30 28 1 28 29
M  V30 29 1 28 30
M  V30 30 2 30 31
M  V30 31 1 19 5
M  V30 32 1 31 25
M  V30 33 1 13 8
M  V30 34 2 19 15
M  V30 35 1 23 17
M  V30 36 1 1 32
M  V30 37 1 1 33
M  V30 38 1 2 34 CFG=1
M  V30 39 1 3 35
M  V30 40 1 3 36
M  V30 41 1 9 37
M  V30 42 1 10 38
M  V30 43 1 12 39
M  V30 44 1 13 40
M  V30 45 1 20 41
M  V30 46 1 20 42
M  V30 47 1 21 43
M  V30 48 1 21 44
M  V30 49 1 22 45
M  V30 50 1 22 46
M  V30 51 1 23 47
M  V30 52 1 23 48
M  V30 53 1 24 49
M  V30 54 1 24 50
M  V30 55 1 26 51
M  V30 56 1 27 52
M  V30 57 1 30 53
M  V30 58 1 31 54
M  V30 END BOND
M  V30 END CTAB
M  END
>  <Dataset>  (801) 
ChEMBL_Kinases

>  <Ligand_Instance>  (801) 
nan

>  <PDB_ID>  (801) 
nan

>  <Standardized_SMILES>  (801) 
N[C@H](COc1nc(-c2ccncc2)nc2sc3c(c12)CCCC3)Cc1ccc(Br)cc1

>  <Name>  (801) 
nan

>  <Pocket>  (801) 
nan

>  <ATP_Site>  (801) 
nan

>  <Peripheral>  (801) 
nan

>  <Num_H_Atoms_ProtBoundConf>  (801) 
nan

>  <Num_Resolved_Atoms>  (801) 
nan

>  <Num_Not_Resolved_Atoms>  (801) 
nan

$$$$
CHEMBL3706776
     RDKit          3D

  0  0  0  0  0  0  0  0  0  0999 V3000
M  V30 BEGIN CTAB
M  V30 COUNTS 42 45 0 0 0
M  V30 BEGIN ATOM
M  V30 1 N -1.414767 -6.957985 -3.033578 0
M  V30 2 C -0.883479 -6.066025 -2.517942 0
M  V30 3 C -0.213216 -4.953179 -1.899453 0
M  V30 4 C 1.185418 -4.946631 -1.856784 0
M  V30 5 N 1.880857 -6.056146 -2.435266 0
M  V30 6 C 1.854781 -3.890853 -1.269072 0
M  V30 7 C 1.194616 -2.815591 -0.708068 0
M  V30 8 C -0.183768 -2.849099 -0.764700 0
M  V30 9 C -0.897349 -3.880603 -1.340567 0
M  V30 10 N -2.321258 -3.919318 -1.401272 0
M  V30 11 C -1.026420 -1.775107 -0.209496 0
M  V30 12 C -0.200958 -0.701749 0.392061 0
M  V30 13 C -0.945068 0.334188 0.929524 0
M  V30 14 C -0.283847 1.404816 1.525008 0
M  V30 15 O -1.058265 2.449211 2.066179 0
M  V30 16 C 1.100564 1.463422 1.595334 0
M  V30 17 C 1.807694 2.619103 2.237948 0
M  V30 18 C 2.027765 2.368842 3.706214 0
M  V30 19 O 0.885347 2.610979 4.464606 0
M  V30 20 C 0.582930 3.971143 4.422556 0
M  V30 21 C 1.041937 4.606454 3.128705 0
M  V30 22 O 1.001054 3.734010 2.044817 0
M  V30 23 C 1.799347 0.396328 1.039813 0
M  V30 24 C 1.172828 -0.668993 0.448159 0
M  V30 25 O 1.849392 -1.745004 -0.112788 0
M  V30 26 H 2.019363 -6.639672 -1.566437 0
M  V30 27 H 2.214052 -6.338186 -3.389726 0
M  V30 28 H 2.939891 -3.875240 -1.230291 0
M  V30 29 H -2.760155 -3.562848 -2.293321 0
M  V30 30 H -2.997295 -4.254588 -0.678876 0
M  V30 31 H -1.612732 -1.293345 -1.042179 0
M  V30 32 H -1.794251 -2.172733 0.479050 0
M  V30 33 H -2.035225 0.370704 0.918700 0
M  V30 34 H -1.932099 2.702606 1.621838 0
M  V30 35 H 2.814503 2.745593 1.772264 0
M  V30 36 H 2.380209 1.345726 3.840955 0
M  V30 37 H 2.801687 3.075282 4.069161 0
M  V30 38 H -0.510058 4.056845 4.576431 0
M  V30 39 H 1.073228 4.507873 5.244833 0
M  V30 40 H 2.078517 4.954549 3.276288 0
M  V30 41 H 0.352701 5.443474 2.904195 0
M  V30 42 H 2.876419 0.409201 1.076892 0
M  V30 END ATOM
M  V30 BEGIN BOND
M  V30 1 3 1 2
M  V30 2 1 2 3
M  V30 3 2 3 4
M  V30 4 1 4 5
M  V30 5 1 4 6
M  V30 6 2 6 7
M  V30 7 1 7 8
M  V30 8 2 8 9
M  V30 9 1 9 10
M  V30 10 1 8 11
M  V30 11 1 11 12
M  V30 12 2 12 13
M  V30 13 1 13 14
M  V30 14 1 14 15
M  V30 15 2 14 16
M  V30 16 1 16 17
M  V30 17 1 17 18
M  V30 18 1 18 19
M  V30 19 1 19 20
M  V30 20 1 20 21
M  V30 21 1 21 22
M  V30 22 1 16 23
M  V30 23 2 23 24
M  V30 24 1 24 25
M  V30 25 1 9 3
M  V30 26 1 24 12
M  V30 27 1 25 7
M  V30 28 1 22 17
M  V30 29 1 5 26
M  V30 30 1 5 27
M  V30 31 1 6 28
M  V30 32 1 10 29
M  V30 33 1 10 30
M  V30 34 1 11 31
M  V30 35 1 11 32
M  V30 36 1 13 33
M  V30 37 1 15 34
M  V30 38 1 17 35
M  V30 39 1 18 36
M  V30 40 1 18 37
M  V30 41 1 20 38
M  V30 42 1 20 39
M  V30 43 1 21 40
M  V30 44 1 21 41
M  V30 45 1 23 42
M  V30 END BOND
M  V30 END CTAB
M  END
>  <Dataset>  (802) 
ChEMBL_Kinases

>  <Ligand_Instance>  (802) 
nan

>  <PDB_ID>  (802) 
nan

>  <Standardized_SMILES>  (802) 
N#Cc1c(N)cc2c(c1N)Cc1cc(O)c(C3COCCO3)cc1O2

>  <Name>  (802) 
nan

>  <Pocket>  (802) 
nan

>  <ATP_Site>  (802) 
nan

>  <Peripheral>  (802) 
nan

>  <Num_H_Atoms_ProtBoundConf>  (802) 
nan

>  <Num_Resolved_Atoms>  (802) 
nan

>  <Num_Not_Resolved_Atoms>  (802) 
nan

$$$$
CHEMBL3728783
     RDKit          3D

  0  0  0  0  0  0  0  0  0  0999 V3000
M  V30 BEGIN CTAB
M  V30 COUNTS 61 65 0 0 0
M  V30 BEGIN ATOM
M  V30 1 C 4.014989 1.430552 4.936222 0
M  V30 2 O 3.359221 1.434006 3.678624 0
M  V30 3 C 4.172121 1.185830 2.568211 0
M  V30 4 C 5.514135 0.949989 2.637992 0
M  V30 5 C 6.161701 0.723485 1.438217 0
M  V30 6 N 5.504053 0.734280 0.257284 0
M  V30 7 C 4.181112 0.964933 0.168390 0
M  V30 8 C 3.487016 1.199108 1.360229 0
M  V30 9 C 2.058771 1.441809 1.195828 0
M  V30 10 C 1.632360 2.728294 1.014662 0
M  V30 11 C 2.371207 3.989299 0.948908 0
M  V30 12 S -0.192260 2.665403 0.845166 0
M  V30 13 C -0.207715 0.806334 1.045929 0
M  V30 14 C -1.297633 -0.045107 1.033253 0
M  V30 15 N -2.575516 0.527782 0.851266 0
M  V30 16 C -3.745408 -0.319272 0.828103 0
M  V30 17 C -3.751591 -1.319618 -0.290301 0 CFG=1
M  V30 18 N -4.988991 -2.076691 -0.160192 0
M  V30 19 C -3.736722 -0.662681 -1.647867 0
M  V30 20 C -3.742820 -1.647062 -2.741179 0
M  V30 21 C -2.538386 -2.109835 -3.233087 0
M  V30 22 C -2.523307 -3.028286 -4.252778 0
M  V30 23 C -3.702522 -3.516757 -4.816794 0
M  V30 24 C -4.871530 -3.027614 -4.294954 0
M  V30 25 C -4.935165 -2.103822 -3.270216 0
M  V30 26 N -1.065471 -1.357006 1.198446 0
M  V30 27 C 0.215608 -1.721077 1.361862 0
M  V30 28 C 0.534519 -3.153088 1.548562 0
M  V30 29 C 1.819013 -3.610993 1.722499 0
M  V30 30 C 1.963972 -4.976774 1.885196 0
M  V30 31 N 0.938744 -5.840339 1.880176 0
M  V30 32 C -0.331877 -5.377939 1.707090 0
M  V30 33 C -0.540643 -4.014606 1.538493 0
M  V30 34 N 1.235537 -0.882778 1.369199 0
M  V30 35 C 1.129785 0.445825 1.214407 0
M  V30 36 H 4.873493 2.159606 4.878620 0
M  V30 37 H 3.340014 1.667065 5.763553 0
M  V30 38 H 4.501832 0.436815 5.057429 0
M  V30 39 H 5.999463 0.951011 3.607878 0
M  V30 40 H 7.243426 0.529884 1.456192 0
M  V30 41 H 3.688988 0.965724 -0.795042 0
M  V30 42 H 1.783734 4.674845 0.267380 0
M  V30 43 H 2.392761 4.553004 1.905615 0
M  V30 44 H 3.330639 3.867750 0.448827 0
M  V30 45 H -2.709352 1.549807 0.731570 0
M  V30 46 H -4.675311 0.296450 0.690471 0
M  V30 47 H -3.868508 -0.802168 1.824595 0
M  V30 48 H -2.863657 -1.958417 -0.200766 0
M  V30 49 H -5.716274 -1.454199 0.213978 0
M  V30 50 H -4.883711 -2.964496 0.344444 0
M  V30 51 H -4.550299 0.089833 -1.740825 0
M  V30 52 H -2.791835 -0.058717 -1.710829 0
M  V30 53 H -1.580803 -1.764635 -2.832233 0
M  V30 54 H -1.594282 -3.410406 -4.660156 0
M  V30 55 H -3.652774 -4.243586 -5.623059 0
M  V30 56 H -5.822139 -3.370070 -4.692627 0
M  V30 57 H -5.893763 -1.741995 -2.885900 0
M  V30 58 H 2.642346 -2.914418 1.726192 0
M  V30 59 H 2.972022 -5.369473 2.025323 0
M  V30 60 H -1.168060 -6.066939 1.701330 0
M  V30 61 H -1.572067 -3.718473 1.406622 0
M  V30 END ATOM
M  V30 BEGIN BOND
M  V30 1 1 1 2
M  V30 2 1 2 3
M  V30 3 2 3 4
M  V30 4 1 4 5
M  V30 5 2 5 6
M  V30 6 1 6 7
M  V30 7 2 7 8
M  V30 8 1 8 9
M  V30 9 2 9 10
M  V30 10 1 10 11
M  V30 11 1 10 12
M  V30 12 1 12 13
M  V30 13 2 13 14
M  V30 14 1 14 15
M  V30 15 1 15 16
M  V30 16 1 16 17
M  V30 17 1 17 18
M  V30 18 1 17 19
M  V30 19 1 19 20
M  V30 20 2 20 21
M  V30 21 1 21 22
M  V30 22 2 22 23
M  V30 23 1 23 24
M  V30 24 2 24 25
M  V30 25 1 14 26
M  V30 26 2 26 27
M  V30 27 1 27 28
M  V30 28 2 28 29
M  V30 29 1 29 30
M  V30 30 2 30 31
M  V30 31 1 31 32
M  V30 32 2 32 33
M  V30 33 1 27 34
M  V30 34 2 34 35
M  V30 35 1 8 3
M  V30 36 1 35 9
M  V30 37 1 35 13
M  V30 38 1 25 20
M  V30 39 1 33 28
M  V30 40 1 1 36
M  V30 41 1 1 37
M  V30 42 1 1 38
M  V30 43 1 4 39
M  V30 44 1 5 40
M  V30 45 1 7 41
M  V30 46 1 11 42
M  V30 47 1 11 43
M  V30 48 1 11 44
M  V30 49 1 15 45
M  V30 50 1 16 46
M  V30 51 1 16 47
M  V30 52 1 17 48 CFG=1
M  V30 53 1 18 49
M  V30 54 1 18 50
M  V30 55 1 19 51
M  V30 56 1 19 52
M  V30 57 1 21 53
M  V30 58 1 22 54
M  V30 59 1 23 55
M  V30 60 1 24 56
M  V30 61 1 25 57
M  V30 62 1 29 58
M  V30 63 1 30 59
M  V30 64 1 32 60
M  V30 65 1 33 61
M  V30 END BOND
M  V30 END CTAB
M  END
>  <Dataset>  (803) 
ChEMBL_Kinases

>  <Ligand_Instance>  (803) 
nan

>  <PDB_ID>  (803) 
nan

>  <Standardized_SMILES>  (803) 
COc1ccncc1-c1c(C)sc2c(NC[C@@H](N)Cc3ccccc3)nc(-c3ccncc3)nc12

>  <Name>  (803) 
nan

>  <Pocket>  (803) 
nan

>  <ATP_Site>  (803) 
nan

>  <Peripheral>  (803) 
nan

>  <Num_H_Atoms_ProtBoundConf>  (803) 
nan

>  <Num_Resolved_Atoms>  (803) 
nan

>  <Num_Not_Resolved_Atoms>  (803) 
nan

$$$$
CHEMBL3728774
     RDKit          3D

  0  0  0  0  0  0  0  0  0  0999 V3000
M  V30 BEGIN CTAB
M  V30 COUNTS 62 66 0 0 0
M  V30 BEGIN ATOM
M  V30 1 N 2.271711 -3.170724 4.689885 0
M  V30 2 C 1.239462 -2.168108 4.934615 0 CFG=2
M  V30 3 C 1.100752 -1.269248 3.720865 0
M  V30 4 N 0.734765 -2.011395 2.544436 0
M  V30 5 C 0.582156 -1.263588 1.359594 0
M  V30 6 N 0.759487 0.067094 1.292647 0
M  V30 7 C 0.580523 0.652255 0.094301 0
M  V30 8 C 0.750330 2.111587 -0.090938 0
M  V30 9 C 1.100351 2.828605 1.031886 0
M  V30 10 C 1.275295 4.201134 0.927305 0
M  V30 11 N 1.107457 4.827194 -0.247815 0
M  V30 12 C 0.761385 4.112280 -1.354053 0
M  V30 13 C 0.575083 2.744318 -1.304177 0
M  V30 14 N 0.241059 -0.036319 -0.997949 0
M  V30 15 C 0.047508 -1.362259 -1.007913 0
M  V30 16 C -0.297615 -2.118756 -2.081622 0
M  V30 17 N -0.518193 -1.647555 -3.395006 0
M  V30 18 C -0.874203 -2.438325 -4.495678 0
M  V30 19 O -1.033540 -3.667673 -4.413132 0
M  V30 20 C -1.093828 -1.886465 -5.857773 0
M  V30 21 C -1.459181 -3.098952 -6.723089 0
M  V30 22 C -2.897375 -3.392235 -6.427855 0
M  V30 23 C -3.498476 -2.135653 -5.825374 0
M  V30 24 C -2.402138 -1.118202 -5.901838 0
M  V30 25 C -0.445170 -3.505485 -1.842656 0
M  V30 26 S -0.059709 -3.646927 0.004040 0
M  V30 27 C 0.225920 -1.953049 0.191671 0
M  V30 28 C 1.712063 -1.381396 6.138959 0
M  V30 29 C 0.745791 -0.309671 6.508679 0
M  V30 30 C -0.245014 -0.684198 7.419951 0
M  V30 31 C -1.222169 0.175895 7.874664 0
M  V30 32 C -1.193485 1.479373 7.381455 0
M  V30 33 C -0.212076 1.828624 6.486666 0
M  V30 34 C 0.765876 0.981520 6.026643 0
M  V30 35 H 3.214485 -2.771168 4.789133 0
M  V30 36 H 2.105813 -3.946783 5.396595 0
M  V30 37 H 0.292003 -2.679510 5.122437 0
M  V30 38 H 0.417278 -0.432767 3.966405 0
M  V30 39 H 2.103145 -0.800100 3.561893 0
M  V30 40 H 0.601135 -3.027078 2.603930 0
M  V30 41 H 1.249158 2.382986 2.001884 0
M  V30 42 H 1.550238 4.757289 1.813981 0
M  V30 43 H 0.601619 4.525472 -2.352681 0
M  V30 44 H 0.300337 2.134233 -2.154510 0
M  V30 45 H -0.424998 -0.640085 -3.632755 0
M  V30 46 H -0.256114 -1.323000 -6.262387 0
M  V30 47 H -0.855221 -3.977681 -6.351993 0
M  V30 48 H -1.237838 -2.891494 -7.783784 0
M  V30 49 H -3.499495 -3.639628 -7.306417 0
M  V30 50 H -2.996229 -4.203394 -5.673502 0
M  V30 51 H -4.367566 -1.771204 -6.386966 0
M  V30 52 H -3.779803 -2.297300 -4.753145 0
M  V30 53 H -2.438804 -0.498453 -4.979927 0
M  V30 54 H -2.465609 -0.456893 -6.769873 0
M  V30 55 H -0.689698 -4.428191 -2.349497 0
M  V30 56 H 1.853305 -2.085768 6.980615 0
M  V30 57 H 2.691141 -0.909671 5.965427 0
M  V30 58 H -0.295749 -1.694866 7.824680 0
M  V30 59 H -1.974602 -0.140251 8.578151 0
M  V30 60 H -1.949353 2.159309 7.727902 0
M  V30 61 H -0.215843 2.853853 6.119361 0
M  V30 62 H 1.541281 1.236208 5.327361 0
M  V30 END ATOM
M  V30 BEGIN BOND
M  V30 1 1 1 2
M  V30 2 1 2 3
M  V30 3 1 3 4
M  V30 4 1 4 5
M  V30 5 2 5 6
M  V30 6 1 6 7
M  V30 7 1 7 8
M  V30 8 2 8 9
M  V30 9 1 9 10
M  V30 10 2 10 11
M  V30 11 1 11 12
M  V30 12 2 12 13
M  V30 13 2 7 14
M  V30 14 1 14 15
M  V30 15 1 15 16
M  V30 16 1 16 17
M  V30 17 1 17 18
M  V30 18 2 18 19
M  V30 19 1 18 20
M  V30 20 1 20 21
M  V30 21 1 21 22
M  V30 22 1 22 23
M  V30 23 1 23 24
M  V30 24 2 16 25
M  V30 25 1 25 26
M  V30 26 1 26 27
M  V30 27 1 2 28
M  V30 28 1 28 29
M  V30 29 2 29 30
M  V30 30 1 30 31
M  V30 31 2 31 32
M  V30 32 1 32 33
M  V30 33 2 33 34
M  V30 34 1 27 5
M  V30 35 1 34 29
M  V30 36 1 13 8
M  V30 37 2 27 15
M  V30 38 1 24 20
M  V30 39 1 1 35
M  V30 40 1 1 36
M  V30 41 1 2 37 CFG=1
M  V30 42 1 3 38
M  V30 43 1 3 39
M  V30 44 1 4 40
M  V30 45 1 9 41
M  V30 46 1 10 42
M  V30 47 1 12 43
M  V30 48 1 13 44
M  V30 49 1 17 45
M  V30 50 1 20 46
M  V30 51 1 21 47
M  V30 52 1 21 48
M  V30 53 1 22 49
M  V30 54 1 22 50
M  V30 55 1 23 51
M  V30 56 1 23 52
M  V30 57 1 24 53
M  V30 58 1 24 54
M  V30 59 1 25 55
M  V30 60 1 28 56
M  V30 61 1 28 57
M  V30 62 1 30 58
M  V30 63 1 31 59
M  V30 64 1 32 60
M  V30 65 1 33 61
M  V30 66 1 34 62
M  V30 END BOND
M  V30 END CTAB
M  END
>  <Dataset>  (804) 
ChEMBL_Kinases

>  <Ligand_Instance>  (804) 
nan

>  <PDB_ID>  (804) 
nan

>  <Standardized_SMILES>  (804) 
N[C@H](CNc1nc(-c2ccncc2)nc2c(NC(=O)C3CCCC3)csc12)Cc1ccccc1

>  <Name>  (804) 
nan

>  <Pocket>  (804) 
nan

>  <ATP_Site>  (804) 
nan

>  <Peripheral>  (804) 
nan

>  <Num_H_Atoms_ProtBoundConf>  (804) 
nan

>  <Num_Resolved_Atoms>  (804) 
nan

>  <Num_Not_Resolved_Atoms>  (804) 
nan

$$$$
CHEMBL3728773
     RDKit          3D

  0  0  0  0  0  0  0  0  0  0999 V3000
M  V30 BEGIN CTAB
M  V30 COUNTS 58 63 0 0 0
M  V30 BEGIN ATOM
M  V30 1 N 0.825013 -1.979575 0.141150 0
M  V30 2 C -0.533982 -2.277541 0.524652 0 CFG=2
M  V30 3 C -0.999359 -1.472285 1.685327 0
M  V30 4 O -1.015066 -0.107246 1.563168 0
M  V30 5 C -0.005895 0.795875 1.330364 0
M  V30 6 N 1.274793 0.454266 1.175583 0
M  V30 7 C 2.318910 1.236000 0.950091 0
M  V30 8 C 3.698184 0.801905 0.792880 0
M  V30 9 C 4.698235 1.720191 0.553760 0
M  V30 10 C 6.021509 1.326285 0.399839 0
M  V30 11 N 6.347160 0.033132 0.482780 0
M  V30 12 C 5.428896 -0.908267 0.712250 0
M  V30 13 C 4.101849 -0.512804 0.866582 0
M  V30 14 N 2.031423 2.545660 0.869192 0
M  V30 15 C 0.778974 3.020930 1.007305 0
M  V30 16 S 0.096345 4.663927 0.952842 0
M  V30 17 C -1.645654 4.115940 1.258281 0
M  V30 18 C -1.528597 2.767868 1.367788 0
M  V30 19 C -0.314947 2.138681 1.249617 0
M  V30 20 C -2.900222 2.256947 1.621130 0
M  V30 21 C -3.405312 3.057094 2.829448 0
M  V30 22 C -3.812102 4.400855 2.291727 0
M  V30 23 C -2.808883 4.948368 1.345920 0
M  V30 24 C -0.510850 -3.738914 0.999601 0
M  V30 25 C -0.051231 -4.616063 -0.121751 0
M  V30 26 C 1.180378 -5.214011 -0.301014 0
M  V30 27 N 1.169870 -5.928202 -1.458749 0
M  V30 28 C -0.067645 -5.776925 -2.003126 0
M  V30 29 C -0.571238 -6.303923 -3.173204 0
M  V30 30 C -1.879711 -6.020405 -3.549603 0
M  V30 31 C -2.698522 -5.207128 -2.760380 0
M  V30 32 C -2.124585 -4.714228 -1.600505 0
M  V30 33 C -0.837384 -4.961973 -1.179973 0
M  V30 34 H 1.505911 -2.722661 0.356585 0
M  V30 35 H 0.929139 -1.518424 -0.780068 0
M  V30 36 H -1.188411 -2.190532 -0.363685 0
M  V30 37 H -0.282835 -1.714657 2.531034 0
M  V30 38 H -1.970483 -1.896290 2.080252 0
M  V30 39 H 4.509263 2.781832 0.474332 0
M  V30 40 H 6.836918 2.000422 0.212386 0
M  V30 41 H 5.656414 -1.950885 0.784117 0
M  V30 42 H 3.365857 -1.270332 1.051579 0
M  V30 43 H -3.547035 2.539071 0.776264 0
M  V30 44 H -2.928125 1.171797 1.841845 0
M  V30 45 H -2.540433 3.172334 3.513734 0
M  V30 46 H -4.230826 2.531739 3.338948 0
M  V30 47 H -4.096466 5.114920 3.091383 0
M  V30 48 H -4.774822 4.227738 1.725145 0
M  V30 49 H -2.526547 5.976058 1.669422 0
M  V30 50 H -3.201193 5.099216 0.296759 0
M  V30 51 H 0.192470 -3.855007 1.847335 0
M  V30 52 H -1.501498 -4.048732 1.367128 0
M  V30 53 H 2.007536 -5.099953 0.409786 0
M  V30 54 H 1.962202 -6.481325 -1.845848 0
M  V30 55 H 0.032687 -6.945617 -3.822866 0
M  V30 56 H -2.253377 -6.439859 -4.463689 0
M  V30 57 H -3.714980 -4.983189 -3.046667 0
M  V30 58 H -2.757112 -4.079949 -0.980922 0
M  V30 END ATOM
M  V30 BEGIN BOND
M  V30 1 1 1 2
M  V30 2 1 2 3
M  V30 3 1 3 4
M  V30 4 1 4 5
M  V30 5 2 5 6
M  V30 6 1 6 7
M  V30 7 1 7 8
M  V30 8 2 8 9
M  V30 9 1 9 10
M  V30 10 2 10 11
M  V30 11 1 11 12
M  V30 12 2 12 13
M  V30 13 2 7 14
M  V30 14 1 14 15
M  V30 15 1 15 16
M  V30 16 1 16 17
M  V30 17 2 17 18
M  V30 18 1 18 19
M  V30 19 1 18 20
M  V30 20 1 20 21
M  V30 21 1 21 22
M  V30 22 1 22 23
M  V30 23 1 2 24
M  V30 24 1 24 25
M  V30 25 2 25 26
M  V30 26 1 26 27
M  V30 27 1 27 28
M  V30 28 2 28 29
M  V30 29 1 29 30
M  V30 30 2 30 31
M  V30 31 1 31 32
M  V30 32 2 32 33
M  V30 33 1 19 5
M  V30 34 1 33 25
M  V30 35 1 13 8
M  V30 36 2 19 15
M  V30 37 1 33 28
M  V30 38 1 23 17
M  V30 39 1 1 34
M  V30 40 1 1 35
M  V30 41 1 2 36 CFG=3
M  V30 42 1 3 37
M  V30 43 1 3 38
M  V30 44 1 9 39
M  V30 45 1 10 40
M  V30 46 1 12 41
M  V30 47 1 13 42
M  V30 48 1 20 43
M  V30 49 1 20 44
M  V30 50 1 21 45
M  V30 51 1 21 46
M  V30 52 1 22 47
M  V30 53 1 22 48
M  V30 54 1 23 49
M  V30 55 1 23 50
M  V30 56 1 24 51
M  V30 57 1 24 52
M  V30 58 1 26 53
M  V30 59 1 27 54
M  V30 60 1 29 55
M  V30 61 1 30 56
M  V30 62 1 31 57
M  V30 63 1 32 58
M  V30 END BOND
M  V30 END CTAB
M  END
>  <Dataset>  (805) 
ChEMBL_Kinases

>  <Ligand_Instance>  (805) 
nan

>  <PDB_ID>  (805) 
nan

>  <Standardized_SMILES>  (805) 
N[C@H](COc1nc(-c2ccncc2)nc2sc3c(c12)CCCC3)Cc1c[nH]c2ccccc12

>  <Name>  (805) 
nan

>  <Pocket>  (805) 
nan

>  <ATP_Site>  (805) 
nan

>  <Peripheral>  (805) 
nan

>  <Num_H_Atoms_ProtBoundConf>  (805) 
nan

>  <Num_Resolved_Atoms>  (805) 
nan

>  <Num_Not_Resolved_Atoms>  (805) 
nan

$$$$
CHEMBL524059
     RDKit          3D

  0  0  0  0  0  0  0  0  0  0999 V3000
M  V30 BEGIN CTAB
M  V30 COUNTS 37 40 0 0 0
M  V30 BEGIN ATOM
M  V30 1 O 0.326903 -5.230862 3.275731 0
M  V30 2 C 1.116351 -5.465218 2.303348 0
M  V30 3 O 1.466953 -6.799128 2.198394 0
M  V30 4 C 1.517276 -4.356331 1.480312 0
M  V30 5 C 1.029355 -3.112265 1.788461 0
M  V30 6 C 1.390201 -2.011884 1.023531 0
M  V30 7 C 2.243507 -2.099504 -0.071872 0
M  V30 8 N 2.611316 -0.991821 -0.879415 0
M  V30 9 C 2.052667 0.303350 -0.957998 0
M  V30 10 N 2.694270 1.222944 -1.721790 0
M  V30 11 C 2.236550 2.469686 -1.871314 0
M  V30 12 C 1.081473 2.827604 -1.231150 0
M  V30 13 C 0.383016 1.911365 -0.431607 0
M  V30 14 C -0.839133 2.395251 0.179244 0
M  V30 15 C -1.315830 3.683726 0.134750 0
M  V30 16 N -2.476034 3.744329 0.803202 0
M  V30 17 N -2.801576 2.559535 1.294992 0
M  V30 18 N -3.829914 2.138131 2.004271 0
M  V30 19 C -3.968780 0.859543 2.404610 0
M  V30 20 C -2.983171 -0.062433 2.054715 0
M  V30 21 C -1.930786 0.433223 1.312868 0
M  V30 22 C -1.806767 1.744248 0.914133 0
M  V30 23 N 0.927639 0.693207 -0.349937 0
M  V30 24 C 2.713779 -3.372397 -0.348509 0
M  V30 25 C 2.354514 -4.450384 0.408753 0
M  V30 26 H 0.783569 -7.554430 2.233462 0
M  V30 27 H 0.354257 -2.902241 2.615130 0
M  V30 28 H 1.034655 -1.036501 1.248387 0
M  V30 29 H 3.433228 -1.192966 -1.510655 0
M  V30 30 H 2.798618 3.159235 -2.496431 0
M  V30 31 H 0.732238 3.852544 -1.372634 0
M  V30 32 H -0.898742 4.563466 -0.332299 0
M  V30 33 H -4.785251 0.456111 2.987742 0
M  V30 34 H -2.997877 -1.121575 2.327374 0
M  V30 35 H -1.161923 -0.262888 1.027901 0
M  V30 36 H 3.373918 -3.509954 -1.173624 0
M  V30 37 H 2.737175 -5.441139 0.170897 0
M  V30 END ATOM
M  V30 BEGIN BOND
M  V30 1 2 1 2
M  V30 2 1 2 3
M  V30 3 1 2 4
M  V30 4 2 4 5
M  V30 5 1 5 6
M  V30 6 2 6 7
M  V30 7 1 7 8
M  V30 8 1 8 9
M  V30 9 2 9 10
M  V30 10 1 10 11
M  V30 11 2 11 12
M  V30 12 1 12 13
M  V30 13 1 13 14
M  V30 14 1 14 15
M  V30 15 2 15 16
M  V30 16 1 16 17
M  V30 17 1 17 18
M  V30 18 2 18 19
M  V30 19 1 19 20
M  V30 20 2 20 21
M  V30 21 1 21 22
M  V30 22 2 13 23
M  V30 23 1 7 24
M  V30 24 2 24 25
M  V30 25 1 25 4
M  V30 26 1 23 9
M  V30 27 2 22 14
M  V30 28 1 22 17
M  V30 29 1 3 26
M  V30 30 1 5 27
M  V30 31 1 6 28
M  V30 32 1 8 29
M  V30 33 1 11 30
M  V30 34 1 12 31
M  V30 35 1 15 32
M  V30 36 1 19 33
M  V30 37 1 20 34
M  V30 38 1 21 35
M  V30 39 1 24 36
M  V30 40 1 25 37
M  V30 END BOND
M  V30 END CTAB
M  END
>  <Dataset>  (806) 
ChEMBL_Kinases

>  <Ligand_Instance>  (806) 
nan

>  <PDB_ID>  (806) 
nan

>  <Standardized_SMILES>  (806) 
O=C(O)c1ccc(Nc2nccc(-c3cnn4ncccc34)n2)cc1

>  <Name>  (806) 
nan

>  <Pocket>  (806) 
nan

>  <ATP_Site>  (806) 
nan

>  <Peripheral>  (806) 
nan

>  <Num_H_Atoms_ProtBoundConf>  (806) 
nan

>  <Num_Resolved_Atoms>  (806) 
nan

>  <Num_Not_Resolved_Atoms>  (806) 
nan

$$$$
CHEMBL3728764
     RDKit          3D

  0  0  0  0  0  0  0  0  0  0999 V3000
M  V30 BEGIN CTAB
M  V30 COUNTS 47 49 0 0 0
M  V30 BEGIN ATOM
M  V30 1 C -0.069943 -5.375900 0.982582 0
M  V30 2 C 0.847388 -4.174303 1.102078 0 CFG=2
M  V30 3 N 0.559232 -3.319200 2.209531 0
M  V30 4 C 0.926522 -3.514050 -0.243294 0
M  V30 5 N 1.769147 -2.372252 -0.179062 0
M  V30 6 C 1.088682 -1.260899 0.158637 0
M  V30 7 N 2.297972 -0.515204 0.040119 0
M  V30 8 C 2.348475 0.805309 0.263875 0
M  V30 9 C 3.616926 1.644582 0.167615 0
M  V30 10 C 3.650128 2.980223 0.427528 0
M  V30 11 C 4.839749 3.661632 0.334858 0
M  V30 12 N 5.978386 2.991488 -0.017981 0
M  V30 13 C 5.857835 1.674560 -0.257658 0
M  V30 14 C 4.725594 0.871711 -0.200464 0
M  V30 15 N 1.300398 1.574556 0.616107 0
M  V30 16 C 0.070518 1.116102 0.788948 0
M  V30 17 C -1.215727 1.290601 1.068135 0
M  V30 18 C -2.213429 0.429799 1.103284 0
M  V30 19 C -3.617681 0.531443 1.388210 0
M  V30 20 C -4.321936 -0.798809 1.231563 0
M  V30 21 C -4.255309 1.503820 0.418221 0
M  V30 22 C -3.804475 1.091142 2.790599 0
M  V30 23 S -1.262126 -1.074039 0.647690 0
M  V30 24 C 0.407726 -0.148455 0.496633 0
M  V30 25 H -0.444988 -5.610833 1.985588 0
M  V30 26 H -0.933758 -5.128784 0.336050 0
M  V30 27 H 0.446646 -6.219600 0.493572 0
M  V30 28 H 1.862135 -4.642002 1.344113 0
M  V30 29 H 1.108178 -3.586453 3.078539 0
M  V30 30 H -0.448027 -3.393369 2.503430 0
M  V30 31 H -0.095684 -3.284667 -0.651131 0
M  V30 32 H 1.311724 -4.277636 -0.957931 0
M  V30 33 H 2.675199 -2.749190 -0.409289 0
M  V30 34 H 2.726019 3.485046 0.706665 0
M  V30 35 H 4.783547 4.713760 0.555169 0
M  V30 36 H 6.825759 1.245290 -0.529060 0
M  V30 37 H 4.745433 -0.174993 -0.413574 0
M  V30 38 H -1.362733 2.352627 1.286027 0
M  V30 39 H -5.384850 -0.566337 1.026635 0
M  V30 40 H -3.887930 -1.357618 0.378268 0
M  V30 41 H -4.273045 -1.332304 2.188346 0
M  V30 42 H -4.481945 2.477800 0.926262 0
M  V30 43 H -3.517078 1.765979 -0.393189 0
M  V30 44 H -5.140750 1.071900 -0.093338 0
M  V30 45 H -3.058432 0.595266 3.444348 0
M  V30 46 H -4.829033 0.893373 3.168844 0
M  V30 47 H -3.560355 2.164612 2.809498 0
M  V30 END ATOM
M  V30 BEGIN BOND
M  V30 1 1 1 2
M  V30 2 1 2 3
M  V30 3 1 2 4
M  V30 4 1 4 5
M  V30 5 1 5 6
M  V30 6 2 6 7
M  V30 7 1 7 8
M  V30 8 1 8 9
M  V30 9 2 9 10
M  V30 10 1 10 11
M  V30 11 2 11 12
M  V30 12 1 12 13
M  V30 13 2 13 14
M  V30 14 2 8 15
M  V30 15 1 15 16
M  V30 16 1 16 17
M  V30 17 2 17 18
M  V30 18 1 18 19
M  V30 19 1 19 20
M  V30 20 1 19 21
M  V30 21 1 19 22
M  V30 22 1 18 23
M  V30 23 1 23 24
M  V30 24 1 24 6
M  V30 25 1 14 9
M  V30 26 2 24 16
M  V30 27 1 1 25
M  V30 28 1 1 26
M  V30 29 1 1 27
M  V30 30 1 2 28 CFG=1
M  V30 31 1 3 29
M  V30 32 1 3 30
M  V30 33 1 4 31
M  V30 34 1 4 32
M  V30 35 1 5 33
M  V30 36 1 10 34
M  V30 37 1 11 35
M  V30 38 1 13 36
M  V30 39 1 14 37
M  V30 40 1 17 38
M  V30 41 1 20 39
M  V30 42 1 20 40
M  V30 43 1 20 41
M  V30 44 1 21 42
M  V30 45 1 21 43
M  V30 46 1 21 44
M  V30 47 1 22 45
M  V30 48 1 22 46
M  V30 49 1 22 47
M  V30 END BOND
M  V30 END CTAB
M  END
>  <Dataset>  (807) 
ChEMBL_Kinases

>  <Ligand_Instance>  (807) 
nan

>  <PDB_ID>  (807) 
nan

>  <Standardized_SMILES>  (807) 
C[C@H](N)CNc1nc(-c2ccncc2)nc2cc(C(C)(C)C)sc12

>  <Name>  (807) 
nan

>  <Pocket>  (807) 
nan

>  <ATP_Site>  (807) 
nan

>  <Peripheral>  (807) 
nan

>  <Num_H_Atoms_ProtBoundConf>  (807) 
nan

>  <Num_Resolved_Atoms>  (807) 
nan

>  <Num_Not_Resolved_Atoms>  (807) 
nan

$$$$
CHEMBL3728749
     RDKit          3D

  0  0  0  0  0  0  0  0  0  0999 V3000
M  V30 BEGIN CTAB
M  V30 COUNTS 52 56 0 0 0
M  V30 BEGIN ATOM
M  V30 1 N -2.167873 -4.424482 0.775226 0
M  V30 2 C -0.847954 -4.312390 1.358063 0 CFG=2
M  V30 3 C -0.234352 -2.966826 1.145010 0
M  V30 4 N -1.036398 -1.901158 1.740362 0
M  V30 5 C -0.547761 -0.579614 1.598272 0
M  V30 6 N 0.615021 -0.307303 0.938355 0
M  V30 7 C 0.921740 1.011159 0.903772 0
M  V30 8 C 2.175282 1.354996 0.197878 0
M  V30 9 C 2.618804 2.652679 0.079627 0
M  V30 10 C 3.786594 2.978665 -0.577397 0
M  V30 11 N 4.522562 1.988495 -1.125184 0
M  V30 12 C 4.085170 0.720389 -1.007267 0
M  V30 13 C 2.911139 0.336395 -0.353029 0
M  V30 14 N 0.209845 1.996000 1.436649 0
M  V30 15 C -0.946035 1.763118 2.096881 0
M  V30 16 C -1.713492 2.712989 2.658871 0
M  V30 17 C -1.502382 4.165732 2.695879 0
M  V30 18 C -1.124739 4.971275 1.642828 0
M  V30 19 N -1.029238 6.265291 2.065568 0
M  V30 20 N -1.340111 6.272470 3.356051 0
M  V30 21 C -1.627375 5.020887 3.753367 0
M  V30 22 C -2.872821 2.256652 3.296102 0
M  V30 23 S -2.783937 0.377967 3.033077 0
M  V30 24 C -1.301489 0.454984 2.161555 0
M  V30 25 C 0.016958 -5.379565 0.739625 0
M  V30 26 C 0.067624 -5.153266 -0.721888 0
M  V30 27 C 0.999972 -4.416429 -1.424055 0
M  V30 28 C 0.937536 -4.274132 -2.784679 0
M  V30 29 C -0.056485 -4.855416 -3.538495 0
M  V30 30 C -1.031023 -5.614448 -2.888456 0
M  V30 31 C -0.916633 -5.722636 -1.514869 0
M  V30 32 H -2.407942 -3.702028 0.090264 0
M  V30 33 H -2.905038 -4.679721 1.447811 0
M  V30 34 H -0.869577 -4.520532 2.451950 0
M  V30 35 H 0.759591 -2.941882 1.631463 0
M  V30 36 H -0.067247 -2.772637 0.061560 0
M  V30 37 H -1.920204 -2.114630 2.241047 0
M  V30 38 H 1.990525 3.405972 0.536980 0
M  V30 39 H 4.059000 4.019801 -0.622729 0
M  V30 40 H 4.715645 -0.027621 -1.465328 0
M  V30 41 H 2.649946 -0.710994 -0.315054 0
M  V30 42 H -0.924134 4.659131 0.615754 0
M  V30 43 H -1.374335 7.080598 4.008346 0
M  V30 44 H -1.920734 4.687258 4.755992 0
M  V30 45 H -3.680418 2.876630 3.844959 0
M  V30 46 H 1.047253 -5.377639 1.157568 0
M  V30 47 H -0.465584 -6.381067 0.905176 0
M  V30 48 H 1.791465 -3.959152 -0.823608 0
M  V30 49 H 1.725709 -3.670160 -3.237617 0
M  V30 50 H -0.101751 -4.741541 -4.603586 0
M  V30 51 H -1.839793 -6.099958 -3.410297 0
M  V30 52 H -1.686182 -6.318851 -1.024655 0
M  V30 END ATOM
M  V30 BEGIN BOND
M  V30 1 1 1 2
M  V30 2 1 2 3
M  V30 3 1 3 4
M  V30 4 1 4 5
M  V30 5 2 5 6
M  V30 6 1 6 7
M  V30 7 1 7 8
M  V30 8 2 8 9
M  V30 9 1 9 10
M  V30 10 2 10 11
M  V30 11 1 11 12
M  V30 12 2 12 13
M  V30 13 2 7 14
M  V30 14 1 14 15
M  V30 15 1 15 16
M  V30 16 1 16 17
M  V30 17 1 17 18
M  V30 18 2 18 19
M  V30 19 1 19 20
M  V30 20 1 20 21
M  V30 21 2 16 22
M  V30 22 1 22 23
M  V30 23 1 23 24
M  V30 24 1 2 25
M  V30 25 1 25 26
M  V30 26 2 26 27
M  V30 27 1 27 28
M  V30 28 2 28 29
M  V30 29 1 29 30
M  V30 30 2 30 31
M  V30 31 1 24 5
M  V30 32 1 31 26
M  V30 33 1 13 8
M  V30 34 2 24 15
M  V30 35 2 21 17
M  V30 36 1 1 32
M  V30 37 1 1 33
M  V30 38 1 2 34 CFG=1
M  V30 39 1 3 35
M  V30 40 1 3 36
M  V30 41 1 4 37
M  V30 42 1 9 38
M  V30 43 1 10 39
M  V30 44 1 12 40
M  V30 45 1 13 41
M  V30 46 1 18 42
M  V30 47 1 20 43
M  V30 48 1 21 44
M  V30 49 1 22 45
M  V30 50 1 25 46
M  V30 51 1 25 47
M  V30 52 1 27 48
M  V30 53 1 28 49
M  V30 54 1 29 50
M  V30 55 1 30 51
M  V30 56 1 31 52
M  V30 END BOND
M  V30 END CTAB
M  END
>  <Dataset>  (808) 
ChEMBL_Kinases

>  <Ligand_Instance>  (808) 
nan

>  <PDB_ID>  (808) 
nan

>  <Standardized_SMILES>  (808) 
N[C@H](CNc1nc(-c2ccncc2)nc2c(-c3cn[nH]c3)csc12)Cc1ccccc1

>  <Name>  (808) 
nan

>  <Pocket>  (808) 
nan

>  <ATP_Site>  (808) 
nan

>  <Peripheral>  (808) 
nan

>  <Num_H_Atoms_ProtBoundConf>  (808) 
nan

>  <Num_Resolved_Atoms>  (808) 
nan

>  <Num_Not_Resolved_Atoms>  (808) 
nan

$$$$
CHEMBL3728744
     RDKit          3D

  0  0  0  0  0  0  0  0  0  0999 V3000
M  V30 BEGIN CTAB
M  V30 COUNTS 56 59 0 0 0
M  V30 BEGIN ATOM
M  V30 1 C -0.453716 -2.053503 7.243557 0
M  V30 2 C 0.965863 -2.190722 6.707351 0
M  V30 3 C 1.295895 -3.672750 6.655492 0
M  V30 4 C 1.081301 -1.623716 5.366182 0
M  V30 5 C 1.189287 -1.168505 4.254550 0
M  V30 6 C 1.303779 -0.647893 2.927293 0
M  V30 7 C 1.952779 0.602104 2.773868 0
M  V30 8 S 1.894704 0.929590 0.915789 0
M  V30 9 C 1.057112 -0.545403 0.531359 0
M  V30 10 C 0.612965 -1.127465 -0.667924 0
M  V30 11 N 0.887190 -0.261261 -1.812041 0
M  V30 12 C 1.138202 0.540944 -2.899547 0
M  V30 13 C 1.526793 1.981122 -2.554436 0 CFG=1
M  V30 14 N 1.809103 2.618632 -3.837619 0
M  V30 15 C 0.402507 2.728072 -1.868077 0
M  V30 16 C -0.803827 2.801694 -2.757783 0
M  V30 17 C -1.791115 1.843386 -2.745530 0
M  V30 18 C -2.893171 1.922854 -3.568286 0
M  V30 19 C -3.047025 2.993835 -4.454697 0
M  V30 20 C -2.062218 3.957286 -4.472278 0
M  V30 21 C -0.959896 3.871999 -3.645799 0
M  V30 22 N -0.003370 -2.321841 -0.652813 0
M  V30 23 C -0.166427 -2.908357 0.540344 0
M  V30 24 C -0.835733 -4.201731 0.547633 0
M  V30 25 C -1.278503 -4.796036 -0.593700 0
M  V30 26 C -1.910228 -6.029624 -0.547962 0
M  V30 27 N -2.084038 -6.638148 0.634078 0
M  V30 28 C -1.653021 -6.065166 1.768719 0
M  V30 29 C -1.012509 -4.823637 1.760389 0
M  V30 30 N 0.267557 -2.319784 1.633846 0
M  V30 31 C 0.886802 -1.148332 1.737261 0
M  V30 32 H -0.924602 -1.219976 6.646639 0
M  V30 33 H -0.475389 -1.775946 8.320951 0
M  V30 34 H -1.054580 -2.939988 7.021437 0
M  V30 35 H 1.676283 -1.620378 7.336273 0
M  V30 36 H 1.778478 -3.924408 5.686665 0
M  V30 37 H 1.953675 -3.921683 7.512763 0
M  V30 38 H 0.344451 -4.274065 6.683473 0
M  V30 39 H 2.413950 1.276443 3.573696 0
M  V30 40 H 0.536607 -0.979702 -2.515686 0
M  V30 41 H 1.986429 0.204565 -3.575986 0
M  V30 42 H 0.226328 0.699521 -3.552445 0
M  V30 43 H 2.406128 1.976473 -1.942167 0
M  V30 44 H 0.943800 2.518511 -4.409292 0
M  V30 45 H 1.955371 3.636578 -3.656760 0
M  V30 46 H 0.156285 2.259757 -0.927065 0
M  V30 47 H 0.795305 3.745564 -1.675470 0
M  V30 48 H -1.735808 1.003033 -2.094256 0
M  V30 49 H -3.696462 1.208796 -3.606337 0
M  V30 50 H -3.857325 3.170330 -5.146952 0
M  V30 51 H -2.119858 4.823430 -5.144047 0
M  V30 52 H -0.210892 4.667871 -3.703983 0
M  V30 53 H -1.110690 -4.257105 -1.525369 0
M  V30 54 H -2.223349 -6.413730 -1.509167 0
M  V30 55 H -1.800182 -6.572279 2.734146 0
M  V30 56 H -0.657493 -4.345120 2.672564 0
M  V30 END ATOM
M  V30 BEGIN BOND
M  V30 1 1 1 2
M  V30 2 1 2 3
M  V30 3 1 2 4
M  V30 4 3 4 5
M  V30 5 1 5 6
M  V30 6 2 6 7
M  V30 7 1 7 8
M  V30 8 1 8 9
M  V30 9 2 9 10
M  V30 10 1 10 11
M  V30 11 1 11 12
M  V30 12 1 12 13
M  V30 13 1 13 14
M  V30 14 1 13 15
M  V30 15 1 15 16
M  V30 16 2 16 17
M  V30 17 1 17 18
M  V30 18 2 18 19
M  V30 19 1 19 20
M  V30 20 2 20 21
M  V30 21 1 10 22
M  V30 22 2 22 23
M  V30 23 1 23 24
M  V30 24 2 24 25
M  V30 25 1 25 26
M  V30 26 2 26 27
M  V30 27 1 27 28
M  V30 28 2 28 29
M  V30 29 1 23 30
M  V30 30 2 30 31
M  V30 31 1 31 6
M  V30 32 1 31 9
M  V30 33 1 21 16
M  V30 34 1 29 24
M  V30 35 1 1 32
M  V30 36 1 1 33
M  V30 37 1 1 34
M  V30 38 1 2 35
M  V30 39 1 3 36
M  V30 40 1 3 37
M  V30 41 1 3 38
M  V30 42 1 7 39
M  V30 43 1 11 40
M  V30 44 1 12 41
M  V30 45 1 12 42
M  V30 46 1 13 43 CFG=1
M  V30 47 1 14 44
M  V30 48 1 14 45
M  V30 49 1 15 46
M  V30 50 1 15 47
M  V30 51 1 17 48
M  V30 52 1 18 49
M  V30 53 1 19 50
M  V30 54 1 20 51
M  V30 55 1 21 52
M  V30 56 1 25 53
M  V30 57 1 26 54
M  V30 58 1 28 55
M  V30 59 1 29 56
M  V30 END BOND
M  V30 END CTAB
M  END
>  <Dataset>  (809) 
ChEMBL_Kinases

>  <Ligand_Instance>  (809) 
nan

>  <PDB_ID>  (809) 
nan

>  <Standardized_SMILES>  (809) 
CC(C)C#Cc1csc2c(NC[C@@H](N)Cc3ccccc3)nc(-c3ccncc3)nc12

>  <Name>  (809) 
nan

>  <Pocket>  (809) 
nan

>  <ATP_Site>  (809) 
nan

>  <Peripheral>  (809) 
nan

>  <Num_H_Atoms_ProtBoundConf>  (809) 
nan

>  <Num_Resolved_Atoms>  (809) 
nan

>  <Num_Not_Resolved_Atoms>  (809) 
nan

$$$$
CHEMBL3706777
     RDKit          3D

  0  0  0  0  0  0  0  0  0  0999 V3000
M  V30 BEGIN CTAB
M  V30 COUNTS 31 33 0 0 0
M  V30 BEGIN ATOM
M  V30 1 N 2.769418 -5.478058 2.204394 0
M  V30 2 C 2.235485 -4.432605 2.124114 0
M  V30 3 C 1.598569 -3.150915 2.023502 0
M  V30 4 C 1.465416 -2.450303 3.205054 0
M  V30 5 N 1.887523 -2.860274 4.493040 0
M  V30 6 C 0.857264 -1.212081 3.149090 0
M  V30 7 C 0.402163 -0.699874 1.955379 0
M  V30 8 C 0.528085 -1.387724 0.767700 0
M  V30 9 C 1.144004 -2.641809 0.824277 0
M  V30 10 N 1.343764 -3.471471 -0.332696 0
M  V30 11 C 0.085048 -0.951753 -0.568446 0
M  V30 12 C -0.547855 0.375214 -0.520127 0
M  V30 13 C -1.022900 0.942614 -1.675059 0
M  V30 14 O -0.886206 0.232489 -2.862681 0
M  V30 15 C -1.626394 2.184149 -1.695015 0
M  V30 16 C -1.717498 2.817076 -0.459805 0
M  V30 17 O -2.316431 4.075771 -0.405909 0
M  V30 18 C -1.253573 2.281386 0.719329 0
M  V30 19 C -0.657486 1.034838 0.682767 0
M  V30 20 O -0.208637 0.543214 1.897709 0
M  V30 21 H 2.866617 -2.456487 4.505575 0
M  V30 22 H 1.297365 -3.408044 5.153909 0
M  V30 23 H 0.705243 -0.584287 4.019768 0
M  V30 24 H 0.431731 -3.793297 -0.740179 0
M  V30 25 H 2.264170 -3.743896 -0.748269 0
M  V30 26 H -0.566599 -1.734586 -1.022701 0
M  V30 27 H 0.966059 -0.872485 -1.260814 0
M  V30 28 H -0.262737 0.628685 -3.557678 0
M  V30 29 H -2.011482 2.655659 -2.599123 0
M  V30 30 H -3.257758 4.200470 -0.018027 0
M  V30 31 H -1.357733 2.834072 1.656386 0
M  V30 END ATOM
M  V30 BEGIN BOND
M  V30 1 3 1 2
M  V30 2 1 2 3
M  V30 3 2 3 4
M  V30 4 1 4 5
M  V30 5 1 4 6
M  V30 6 2 6 7
M  V30 7 1 7 8
M  V30 8 2 8 9
M  V30 9 1 9 10
M  V30 10 1 8 11
M  V30 11 1 11 12
M  V30 12 2 12 13
M  V30 13 1 13 14
M  V30 14 1 13 15
M  V30 15 2 15 16
M  V30 16 1 16 17
M  V30 17 1 16 18
M  V30 18 2 18 19
M  V30 19 1 19 20
M  V30 20 1 9 3
M  V30 21 1 19 12
M  V30 22 1 20 7
M  V30 23 1 5 21
M  V30 24 1 5 22
M  V30 25 1 6 23
M  V30 26 1 10 24
M  V30 27 1 10 25
M  V30 28 1 11 26
M  V30 29 1 11 27
M  V30 30 1 14 28
M  V30 31 1 15 29
M  V30 32 1 17 30
M  V30 33 1 18 31
M  V30 END BOND
M  V30 END CTAB
M  END
>  <Dataset>  (810) 
ChEMBL_Kinases

>  <Ligand_Instance>  (810) 
nan

>  <PDB_ID>  (810) 
nan

>  <Standardized_SMILES>  (810) 
N#Cc1c(N)cc2c(c1N)Cc1c(O)cc(O)cc1O2

>  <Name>  (810) 
nan

>  <Pocket>  (810) 
nan

>  <ATP_Site>  (810) 
nan

>  <Peripheral>  (810) 
nan

>  <Num_H_Atoms_ProtBoundConf>  (810) 
nan

>  <Num_Resolved_Atoms>  (810) 
nan

>  <Num_Not_Resolved_Atoms>  (810) 
nan

$$$$
CHEMBL3728817
     RDKit          3D

  0  0  0  0  0  0  0  0  0  0999 V3000
M  V30 BEGIN CTAB
M  V30 COUNTS 61 64 0 0 0
M  V30 BEGIN ATOM
M  V30 1 C 5.514958 -2.020292 3.320430 0
M  V30 2 C 5.503203 -0.528150 3.487580 0
M  V30 3 C 5.739570 -0.254506 4.963580 0
M  V30 4 C 6.708112 0.032529 2.764700 0
M  V30 5 N 4.279771 0.112461 3.101276 0
M  V30 6 C 3.717868 0.061777 1.796591 0
M  V30 7 O 4.336918 -0.593441 0.919029 0
M  V30 8 C 2.472932 0.729088 1.442374 0
M  V30 9 C 2.472660 2.118607 1.674898 0
M  V30 10 S 0.741475 2.661346 1.110242 0
M  V30 11 C 0.266385 1.036379 0.658525 0
M  V30 12 C -0.938300 0.593441 0.125524 0
M  V30 13 N -1.960448 1.546748 -0.105793 0
M  V30 14 C -3.198228 1.097006 -0.657567 0
M  V30 15 C -3.966700 0.104122 0.133289 0 CFG=1
M  V30 16 N -4.276502 0.709902 1.427900 0
M  V30 17 C -5.320018 -0.060615 -0.559554 0
M  V30 18 C -5.142175 -0.535403 -1.943618 0
M  V30 19 C -5.003464 0.338631 -3.019306 0
M  V30 20 C -4.834346 -0.050786 -4.343892 0
M  V30 21 C -4.804535 -1.416691 -4.592577 0
M  V30 22 C -4.941671 -2.305424 -3.530025 0
M  V30 23 C -5.107304 -1.882355 -2.229326 0
M  V30 24 N -1.109084 -0.731766 -0.163611 0
M  V30 25 C -0.020327 -1.513517 0.117956 0
M  V30 26 C -0.157573 -2.950269 -0.178616 0
M  V30 27 C 0.878560 -3.827155 0.083009 0
M  V30 28 C 0.791289 -5.185676 -0.178191 0
M  V30 29 N -0.368314 -5.651817 -0.712825 0
M  V30 30 C -1.356818 -4.754571 -0.952327 0
M  V30 31 C -1.336819 -3.393239 -0.717208 0
M  V30 32 N 1.126497 -1.071121 0.628324 0
M  V30 33 C 1.318805 0.230319 0.922147 0
M  V30 34 H 4.505212 -2.411987 3.552651 0
M  V30 35 H 5.729308 -2.334969 2.279513 0
M  V30 36 H 6.214324 -2.472995 4.042022 0
M  V30 37 H 6.628498 -0.835437 5.339525 0
M  V30 38 H 4.883841 -0.569865 5.592727 0
M  V30 39 H 5.874481 0.830161 5.159981 0
M  V30 40 H 6.822852 1.120706 2.928027 0
M  V30 41 H 6.733583 -0.258360 1.702024 0
M  V30 42 H 7.595172 -0.439297 3.249684 0
M  V30 43 H 3.693537 0.683178 3.778135 0
M  V30 44 H 3.240801 2.805551 2.081186 0
M  V30 45 H -1.820661 2.554749 0.118864 0
M  V30 46 H -3.870294 1.969388 -0.828456 0
M  V30 47 H -2.978277 0.735853 -1.706338 0
M  V30 48 H -3.548374 -0.890515 0.239226 0
M  V30 49 H -4.987132 0.172769 1.938026 0
M  V30 50 H -4.433833 1.721933 1.354354 0
M  V30 51 H -5.971080 -0.736314 0.036859 0
M  V30 52 H -5.855056 0.932117 -0.549929 0
M  V30 53 H -5.022559 1.409025 -2.858044 0
M  V30 54 H -4.731145 0.647053 -5.141445 0
M  V30 55 H -4.672408 -1.704723 -5.625265 0
M  V30 56 H -4.903635 -3.341920 -3.832940 0
M  V30 57 H -5.208758 -2.602536 -1.441837 0
M  V30 58 H 1.799418 -3.453686 0.508564 0
M  V30 59 H 1.631340 -5.821608 0.046374 0
M  V30 60 H -2.233233 -5.237253 -1.378605 0
M  V30 61 H -2.170113 -2.777195 -0.942390 0
M  V30 END ATOM
M  V30 BEGIN BOND
M  V30 1 1 1 2
M  V30 2 1 2 3
M  V30 3 1 2 4
M  V30 4 1 2 5
M  V30 5 1 5 6
M  V30 6 2 6 7
M  V30 7 1 6 8
M  V30 8 2 8 9
M  V30 9 1 9 10
M  V30 10 1 10 11
M  V30 11 2 11 12
M  V30 12 1 12 13
M  V30 13 1 13 14
M  V30 14 1 14 15
M  V30 15 1 15 16
M  V30 16 1 15 17
M  V30 17 1 17 18
M  V30 18 2 18 19
M  V30 19 1 19 20
M  V30 20 2 20 21
M  V30 21 1 21 22
M  V30 22 2 22 23
M  V30 23 1 12 24
M  V30 24 2 24 25
M  V30 25 1 25 26
M  V30 26 2 26 27
M  V30 27 1 27 28
M  V30 28 2 28 29
M  V30 29 1 29 30
M  V30 30 2 30 31
M  V30 31 1 25 32
M  V30 32 2 32 33
M  V30 33 1 33 8
M  V30 34 1 33 11
M  V30 35 1 23 18
M  V30 36 1 31 26
M  V30 37 1 1 34
M  V30 38 1 1 35
M  V30 39 1 1 36
M  V30 40 1 3 37
M  V30 41 1 3 38
M  V30 42 1 3 39
M  V30 43 1 4 40
M  V30 44 1 4 41
M  V30 45 1 4 42
M  V30 46 1 5 43
M  V30 47 1 9 44
M  V30 48 1 13 45
M  V30 49 1 14 46
M  V30 50 1 14 47
M  V30 51 1 15 48 CFG=1
M  V30 52 1 16 49
M  V30 53 1 16 50
M  V30 54 1 17 51
M  V30 55 1 17 52
M  V30 56 1 19 53
M  V30 57 1 20 54
M  V30 58 1 21 55
M  V30 59 1 22 56
M  V30 60 1 23 57
M  V30 61 1 27 58
M  V30 62 1 28 59
M  V30 63 1 30 60
M  V30 64 1 31 61
M  V30 END BOND
M  V30 END CTAB
M  END
>  <Dataset>  (811) 
ChEMBL_Kinases

>  <Ligand_Instance>  (811) 
nan

>  <PDB_ID>  (811) 
nan

>  <Standardized_SMILES>  (811) 
CC(C)(C)NC(=O)c1csc2c(NC[C@@H](N)Cc3ccccc3)nc(-c3ccncc3)nc12

>  <Name>  (811) 
nan

>  <Pocket>  (811) 
nan

>  <ATP_Site>  (811) 
nan

>  <Peripheral>  (811) 
nan

>  <Num_H_Atoms_ProtBoundConf>  (811) 
nan

>  <Num_Resolved_Atoms>  (811) 
nan

>  <Num_Not_Resolved_Atoms>  (811) 
nan

$$$$
CHEMBL3728993
     RDKit          3D

  0  0  0  0  0  0  0  0  0  0999 V3000
M  V30 BEGIN CTAB
M  V30 COUNTS 55 59 0 0 0
M  V30 BEGIN ATOM
M  V30 1 C 5.680870 -0.022076 3.732180 0
M  V30 2 N 5.118657 -1.306933 3.369011 0
M  V30 3 N 5.786897 -2.445524 3.530331 0
M  V30 4 C 5.061275 -3.484013 3.126842 0
M  V30 5 C 3.900685 -2.871107 2.709666 0
M  V30 6 C 3.917944 -1.503643 2.853965 0
M  V30 7 C 2.825504 -0.646206 2.491081 0
M  V30 8 C 3.020628 0.729985 2.706780 0
M  V30 9 S 1.399057 1.517950 2.123603 0
M  V30 10 C 0.696735 -0.019804 1.685088 0
M  V30 11 C -0.552787 -0.278436 1.150328 0
M  V30 12 N -1.400589 0.834180 0.914826 0
M  V30 13 C -2.696206 0.518263 0.355844 0
M  V30 14 C -3.525092 1.780131 0.151756 0 CFG=1
M  V30 15 N -3.692959 2.405949 1.445682 0
M  V30 16 C -2.795406 2.728438 -0.780435 0
M  V30 17 C -2.553581 2.117048 -2.104819 0
M  V30 18 C -1.465546 1.385486 -2.509616 0
M  V30 19 C -1.385333 0.875609 -3.791784 0
M  V30 20 C -2.378493 1.066388 -4.732466 0
M  V30 21 C -3.478287 1.794340 -4.354977 0
M  V30 22 C -3.548686 2.299257 -3.071934 0
M  V30 23 N -0.897666 -1.546895 0.884479 0
M  V30 24 C 0.019705 -2.502440 1.163938 0
M  V30 25 C -0.374125 -3.871090 0.868260 0
M  V30 26 C -1.608304 -4.147404 0.337997 0
M  V30 27 C -2.038353 -5.402159 0.038801 0
M  V30 28 N -1.242785 -6.464824 0.258060 0
M  V30 29 C 0.004553 -6.291564 0.783503 0
M  V30 30 C 0.387953 -5.001069 1.067219 0
M  V30 31 N 1.212156 -2.205751 1.679207 0
M  V30 32 C 1.615054 -0.961545 1.966316 0
M  V30 33 H 5.104744 0.515259 4.511977 0
M  V30 34 H 6.692021 -0.162903 4.210883 0
M  V30 35 H 5.768261 0.619685 2.838259 0
M  V30 36 H 5.318799 -4.530766 3.128016 0
M  V30 37 H 3.088922 -3.501870 2.311529 0
M  V30 38 H 3.684506 1.540177 3.057012 0
M  V30 39 H -1.140072 1.799770 1.115407 0
M  V30 40 H -2.507194 0.103251 -0.674986 0
M  V30 41 H -3.251057 -0.249975 0.893904 0
M  V30 42 H -4.522318 1.533660 -0.213327 0
M  V30 43 H -2.912510 2.093485 2.061169 0
M  V30 44 H -3.570113 3.434470 1.314038 0
M  V30 45 H -1.821345 3.032735 -0.355418 0
M  V30 46 H -3.438090 3.624989 -0.897029 0
M  V30 47 H -0.699576 1.246621 -1.762416 0
M  V30 48 H -0.509313 0.305154 -4.066686 0
M  V30 49 H -2.329570 0.675965 -5.732657 0
M  V30 50 H -4.288540 1.973774 -5.057099 0
M  V30 51 H -4.446229 2.870386 -2.826925 0
M  V30 52 H -2.313939 -3.346166 0.129571 0
M  V30 53 H -3.008651 -5.586348 -0.374816 0
M  V30 54 H 0.657999 -7.123959 0.967584 0
M  V30 55 H 1.374870 -4.888872 1.480523 0
M  V30 END ATOM
M  V30 BEGIN BOND
M  V30 1 1 1 2
M  V30 2 1 2 3
M  V30 3 2 3 4
M  V30 4 1 4 5
M  V30 5 2 5 6
M  V30 6 1 6 7
M  V30 7 2 7 8
M  V30 8 1 8 9
M  V30 9 1 9 10
M  V30 10 2 10 11
M  V30 11 1 11 12
M  V30 12 1 12 13
M  V30 13 1 13 14
M  V30 14 1 14 15
M  V30 15 1 14 16
M  V30 16 1 16 17
M  V30 17 2 17 18
M  V30 18 1 18 19
M  V30 19 2 19 20
M  V30 20 1 20 21
M  V30 21 2 21 22
M  V30 22 1 11 23
M  V30 23 2 23 24
M  V30 24 1 24 25
M  V30 25 2 25 26
M  V30 26 1 26 27
M  V30 27 2 27 28
M  V30 28 1 28 29
M  V30 29 2 29 30
M  V30 30 1 24 31
M  V30 31 2 31 32
M  V30 32 1 6 2
M  V30 33 1 32 7
M  V30 34 1 32 10
M  V30 35 1 22 17
M  V30 36 1 30 25
M  V30 37 1 1 33
M  V30 38 1 1 34
M  V30 39 1 1 35
M  V30 40 1 4 36
M  V30 41 1 5 37
M  V30 42 1 8 38
M  V30 43 1 12 39
M  V30 44 1 13 40
M  V30 45 1 13 41
M  V30 46 1 14 42 CFG=3
M  V30 47 1 15 43
M  V30 48 1 15 44
M  V30 49 1 16 45
M  V30 50 1 16 46
M  V30 51 1 18 47
M  V30 52 1 19 48
M  V30 53 1 20 49
M  V30 54 1 21 50
M  V30 55 1 22 51
M  V30 56 1 26 52
M  V30 57 1 27 53
M  V30 58 1 29 54
M  V30 59 1 30 55
M  V30 END BOND
M  V30 END CTAB
M  END
>  <Dataset>  (812) 
ChEMBL_Kinases

>  <Ligand_Instance>  (812) 
nan

>  <PDB_ID>  (812) 
nan

>  <Standardized_SMILES>  (812) 
Cn1nccc1-c1csc2c(NC[C@@H](N)Cc3ccccc3)nc(-c3ccncc3)nc12

>  <Name>  (812) 
nan

>  <Pocket>  (812) 
nan

>  <ATP_Site>  (812) 
nan

>  <Peripheral>  (812) 
nan

>  <Num_H_Atoms_ProtBoundConf>  (812) 
nan

>  <Num_Resolved_Atoms>  (812) 
nan

>  <Num_Not_Resolved_Atoms>  (812) 
nan

$$$$
CHEMBL3728988
     RDKit          3D

  0  0  0  0  0  0  0  0  0  0999 V3000
M  V30 BEGIN CTAB
M  V30 COUNTS 58 62 0 0 0
M  V30 BEGIN ATOM
M  V30 1 N -1.979453 -2.746164 2.991995 0
M  V30 2 C -0.530318 -2.831673 3.028892 0 CFG=2
M  V30 3 C 0.133946 -1.551659 2.678896 0
M  V30 4 N -0.190791 -1.017379 1.381107 0
M  V30 5 C 0.538810 0.132363 0.907424 0
M  V30 6 N 1.439137 0.615935 1.755218 0
M  V30 7 C 2.225999 1.666137 1.604189 0
M  V30 8 C 3.172878 2.085883 2.621670 0
M  V30 9 C 3.934516 3.204723 2.332120 0
M  V30 10 C 4.835992 3.595201 3.314439 0
M  V30 11 N 4.942085 2.909846 4.467801 0
M  V30 12 C 4.178251 1.818658 4.714358 0
M  V30 13 C 3.245132 1.351478 3.786888 0
M  V30 14 N 2.059340 2.289727 0.434409 0
M  V30 15 C 1.168152 1.839463 -0.446078 0
M  V30 16 S 0.757910 2.492011 -2.037476 0
M  V30 17 C -0.496414 1.274450 -2.438282 0
M  V30 18 C -0.522918 0.426776 -1.306839 0
M  V30 19 C 0.344879 0.747781 -0.300751 0
M  V30 20 C -1.495202 -0.668615 -1.447345 0
M  V30 21 C -2.904318 -0.117740 -1.233037 0
M  V30 22 C -3.225197 0.954238 -2.250044 0
M  V30 23 C -2.606281 0.739082 -3.593918 0
M  V30 24 C -1.219779 1.357659 -3.724327 0
M  V30 25 C 0.052247 -4.010234 2.331141 0
M  V30 26 C -0.226717 -4.134764 0.890858 0
M  V30 27 C 0.534822 -3.687090 -0.194758 0
M  V30 28 C 0.122496 -3.898802 -1.490311 0
M  V30 29 C -1.050514 -4.555973 -1.791927 0
M  V30 30 C -1.801370 -4.996875 -0.730937 0
M  V30 31 C -1.416764 -4.801164 0.577475 0
M  V30 32 H -2.421228 -3.484858 3.588740 0
M  V30 33 H -2.287447 -2.934393 2.024073 0
M  V30 34 H -0.333545 -3.011376 4.155905 0
M  V30 35 H -0.206889 -0.759486 3.417132 0
M  V30 36 H 1.238424 -1.575333 2.837214 0
M  V30 37 H -0.939476 -1.671482 1.160162 0
M  V30 38 H 3.813639 3.724624 1.388289 0
M  V30 39 H 5.452905 4.482227 3.107458 0
M  V30 40 H 4.282878 1.282250 5.654169 0
M  V30 41 H 2.624788 0.486411 3.957238 0
M  V30 42 H -1.435440 -1.084670 -2.511560 0
M  V30 43 H -1.378701 -1.535255 -0.836891 0
M  V30 44 H -2.904688 0.346206 -0.224886 0
M  V30 45 H -3.613925 -0.954620 -1.224743 0
M  V30 46 H -4.339872 0.961132 -2.348488 0
M  V30 47 H -2.931647 1.962040 -1.901865 0
M  V30 48 H -2.631128 -0.301028 -3.962444 0
M  V30 49 H -3.254496 1.304452 -4.326536 0
M  V30 50 H -1.310092 2.404558 -4.072136 0
M  V30 51 H -0.681033 0.792230 -4.499729 0
M  V30 52 H 1.175568 -3.932064 2.490141 0
M  V30 53 H -0.304868 -4.942961 2.863943 0
M  V30 54 H 1.442906 -3.179248 0.113744 0
M  V30 55 H 0.808993 -3.499085 -2.249219 0
M  V30 56 H -1.284976 -4.671418 -2.838577 0
M  V30 57 H -2.724226 -5.513087 -1.006694 0
M  V30 58 H -2.132373 -5.216897 1.299979 0
M  V30 END ATOM
M  V30 BEGIN BOND
M  V30 1 1 1 2
M  V30 2 1 2 3
M  V30 3 1 3 4
M  V30 4 1 4 5
M  V30 5 2 5 6
M  V30 6 1 6 7
M  V30 7 1 7 8
M  V30 8 2 8 9
M  V30 9 1 9 10
M  V30 10 2 10 11
M  V30 11 1 11 12
M  V30 12 2 12 13
M  V30 13 2 7 14
M  V30 14 1 14 15
M  V30 15 1 15 16
M  V30 16 1 16 17
M  V30 17 2 17 18
M  V30 18 1 18 19
M  V30 19 1 18 20
M  V30 20 1 20 21
M  V30 21 1 21 22
M  V30 22 1 22 23
M  V30 23 1 23 24
M  V30 24 1 2 25
M  V30 25 1 25 26
M  V30 26 2 26 27
M  V30 27 1 27 28
M  V30 28 2 28 29
M  V30 29 1 29 30
M  V30 30 2 30 31
M  V30 31 1 19 5
M  V30 32 1 31 26
M  V30 33 1 13 8
M  V30 34 2 19 15
M  V30 35 1 24 17
M  V30 36 1 1 32
M  V30 37 1 1 33
M  V30 38 1 2 34 CFG=1
M  V30 39 1 3 35
M  V30 40 1 3 36
M  V30 41 1 4 37
M  V30 42 1 9 38
M  V30 43 1 10 39
M  V30 44 1 12 40
M  V30 45 1 13 41
M  V30 46 1 20 42
M  V30 47 1 20 43
M  V30 48 1 21 44
M  V30 49 1 21 45
M  V30 50 1 22 46
M  V30 51 1 22 47
M  V30 52 1 23 48
M  V30 53 1 23 49
M  V30 54 1 24 50
M  V30 55 1 24 51
M  V30 56 1 25 52
M  V30 57 1 25 53
M  V30 58 1 27 54
M  V30 59 1 28 55
M  V30 60 1 29 56
M  V30 61 1 30 57
M  V30 62 1 31 58
M  V30 END BOND
M  V30 END CTAB
M  END
>  <Dataset>  (813) 
ChEMBL_Kinases

>  <Ligand_Instance>  (813) 
nan

>  <PDB_ID>  (813) 
nan

>  <Standardized_SMILES>  (813) 
N[C@H](CNc1nc(-c2ccncc2)nc2sc3c(c12)CCCCC3)Cc1ccccc1

>  <Name>  (813) 
nan

>  <Pocket>  (813) 
nan

>  <ATP_Site>  (813) 
nan

>  <Peripheral>  (813) 
nan

>  <Num_H_Atoms_ProtBoundConf>  (813) 
nan

>  <Num_Resolved_Atoms>  (813) 
nan

>  <Num_Not_Resolved_Atoms>  (813) 
nan

$$$$
CHEMBL3728978
     RDKit          3D

  0  0  0  0  0  0  0  0  0  0999 V3000
M  V30 BEGIN CTAB
M  V30 COUNTS 59 63 0 0 0
M  V30 BEGIN ATOM
M  V30 1 C 4.553441 1.389710 5.753001 0
M  V30 2 O 4.968117 0.681448 4.564661 0
M  V30 3 C 4.323357 0.942278 3.390371 0
M  V30 4 C 4.780106 0.235276 2.263810 0
M  V30 5 C 4.180317 0.422107 0.980647 0
M  V30 6 C 3.169187 1.252809 0.709410 0
M  V30 7 C 2.388636 1.702181 -0.430535 0
M  V30 8 C 1.184885 0.850625 -0.806599 0 CFG=2
M  V30 9 N 0.485261 1.491985 -1.904565 0
M  V30 10 C 0.263985 0.561050 0.313240 0
M  V30 11 N -0.935149 -0.177949 0.040000 0
M  V30 12 C -1.466434 -1.448416 -0.120135 0
M  V30 13 N -2.741782 -0.803632 0.015058 0
M  V30 14 C -3.969254 -1.275714 -0.010116 0
M  V30 15 C -5.258603 -0.551136 0.149337 0
M  V30 16 C -6.471055 -1.119217 0.201985 0
M  V30 17 C -7.495278 -0.220578 0.398644 0
M  V30 18 N -7.285852 1.074712 0.523107 0
M  V30 19 C -6.106686 1.661284 0.474516 0
M  V30 20 C -5.013968 0.795889 0.273984 0
M  V30 21 N -4.115455 -2.581265 -0.189806 0
M  V30 22 C -3.062923 -3.383940 -0.341199 0
M  V30 23 S -2.536776 -5.011386 -0.619332 0
M  V30 24 C -0.784338 -4.692122 -0.648345 0
M  V30 25 C -0.649014 -3.256331 -0.427779 0
M  V30 26 C -1.981217 -2.639741 -0.272763 0
M  V30 27 C 0.861708 -3.141891 -0.469491 0
M  V30 28 C 1.323703 -3.586460 -1.816537 0
M  V30 29 C 1.253240 -5.088733 -1.987368 0
M  V30 30 C 0.342241 -5.677736 -0.894573 0
M  V30 31 C 2.711155 1.960776 1.847833 0
M  V30 32 C 3.239586 1.821089 3.093049 0
M  V30 33 H 3.452526 1.505503 5.790098 0
M  V30 34 H 4.897888 0.784505 6.627713 0
M  V30 35 H 5.010322 2.408379 5.763688 0
M  V30 36 H 5.596745 -0.476035 2.327512 0
M  V30 37 H 4.468643 -0.095620 0.077264 0
M  V30 38 H 1.999409 2.749347 -0.367592 0
M  V30 39 H 3.099568 1.698113 -1.321721 0
M  V30 40 H 1.564919 -0.148700 -1.215305 0
M  V30 41 H 0.628214 2.541704 -1.807987 0
M  V30 42 H 0.838985 1.154519 -2.807826 0
M  V30 43 H 0.156035 1.383214 1.060196 0
M  V30 44 H 0.847201 -0.213615 0.995711 0
M  V30 45 H -1.134596 0.807801 -0.039308 0
M  V30 46 H -6.495411 -2.197926 0.082469 0
M  V30 47 H -8.494844 -0.677646 0.445401 0
M  V30 48 H -6.000905 2.740295 0.596442 0
M  V30 49 H -4.062992 1.334863 0.242240 0
M  V30 50 H 1.214434 -2.143739 -0.205413 0
M  V30 51 H 1.267321 -3.829772 0.353042 0
M  V30 52 H 0.662822 -3.069673 -2.574008 0
M  V30 53 H 2.384251 -3.254160 -1.963216 0
M  V30 54 H 0.738734 -5.302137 -2.937254 0
M  V30 55 H 2.213580 -5.584870 -1.858592 0
M  V30 56 H -0.076920 -6.592130 -1.300759 0
M  V30 57 H 0.880612 -5.756556 0.061795 0
M  V30 58 H 1.905329 2.702599 1.909096 0
M  V30 59 H 2.951859 2.329827 4.022354 0
M  V30 END ATOM
M  V30 BEGIN BOND
M  V30 1 1 1 2
M  V30 2 1 2 3
M  V30 3 2 3 4
M  V30 4 1 4 5
M  V30 5 2 5 6
M  V30 6 1 6 7
M  V30 7 1 7 8
M  V30 8 1 8 9
M  V30 9 1 8 10
M  V30 10 1 10 11
M  V30 11 1 11 12
M  V30 12 2 12 13
M  V30 13 1 13 14
M  V30 14 1 14 15
M  V30 15 2 15 16
M  V30 16 1 16 17
M  V30 17 2 17 18
M  V30 18 1 18 19
M  V30 19 2 19 20
M  V30 20 2 14 21
M  V30 21 1 21 22
M  V30 22 1 22 23
M  V30 23 1 23 24
M  V30 24 2 24 25
M  V30 25 1 25 26
M  V30 26 1 25 27
M  V30 27 1 27 28
M  V30 28 1 28 29
M  V30 29 1 29 30
M  V30 30 1 6 31
M  V30 31 2 31 32
M  V30 32 1 32 3
M  V30 33 1 26 12
M  V30 34 1 20 15
M  V30 35 2 26 22
M  V30 36 1 30 24
M  V30 37 1 1 33
M  V30 38 1 1 34
M  V30 39 1 1 35
M  V30 40 1 4 36
M  V30 41 1 5 37
M  V30 42 1 7 38
M  V30 43 1 7 39
M  V30 44 1 8 40 CFG=3
M  V30 45 1 9 41
M  V30 46 1 9 42
M  V30 47 1 10 43
M  V30 48 1 10 44
M  V30 49 1 11 45
M  V30 50 1 16 46
M  V30 51 1 17 47
M  V30 52 1 19 48
M  V30 53 1 20 49
M  V30 54 1 27 50
M  V30 55 1 27 51
M  V30 56 1 28 52
M  V30 57 1 28 53
M  V30 58 1 29 54
M  V30 59 1 29 55
M  V30 60 1 30 56
M  V30 61 1 30 57
M  V30 62 1 31 58
M  V30 63 1 32 59
M  V30 END BOND
M  V30 END CTAB
M  END
>  <Dataset>  (814) 
ChEMBL_Kinases

>  <Ligand_Instance>  (814) 
nan

>  <PDB_ID>  (814) 
nan

>  <Standardized_SMILES>  (814) 
COc1ccc(C[C@H](N)CNc2nc(-c3ccncc3)nc3sc4c(c23)CCCC4)cc1

>  <Name>  (814) 
nan

>  <Pocket>  (814) 
nan

>  <ATP_Site>  (814) 
nan

>  <Peripheral>  (814) 
nan

>  <Num_H_Atoms_ProtBoundConf>  (814) 
nan

>  <Num_Resolved_Atoms>  (814) 
nan

>  <Num_Not_Resolved_Atoms>  (814) 
nan

$$$$
CHEMBL574005
     RDKit          3D

  0  0  0  0  0  0  0  0  0  0999 V3000
M  V30 BEGIN CTAB
M  V30 COUNTS 51 54 0 0 0
M  V30 BEGIN ATOM
M  V30 1 C 4.199318 -3.577307 2.326262 0
M  V30 2 O 4.377806 -2.323452 1.702708 0
M  V30 3 C 3.262519 -1.574133 1.350368 0
M  V30 4 C 2.022251 -2.132463 1.647558 0
M  V30 5 C 0.865749 -1.449943 1.328914 0
M  V30 6 C 0.983377 -0.220843 0.718108 0
M  V30 7 C 2.206419 0.330849 0.424322 0
M  V30 8 C 3.376937 -0.321384 0.728184 0
M  V30 9 O 4.673631 0.037123 0.530972 0
M  V30 10 C 5.260933 1.151471 -0.012432 0
M  V30 11 C 4.977480 2.449582 0.705691 0
M  V30 12 O 5.427135 2.382639 2.041273 0
M  V30 13 C 5.806573 3.587083 0.088354 0
M  V30 14 O 5.493257 4.719540 0.849331 0
M  V30 15 C -0.371766 0.295424 0.485032 0
M  V30 16 C -1.225703 -0.765130 1.023870 0
M  V30 17 C -2.560755 -1.118325 1.220723 0
M  V30 18 N -3.762594 -0.443861 0.905053 0
M  V30 19 C -5.180925 -0.481563 0.946965 0
M  V30 20 C -5.834418 -1.589410 0.204370 0
M  V30 21 C -6.076158 -2.891454 0.570270 0
M  V30 22 Cl -5.643218 -3.333834 2.203632 0
M  V30 23 C -6.660095 -3.832083 -0.246940 0
M  V30 24 C -7.044905 -3.493320 -1.520790 0
M  V30 25 C -6.846506 -2.227396 -1.968790 0
M  V30 26 C -6.257215 -1.327000 -1.108640 0
M  V30 27 Cl -6.027046 0.308531 -1.754625 0
M  V30 28 N -2.542301 -2.317289 1.814581 0
M  V30 29 N -1.334740 -2.782851 2.025515 0
M  V30 30 C -0.528172 -1.831098 1.540674 0
M  V30 31 H 3.588477 -3.523774 3.255027 0
M  V30 32 H 5.174499 -4.080123 2.518935 0
M  V30 33 H 3.583474 -4.188900 1.604093 0
M  V30 34 H 1.937432 -3.103575 2.129907 0
M  V30 35 H 2.309582 1.286128 -0.060016 0
M  V30 36 H 5.048690 1.262576 -1.115577 0
M  V30 37 H 6.379821 1.033897 0.015446 0
M  V30 38 H 3.943688 2.787347 0.645296 0
M  V30 39 H 6.407384 2.527238 2.026548 0
M  V30 40 H 6.872096 3.338451 0.221279 0
M  V30 41 H 5.474428 3.684325 -0.950832 0
M  V30 42 H 4.641854 5.125451 0.595964 0
M  V30 43 H -0.454277 1.254627 1.073959 0
M  V30 44 H -0.588784 0.589734 -0.553654 0
M  V30 45 H -3.499228 0.487018 0.436180 0
M  V30 46 H -5.475377 -0.590739 2.051704 0
M  V30 47 H -5.655217 0.445722 0.562067 0
M  V30 48 H -6.799375 -4.824611 0.147311 0
M  V30 49 H -7.501749 -4.246585 -2.146922 0
M  V30 50 H -7.142122 -1.939977 -2.967300 0
M  V30 51 H -1.034461 -3.679039 2.464731 0
M  V30 END ATOM
M  V30 BEGIN BOND
M  V30 1 1 1 2
M  V30 2 1 2 3
M  V30 3 2 3 4
M  V30 4 1 4 5
M  V30 5 2 5 6
M  V30 6 1 6 7
M  V30 7 2 7 8
M  V30 8 1 8 9
M  V30 9 1 9 10
M  V30 10 1 10 11
M  V30 11 1 11 12
M  V30 12 1 11 13
M  V30 13 1 13 14
M  V30 14 1 6 15
M  V30 15 1 15 16
M  V30 16 1 16 17
M  V30 17 1 17 18
M  V30 18 1 18 19
M  V30 19 1 19 20
M  V30 20 2 20 21
M  V30 21 1 21 22
M  V30 22 1 21 23
M  V30 23 2 23 24
M  V30 24 1 24 25
M  V30 25 2 25 26
M  V30 26 1 26 27
M  V30 27 2 17 28
M  V30 28 1 28 29
M  V30 29 1 29 30
M  V30 30 1 8 3
M  V30 31 2 30 16
M  V30 32 1 30 5
M  V30 33 1 26 20
M  V30 34 1 1 31
M  V30 35 1 1 32
M  V30 36 1 1 33
M  V30 37 1 4 34
M  V30 38 1 7 35
M  V30 39 1 10 36
M  V30 40 1 10 37
M  V30 41 1 11 38
M  V30 42 1 12 39
M  V30 43 1 13 40
M  V30 44 1 13 41
M  V30 45 1 14 42
M  V30 46 1 15 43
M  V30 47 1 15 44
M  V30 48 1 18 45
M  V30 49 1 19 46
M  V30 50 1 19 47
M  V30 51 1 23 48
M  V30 52 1 24 49
M  V30 53 1 25 50
M  V30 54 1 29 51
M  V30 END BOND
M  V30 END CTAB
M  END
>  <Dataset>  (815) 
ChEMBL_Kinases

>  <Ligand_Instance>  (815) 
nan

>  <PDB_ID>  (815) 
nan

>  <Standardized_SMILES>  (815) 
COc1cc2c(cc1OCC(O)CO)Cc1c(NCc3c(Cl)cccc3Cl)n[nH]c1-2

>  <Name>  (815) 
nan

>  <Pocket>  (815) 
nan

>  <ATP_Site>  (815) 
nan

>  <Peripheral>  (815) 
nan

>  <Num_H_Atoms_ProtBoundConf>  (815) 
nan

>  <Num_Resolved_Atoms>  (815) 
nan

>  <Num_Not_Resolved_Atoms>  (815) 
nan

$$$$
CHEMBL3728973
     RDKit          3D

  0  0  0  0  0  0  0  0  0  0999 V3000
M  V30 BEGIN CTAB
M  V30 COUNTS 49 53 0 0 0
M  V30 BEGIN ATOM
M  V30 1 C 3.617718 -5.001607 1.010328 0
M  V30 2 C 2.669172 -3.996657 0.936236 0
M  V30 3 C 1.317639 -4.198392 0.740877 0
M  V30 4 C 0.407990 -3.062309 0.679328 0
M  V30 5 N 0.763406 -1.775755 0.798461 0
M  V30 6 C -0.062133 -0.723239 0.743874 0
M  V30 7 N 0.663391 0.491674 0.878487 0
M  V30 8 C 0.829821 1.499213 -0.160927 0
M  V30 9 C 2.229855 1.669844 -0.631900 0
M  V30 10 C 3.208038 0.653252 -0.115916 0
M  V30 11 N 3.518860 0.954346 1.249889 0
M  V30 12 C 2.704102 0.272490 2.219211 0
M  V30 13 C 1.270094 0.691665 2.186079 0
M  V30 14 C -1.409431 -0.932648 0.549858 0
M  V30 15 C -2.355591 0.054164 0.477082 0
M  V30 16 C -3.671231 -0.389215 0.272021 0
M  V30 17 S -3.501724 -2.158483 0.196062 0
M  V30 18 C -1.780420 -2.245679 0.426546 0
M  V30 19 N -0.906387 -3.264585 0.489125 0
M  V30 20 C -4.940009 0.312094 0.133193 0
M  V30 21 C -4.704160 1.781084 0.229030 0
M  V30 22 C -3.623082 2.008993 1.230944 0
M  V30 23 C -2.322295 1.537292 0.587229 0
M  V30 24 C 0.872429 -5.498050 0.608740 0
M  V30 25 C 1.840440 -6.478018 0.686857 0
M  V30 26 N 3.150064 -6.252185 0.877828 0
M  V30 27 H 4.658579 -4.762096 1.165415 0
M  V30 28 H 3.009037 -2.961148 1.039490 0
M  V30 29 H 0.110168 1.266101 -0.980428 0
M  V30 30 H 0.504934 2.466783 0.272773 0
M  V30 31 H 2.205010 1.579272 -1.757501 0
M  V30 32 H 2.665280 2.672586 -0.450792 0
M  V30 33 H 4.155912 0.812524 -0.708713 0
M  V30 34 H 2.930379 -0.387950 -0.304169 0
M  V30 35 H 3.531549 1.977027 1.392300 0
M  V30 36 H 2.872346 -0.800087 2.119254 0
M  V30 37 H 3.100555 0.559790 3.216993 0
M  V30 38 H 0.708587 0.081559 2.919311 0
M  V30 39 H 1.184543 1.735062 2.533437 0
M  V30 40 H -5.709789 -0.021939 0.884062 0
M  V30 41 H -5.383897 0.070086 -0.853961 0
M  V30 42 H -4.508666 2.238187 -0.760775 0
M  V30 43 H -5.638055 2.249667 0.610932 0
M  V30 44 H -3.513733 3.078940 1.429954 0
M  V30 45 H -3.822302 1.389874 2.112937 0
M  V30 46 H -1.546571 1.859924 1.351916 0
M  V30 47 H -2.083158 2.065509 -0.329925 0
M  V30 48 H -0.174955 -5.704021 0.454614 0
M  V30 49 H 1.550597 -7.522389 0.589934 0
M  V30 END ATOM
M  V30 BEGIN BOND
M  V30 1 2 1 2
M  V30 2 1 2 3
M  V30 3 1 3 4
M  V30 4 2 4 5
M  V30 5 1 5 6
M  V30 6 1 6 7
M  V30 7 1 7 8
M  V30 8 1 8 9
M  V30 9 1 9 10
M  V30 10 1 10 11
M  V30 11 1 11 12
M  V30 12 1 12 13
M  V30 13 2 6 14
M  V30 14 1 14 15
M  V30 15 2 15 16
M  V30 16 1 16 17
M  V30 17 1 17 18
M  V30 18 2 18 19
M  V30 19 1 16 20
M  V30 20 1 20 21
M  V30 21 1 21 22
M  V30 22 1 22 23
M  V30 23 2 3 24
M  V30 24 1 24 25
M  V30 25 2 25 26
M  V30 26 1 26 1
M  V30 27 1 19 4
M  V30 28 1 13 7
M  V30 29 1 18 14
M  V30 30 1 23 15
M  V30 31 1 1 27
M  V30 32 1 2 28
M  V30 33 1 8 29
M  V30 34 1 8 30
M  V30 35 1 9 31
M  V30 36 1 9 32
M  V30 37 1 10 33
M  V30 38 1 10 34
M  V30 39 1 11 35
M  V30 40 1 12 36
M  V30 41 1 12 37
M  V30 42 1 13 38
M  V30 43 1 13 39
M  V30 44 1 20 40
M  V30 45 1 20 41
M  V30 46 1 21 42
M  V30 47 1 21 43
M  V30 48 1 22 44
M  V30 49 1 22 45
M  V30 50 1 23 46
M  V30 51 1 23 47
M  V30 52 1 24 48
M  V30 53 1 25 49
M  V30 END BOND
M  V30 END CTAB
M  END
>  <Dataset>  (816) 
ChEMBL_Kinases

>  <Ligand_Instance>  (816) 
nan

>  <PDB_ID>  (816) 
nan

>  <Standardized_SMILES>  (816) 
c1cc(-c2nc(N3CCCNCC3)c3c4c(sc3n2)CCCC4)ccn1

>  <Name>  (816) 
nan

>  <Pocket>  (816) 
nan

>  <ATP_Site>  (816) 
nan

>  <Peripheral>  (816) 
nan

>  <Num_H_Atoms_ProtBoundConf>  (816) 
nan

>  <Num_Resolved_Atoms>  (816) 
nan

>  <Num_Not_Resolved_Atoms>  (816) 
nan

$$$$
CHEMBL3728970
     RDKit          3D

  0  0  0  0  0  0  0  0  0  0999 V3000
M  V30 BEGIN CTAB
M  V30 COUNTS 45 48 0 0 0
M  V30 BEGIN ATOM
M  V30 1 C -0.285033 -3.099261 2.217713 0
M  V30 2 N -0.095579 -2.159536 1.096842 0
M  V30 3 C -0.677874 -2.836243 -0.037741 0
M  V30 4 C -0.594891 -2.049623 -1.322902 0
M  V30 5 N -1.229287 -2.866961 -2.369385 0
M  V30 6 C 0.460248 -0.878498 0.880045 0
M  V30 7 N 1.624737 -1.004676 0.258280 0
M  V30 8 C 2.464737 -0.018653 -0.081491 0
M  V30 9 C 3.743040 -0.167640 -0.765182 0
M  V30 10 C 4.499105 0.948981 -1.047763 0
M  V30 11 C 5.702541 0.810081 -1.691232 0
M  V30 12 N 6.145984 -0.429728 -2.048477 0
M  V30 13 C 5.370635 -1.503513 -1.751484 0
M  V30 14 C 4.163509 -1.438551 -1.113559 0
M  V30 15 N 2.034971 1.204815 0.266768 0
M  V30 16 C 0.859699 1.399171 0.900216 0
M  V30 17 S 0.017138 2.873083 1.481484 0
M  V30 18 C -1.426267 2.005312 2.143102 0
M  V30 19 C -1.157923 0.623770 1.868044 0
M  V30 20 C 0.012446 0.364357 1.238161 0
M  V30 21 C -2.341104 -0.086757 2.388338 0
M  V30 22 C -2.593036 0.237898 3.842424 0
M  V30 23 C -3.000643 1.684125 4.025101 0
M  V30 24 C -2.616225 2.514376 2.815022 0
M  V30 25 H -0.001950 -2.580895 3.179280 0
M  V30 26 H -1.345056 -3.373841 2.359173 0
M  V30 27 H 0.283073 -4.035128 2.064631 0
M  V30 28 H -1.759112 -3.029112 0.156979 0
M  V30 29 H -0.220495 -3.818815 -0.236538 0
M  V30 30 H -1.189644 -1.117752 -1.300509 0
M  V30 31 H 0.433673 -1.788236 -1.626261 0
M  V30 32 H -1.046724 -2.402438 -3.304867 0
M  V30 33 H -2.255309 -2.912537 -2.212607 0
M  V30 34 H 4.201955 1.955117 -0.790664 0
M  V30 35 H 6.331339 1.668206 -1.933374 0
M  V30 36 H 5.730420 -2.489721 -2.039333 0
M  V30 37 H 3.594512 -2.331518 -0.906223 0
M  V30 38 H -3.235294 0.311798 1.831462 0
M  V30 39 H -2.260056 -1.165218 2.311598 0
M  V30 40 H -3.441007 -0.389475 4.176576 0
M  V30 41 H -1.709765 -0.057028 4.438381 0
M  V30 42 H -2.452292 2.080773 4.897964 0
M  V30 43 H -4.084342 1.827109 4.187038 0
M  V30 44 H -2.376257 3.530671 3.182724 0
M  V30 45 H -3.449765 2.618708 2.092394 0
M  V30 END ATOM
M  V30 BEGIN BOND
M  V30 1 1 1 2
M  V30 2 1 2 3
M  V30 3 1 3 4
M  V30 4 1 4 5
M  V30 5 1 2 6
M  V30 6 2 6 7
M  V30 7 1 7 8
M  V30 8 1 8 9
M  V30 9 2 9 10
M  V30 10 1 10 11
M  V30 11 2 11 12
M  V30 12 1 12 13
M  V30 13 2 13 14
M  V30 14 2 8 15
M  V30 15 1 15 16
M  V30 16 1 16 17
M  V30 17 1 17 18
M  V30 18 2 18 19
M  V30 19 1 19 20
M  V30 20 1 19 21
M  V30 21 1 21 22
M  V30 22 1 22 23
M  V30 23 1 23 24
M  V30 24 1 20 6
M  V30 25 1 14 9
M  V30 26 2 20 16
M  V30 27 1 24 18
M  V30 28 1 1 25
M  V30 29 1 1 26
M  V30 30 1 1 27
M  V30 31 1 3 28
M  V30 32 1 3 29
M  V30 33 1 4 30
M  V30 34 1 4 31
M  V30 35 1 5 32
M  V30 36 1 5 33
M  V30 37 1 10 34
M  V30 38 1 11 35
M  V30 39 1 13 36
M  V30 40 1 14 37
M  V30 41 1 21 38
M  V30 42 1 21 39
M  V30 43 1 22 40
M  V30 44 1 22 41
M  V30 45 1 23 42
M  V30 46 1 23 43
M  V30 47 1 24 44
M  V30 48 1 24 45
M  V30 END BOND
M  V30 END CTAB
M  END
>  <Dataset>  (817) 
ChEMBL_Kinases

>  <Ligand_Instance>  (817) 
nan

>  <PDB_ID>  (817) 
nan

>  <Standardized_SMILES>  (817) 
CN(CCN)c1nc(-c2ccncc2)nc2sc3c(c12)CCCC3

>  <Name>  (817) 
nan

>  <Pocket>  (817) 
nan

>  <ATP_Site>  (817) 
nan

>  <Peripheral>  (817) 
nan

>  <Num_H_Atoms_ProtBoundConf>  (817) 
nan

>  <Num_Resolved_Atoms>  (817) 
nan

>  <Num_Not_Resolved_Atoms>  (817) 
nan

$$$$
CHEMBL3728968
     RDKit          3D

  0  0  0  0  0  0  0  0  0  0999 V3000
M  V30 BEGIN CTAB
M  V30 COUNTS 58 62 0 0 0
M  V30 BEGIN ATOM
M  V30 1 C 1.364683 4.006920 -1.141366 0
M  V30 2 C 2.333357 2.933535 -1.420843 0
M  V30 3 C 3.530140 3.334737 -1.952383 0
M  V30 4 C 4.556740 2.486981 -2.233789 0
M  V30 5 C 4.301919 1.166704 -1.939685 0
M  V30 6 C 3.107216 0.717911 -1.403233 0
M  V30 7 C 2.069501 1.606669 -1.124326 0
M  V30 8 C 0.814960 1.086746 -0.602482 0
M  V30 9 C -0.264223 0.793463 -1.591437 0 CFG=2
M  V30 10 N -0.607478 1.995066 -2.323104 0
M  V30 11 C -1.523521 0.479902 -0.699211 0
M  V30 12 N -1.297877 -0.624596 0.155233 0
M  V30 13 C -1.505622 -1.560504 1.273264 0
M  V30 14 N -2.426888 -1.461211 2.242550 0
M  V30 15 C -2.691895 -2.155455 3.299493 0
M  V30 16 C -3.787981 -1.747260 4.145572 0
M  V30 17 C -4.149351 -2.395868 5.289358 0
M  V30 18 C -5.206218 -1.941009 6.047470 0
M  V30 19 N -5.928214 -0.855344 5.713431 0
M  V30 20 C -5.595893 -0.187625 4.583471 0
M  V30 21 C -4.544727 -0.637794 3.827564 0
M  V30 22 N -1.860651 -3.164975 3.414357 0
M  V30 23 C -0.905947 -3.372572 2.520401 0
M  V30 24 S 0.279884 -4.709226 2.559063 0
M  V30 25 C 1.123489 -4.232236 1.046000 0
M  V30 26 C 0.428581 -3.113237 0.661518 0
M  V30 27 C -0.624639 -2.640588 1.401945 0
M  V30 28 C 1.071111 -2.682345 -0.608632 0
M  V30 29 C 1.215819 -3.906371 -1.494408 0
M  V30 30 C 2.482117 -4.611532 -0.983226 0
M  V30 31 C 2.260259 -4.954202 0.477549 0
M  V30 32 H 1.916140 4.746376 -0.493089 0
M  V30 33 H 0.472561 3.717197 -0.576927 0
M  V30 34 H 1.175797 4.576605 -2.079849 0
M  V30 35 H 3.730877 4.388740 -2.186533 0
M  V30 36 H 5.508604 2.758890 -2.649223 0
M  V30 37 H 5.062997 0.397527 -2.125925 0
M  V30 38 H 2.969766 -0.320722 -1.194643 0
M  V30 39 H 1.031542 0.150342 -0.014268 0
M  V30 40 H 0.362742 1.785875 0.177523 0
M  V30 41 H -0.153599 -0.065032 -2.233532 0
M  V30 42 H -0.931794 1.792723 -3.299027 0
M  V30 43 H -1.278618 2.571549 -1.775134 0
M  V30 44 H -1.764410 1.477011 -0.221494 0
M  V30 45 H -2.308219 0.311061 -1.478826 0
M  V30 46 H -2.159780 -0.146523 0.469635 0
M  V30 47 H -3.544472 -3.280942 5.543590 0
M  V30 48 H -5.460661 -2.496010 6.961676 0
M  V30 49 H -6.166452 0.703374 4.281541 0
M  V30 50 H -4.331070 -0.070922 2.948072 0
M  V30 51 H 2.089688 -2.340920 -0.328882 0
M  V30 52 H 0.522182 -1.886744 -1.102087 0
M  V30 53 H 1.317319 -3.660494 -2.548857 0
M  V30 54 H 0.389809 -4.631964 -1.296102 0
M  V30 55 H 3.296778 -3.863561 -1.042850 0
M  V30 56 H 2.684662 -5.519164 -1.579768 0
M  V30 57 H 3.164679 -4.720720 1.068603 0
M  V30 58 H 2.128890 -6.066087 0.523526 0
M  V30 END ATOM
M  V30 BEGIN BOND
M  V30 1 1 1 2
M  V30 2 2 2 3
M  V30 3 1 3 4
M  V30 4 2 4 5
M  V30 5 1 5 6
M  V30 6 2 6 7
M  V30 7 1 7 8
M  V30 8 1 8 9
M  V30 9 1 9 10
M  V30 10 1 9 11
M  V30 11 1 11 12
M  V30 12 1 12 13
M  V30 13 2 13 14
M  V30 14 1 14 15
M  V30 15 1 15 16
M  V30 16 2 16 17
M  V30 17 1 17 18
M  V30 18 2 18 19
M  V30 19 1 19 20
M  V30 20 2 20 21
M  V30 21 2 15 22
M  V30 22 1 22 23
M  V30 23 1 23 24
M  V30 24 1 24 25
M  V30 25 2 25 26
M  V30 26 1 26 27
M  V30 27 1 26 28
M  V30 28 1 28 29
M  V30 29 1 29 30
M  V30 30 1 30 31
M  V30 31 1 7 2
M  V30 32 1 27 13
M  V30 33 1 21 16
M  V30 34 2 27 23
M  V30 35 1 31 25
M  V30 36 1 1 32
M  V30 37 1 1 33
M  V30 38 1 1 34
M  V30 39 1 3 35
M  V30 40 1 4 36
M  V30 41 1 5 37
M  V30 42 1 6 38
M  V30 43 1 8 39
M  V30 44 1 8 40
M  V30 45 1 9 41 CFG=3
M  V30 46 1 10 42
M  V30 47 1 10 43
M  V30 48 1 11 44
M  V30 49 1 11 45
M  V30 50 1 12 46
M  V30 51 1 17 47
M  V30 52 1 18 48
M  V30 53 1 20 49
M  V30 54 1 21 50
M  V30 55 1 28 51
M  V30 56 1 28 52
M  V30 57 1 29 53
M  V30 58 1 29 54
M  V30 59 1 30 55
M  V30 60 1 30 56
M  V30 61 1 31 57
M  V30 62 1 31 58
M  V30 END BOND
M  V30 END CTAB
M  END
>  <Dataset>  (818) 
ChEMBL_Kinases

>  <Ligand_Instance>  (818) 
nan

>  <PDB_ID>  (818) 
nan

>  <Standardized_SMILES>  (818) 
Cc1ccccc1C[C@H](N)CNc1nc(-c2ccncc2)nc2sc3c(c12)CCCC3

>  <Name>  (818) 
nan

>  <Pocket>  (818) 
nan

>  <ATP_Site>  (818) 
nan

>  <Peripheral>  (818) 
nan

>  <Num_H_Atoms_ProtBoundConf>  (818) 
nan

>  <Num_Resolved_Atoms>  (818) 
nan

>  <Num_Not_Resolved_Atoms>  (818) 
nan

$$$$
CHEMBL3728959
     RDKit          3D

  0  0  0  0  0  0  0  0  0  0999 V3000
M  V30 BEGIN CTAB
M  V30 COUNTS 43 45 0 0 0
M  V30 BEGIN ATOM
M  V30 1 O 0.554874 -3.888627 3.213187 0
M  V30 2 C 0.745144 -2.655547 2.943635 0
M  V30 3 C 2.073493 -2.270836 3.455323 0
M  V30 4 N 2.458834 -0.922943 3.224938 0
M  V30 5 C 2.659358 -0.392689 1.919853 0
M  V30 6 C 2.516386 -1.121389 0.751036 0
M  V30 7 C 2.715319 -0.588840 -0.505829 0
M  V30 8 C 3.076259 0.735444 -0.641759 0
M  V30 9 C 3.236326 1.520350 0.481649 0
M  V30 10 O 3.599834 2.861215 0.387574 0
M  V30 11 C 2.570755 3.817984 0.289333 0
M  V30 12 C 2.150808 4.141365 -0.992383 0
M  V30 13 C 1.146397 5.070007 -1.184537 0
M  V30 14 C 0.578030 5.661063 -0.079292 0
M  V30 15 N 0.987009 5.345029 1.148609 0
M  V30 16 C 1.964233 4.442875 1.360574 0
M  V30 17 C 3.020823 0.920336 1.704801 0
M  V30 18 N -0.285619 -1.962704 2.258819 0
M  V30 19 N -1.444881 -2.662911 1.915669 0
M  V30 20 C -1.636437 -3.193897 0.760514 0
M  V30 21 C -2.840344 -3.929514 0.381815 0
M  V30 22 C -3.013066 -4.490819 -0.878035 0
M  V30 23 C -4.164600 -5.181402 -1.205823 0
M  V30 24 N -5.159797 -5.333448 -0.312653 0
M  V30 25 C -5.047746 -4.811979 0.920802 0
M  V30 26 C -3.897938 -4.122723 1.247325 0
M  V30 27 H 2.877679 -2.923303 3.031939 0
M  V30 28 H 2.094717 -2.484544 4.552315 0
M  V30 29 H 2.609157 -0.269179 4.018951 0
M  V30 30 H 2.233750 -2.163647 0.825964 0
M  V30 31 H 2.582193 -1.230364 -1.372621 0
M  V30 32 H 3.230953 1.148702 -1.624286 0
M  V30 33 H 2.564610 3.705872 -1.892864 0
M  V30 34 H 0.789486 5.350805 -2.163578 0
M  V30 35 H -0.219824 6.402584 -0.160541 0
M  V30 36 H 2.357864 4.127133 2.328187 0
M  V30 37 H 3.157023 1.571910 2.563024 0
M  V30 38 H -0.007047 -0.965548 2.106740 0
M  V30 39 H -0.869383 -3.103146 0.002141 0
M  V30 40 H -2.169514 -4.336284 -1.567248 0
M  V30 41 H -4.170598 -5.569583 -2.224758 0
M  V30 42 H -5.829113 -4.916879 1.660355 0
M  V30 43 H -3.820442 -3.709313 2.239927 0
M  V30 END ATOM
M  V30 BEGIN BOND
M  V30 1 2 1 2
M  V30 2 1 2 3
M  V30 3 1 3 4
M  V30 4 1 4 5
M  V30 5 2 5 6
M  V30 6 1 6 7
M  V30 7 2 7 8
M  V30 8 1 8 9
M  V30 9 1 9 10
M  V30 10 1 10 11
M  V30 11 2 11 12
M  V30 12 1 12 13
M  V30 13 2 13 14
M  V30 14 1 14 15
M  V30 15 2 15 16
M  V30 16 2 9 17
M  V30 17 1 2 18
M  V30 18 1 18 19
M  V30 19 2 19 20
M  V30 20 1 20 21
M  V30 21 2 21 22
M  V30 22 1 22 23
M  V30 23 2 23 24
M  V30 24 1 24 25
M  V30 25 2 25 26
M  V30 26 1 17 5
M  V30 27 1 26 21
M  V30 28 1 16 11
M  V30 29 1 3 27
M  V30 30 1 3 28
M  V30 31 1 4 29
M  V30 32 1 6 30
M  V30 33 1 7 31
M  V30 34 1 8 32
M  V30 35 1 12 33
M  V30 36 1 13 34
M  V30 37 1 14 35
M  V30 38 1 16 36
M  V30 39 1 17 37
M  V30 40 1 18 38
M  V30 41 1 20 39
M  V30 42 1 22 40
M  V30 43 1 23 41
M  V30 44 1 25 42
M  V30 45 1 26 43
M  V30 END BOND
M  V30 END CTAB
M  END
>  <Dataset>  (819) 
ChEMBL_Kinases

>  <Ligand_Instance>  (819) 
nan

>  <PDB_ID>  (819) 
nan

>  <Standardized_SMILES>  (819) 
O=C(CNc1cccc(Oc2cccnc2)c1)N/N=C/c1ccncc1

>  <Name>  (819) 
nan

>  <Pocket>  (819) 
nan

>  <ATP_Site>  (819) 
nan

>  <Peripheral>  (819) 
nan

>  <Num_H_Atoms_ProtBoundConf>  (819) 
nan

>  <Num_Resolved_Atoms>  (819) 
nan

>  <Num_Not_Resolved_Atoms>  (819) 
nan

$$$$
CHEMBL3728958
     RDKit          3D

  0  0  0  0  0  0  0  0  0  0999 V3000
M  V30 BEGIN CTAB
M  V30 COUNTS 55 59 0 0 0
M  V30 BEGIN ATOM
M  V30 1 N 4.152889 0.217316 5.996275 0
M  V30 2 C 4.636026 0.852126 4.805599 0
M  V30 3 O 4.686340 1.760182 5.669297 0
M  V30 4 C 4.639458 -0.108297 3.665321 0
M  V30 5 N 5.128434 0.537343 2.463320 0
M  V30 6 C 4.212556 1.546669 1.972130 0
M  V30 7 C 3.087153 0.793686 1.327387 0
M  V30 8 C 3.658045 -0.572166 1.102696 0 CFG=1
M  V30 9 N 3.350654 -0.989988 -0.231106 0
M  V30 10 C 1.969996 -1.064048 -0.560068 0
M  V30 11 N 0.966145 -0.770100 0.284178 0
M  V30 12 C -0.303916 -0.900304 -0.210767 0
M  V30 13 C -1.441834 -0.592182 0.664333 0
M  V30 14 C -1.185894 -0.183537 1.953346 0
M  V30 15 C -2.296812 0.088264 2.717031 0
M  V30 16 N -3.549570 -0.026801 2.268267 0
M  V30 17 C -3.839424 -0.419217 1.027932 0
M  V30 18 N -5.182162 -0.508559 0.593305 0
M  V30 19 C -5.829494 -0.981886 -0.555824 0
M  V30 20 C -7.001255 -0.420380 -1.042775 0
M  V30 21 C -7.650636 -0.887391 -2.152766 0
M  V30 22 C -7.158719 -1.950158 -2.841253 0
M  V30 23 C -5.991610 -2.555450 -2.404932 0
M  V30 24 C -5.372538 -2.050952 -1.282095 0
M  V30 25 C -2.734353 -0.693444 0.254860 0
M  V30 26 N -0.574266 -1.293824 -1.454472 0
M  V30 27 C 0.372723 -1.605236 -2.357194 0
M  V30 28 C 0.191709 -2.008735 -3.625857 0
M  V30 29 C 1.280875 -2.283816 -4.405444 0
M  V30 30 S 2.729231 -1.931321 -3.206192 0
M  V30 31 C 1.644316 -1.473667 -1.858266 0
M  V30 32 C 5.125518 -0.424706 1.378001 0
M  V30 33 H 3.651631 -0.645321 6.323688 0
M  V30 34 H 3.693667 -0.503378 6.607484 0
M  V30 35 H 3.616195 -0.502452 3.579331 0
M  V30 36 H 5.365149 -0.946576 3.882079 0
M  V30 37 H 3.854739 2.213705 2.778729 0
M  V30 38 H 4.785250 2.113879 1.194982 0
M  V30 39 H 2.855326 1.292936 0.364059 0
M  V30 40 H 2.160343 0.760843 1.932854 0
M  V30 41 H 3.228098 -1.361073 1.772958 0
M  V30 42 H 4.088420 -1.221143 -0.907306 0
M  V30 43 H -0.205232 -0.069972 2.378370 0
M  V30 44 H -2.172735 0.417251 3.747227 0
M  V30 45 H -5.900558 -0.137463 1.283426 0
M  V30 46 H -7.415880 0.437271 -0.503857 0
M  V30 47 H -8.572939 -0.375571 -2.459368 0
M  V30 48 H -7.715862 -2.259573 -3.695288 0
M  V30 49 H -5.655904 -3.392046 -2.994065 0
M  V30 50 H -4.499172 -2.607689 -1.044133 0
M  V30 51 H -2.849917 -1.007124 -0.769377 0
M  V30 52 H -0.748067 -2.152431 -4.139038 0
M  V30 53 H 1.448123 -2.606422 -5.397321 0
M  V30 54 H 5.514571 -1.412424 1.712336 0
M  V30 55 H 5.700253 -0.075584 0.505210 0
M  V30 END ATOM
M  V30 BEGIN BOND
M  V30 1 1 1 2
M  V30 2 2 2 3
M  V30 3 1 2 4
M  V30 4 1 4 5
M  V30 5 1 5 6
M  V30 6 1 6 7
M  V30 7 1 7 8
M  V30 8 1 8 9
M  V30 9 1 9 10
M  V30 10 2 10 11
M  V30 11 1 11 12
M  V30 12 1 12 13
M  V30 13 2 13 14
M  V30 14 1 14 15
M  V30 15 2 15 16
M  V30 16 1 16 17
M  V30 17 1 17 18
M  V30 18 1 18 19
M  V30 19 2 19 20
M  V30 20 1 20 21
M  V30 21 2 21 22
M  V30 22 1 22 23
M  V30 23 2 23 24
M  V30 24 2 17 25
M  V30 25 2 12 26
M  V30 26 1 26 27
M  V30 27 1 27 28
M  V30 28 2 28 29
M  V30 29 1 29 30
M  V30 30 1 30 31
M  V30 31 1 8 32
M  V30 32 1 32 5
M  V30 33 1 31 10
M  V30 34 1 25 13
M  V30 35 2 31 27
M  V30 36 1 24 19
M  V30 37 1 1 33
M  V30 38 1 1 34
M  V30 39 1 4 35
M  V30 40 1 4 36
M  V30 41 1 6 37
M  V30 42 1 6 38
M  V30 43 1 7 39
M  V30 44 1 7 40
M  V30 45 1 8 41 CFG=1
M  V30 46 1 9 42
M  V30 47 1 14 43
M  V30 48 1 15 44
M  V30 49 1 18 45
M  V30 50 1 20 46
M  V30 51 1 21 47
M  V30 52 1 22 48
M  V30 53 1 23 49
M  V30 54 1 24 50
M  V30 55 1 25 51
M  V30 56 1 28 52
M  V30 57 1 29 53
M  V30 58 1 32 54
M  V30 59 1 32 55
M  V30 END BOND
M  V30 END CTAB
M  END
>  <Dataset>  (820) 
ChEMBL_Kinases

>  <Ligand_Instance>  (820) 
nan

>  <PDB_ID>  (820) 
nan

>  <Standardized_SMILES>  (820) 
NC(=O)CN1CC[C@@H](Nc2nc(-c3ccnc(Nc4ccccc4)c3)nc3ccsc23)C1

>  <Name>  (820) 
nan

>  <Pocket>  (820) 
nan

>  <ATP_Site>  (820) 
nan

>  <Peripheral>  (820) 
nan

>  <Num_H_Atoms_ProtBoundConf>  (820) 
nan

>  <Num_Resolved_Atoms>  (820) 
nan

>  <Num_Not_Resolved_Atoms>  (820) 
nan

$$$$
CHEMBL3728943
     RDKit          3D

  0  0  0  0  0  0  0  0  0  0999 V3000
M  V30 BEGIN CTAB
M  V30 COUNTS 57 61 0 0 0
M  V30 BEGIN ATOM
M  V30 1 C 6.280246 -4.771428 3.728411 0
M  V30 2 C 5.228625 -4.312195 2.773469 0
M  V30 3 C 4.811025 -2.896374 3.040983 0
M  V30 4 C 3.862941 -2.207106 2.323893 0
M  V30 5 C 3.740802 -0.938131 2.850606 0
M  V30 6 C 2.854270 0.133983 2.404212 0
M  V30 7 C 2.944666 1.292701 3.112654 0
M  V30 8 S 1.670996 2.391615 2.240696 0
M  V30 9 C 1.224346 1.147969 1.083288 0
M  V30 10 C 0.294363 1.196662 0.053068 0
M  V30 11 N -0.396172 2.419575 -0.141487 0
M  V30 12 C -1.406414 2.732743 -1.107746 0
M  V30 13 C -2.793831 2.291643 -0.814136 0 CFG=1
M  V30 14 N -3.654001 2.706508 -1.926856 0
M  V30 15 C -2.921174 0.839008 -0.638294 0
M  V30 16 C -4.317523 0.389804 -0.355646 0
M  V30 17 C -4.872110 0.267431 0.879689 0
M  V30 18 C -6.155155 -0.148183 1.082887 0
M  V30 19 C -6.903055 -0.452674 -0.046210 0
M  V30 20 C -6.421683 -0.356928 -1.328564 0
M  V30 21 C -5.104079 0.073636 -1.461315 0
M  V30 22 N 0.119338 0.124292 -0.705761 0
M  V30 23 C 0.856683 -0.966474 -0.438578 0
M  V30 24 C 0.688761 -2.163165 -1.253851 0
M  V30 25 C -0.235226 -2.128833 -2.283843 0
M  V30 26 C -0.437314 -3.211613 -3.078277 0
M  V30 27 N 0.220981 -4.366914 -2.934666 0
M  V30 28 C 1.133068 -4.435120 -1.935728 0
M  V30 29 C 1.350649 -3.356116 -1.125730 0
M  V30 30 N 1.752296 -1.005732 0.557530 0
M  V30 31 C 1.976110 0.048072 1.362008 0
M  V30 32 N 4.617737 -0.914765 3.860529 0
M  V30 33 O 5.237429 -2.078376 3.955151 0
M  V30 34 H 6.033721 -4.548547 4.788065 0
M  V30 35 H 6.343545 -5.879537 3.668087 0
M  V30 36 H 7.276342 -4.350099 3.482935 0
M  V30 37 H 4.335097 -4.968854 2.925567 0
M  V30 38 H 5.608017 -4.369754 1.750814 0
M  V30 39 H 3.329967 -2.615126 1.503576 0
M  V30 40 H 3.484134 1.662309 3.918476 0
M  V30 41 H -0.188259 3.253092 0.478451 0
M  V30 42 H -1.420935 3.851683 -1.304814 0
M  V30 43 H -1.112547 2.239753 -2.096132 0
M  V30 44 H -3.162816 2.890646 0.054851 0
M  V30 45 H -3.537117 3.735757 -2.072024 0
M  V30 46 H -4.648909 2.546864 -1.704456 0
M  V30 47 H -2.523336 0.272159 -1.482133 0
M  V30 48 H -2.359910 0.531292 0.293426 0
M  V30 49 H -4.249786 0.515589 1.715424 0
M  V30 50 H -6.551965 -0.230502 2.073784 0
M  V30 51 H -7.923837 -0.783102 0.122932 0
M  V30 52 H -6.994545 -0.590679 -2.200274 0
M  V30 53 H -4.691590 0.160476 -2.459999 0
M  V30 54 H -0.809659 -1.232899 -2.467693 0
M  V30 55 H -1.162253 -3.169623 -3.878439 0
M  V30 56 H 1.667280 -5.350782 -1.807832 0
M  V30 57 H 2.073775 -3.429385 -0.343889 0
M  V30 END ATOM
M  V30 BEGIN BOND
M  V30 1 1 1 2
M  V30 2 1 2 3
M  V30 3 2 3 4
M  V30 4 1 4 5
M  V30 5 1 5 6
M  V30 6 2 6 7
M  V30 7 1 7 8
M  V30 8 1 8 9
M  V30 9 2 9 10
M  V30 10 1 10 11
M  V30 11 1 11 12
M  V30 12 1 12 13
M  V30 13 1 13 14
M  V30 14 1 13 15
M  V30 15 1 15 16
M  V30 16 2 16 17
M  V30 17 1 17 18
M  V30 18 2 18 19
M  V30 19 1 19 20
M  V30 20 2 20 21
M  V30 21 1 10 22
M  V30 22 2 22 23
M  V30 23 1 23 24
M  V30 24 2 24 25
M  V30 25 1 25 26
M  V30 26 2 26 27
M  V30 27 1 27 28
M  V30 28 2 28 29
M  V30 29 1 23 30
M  V30 30 2 30 31
M  V30 31 2 5 32
M  V30 32 1 32 33
M  V30 33 1 33 3
M  V30 34 1 31 6
M  V30 35 1 31 9
M  V30 36 1 21 16
M  V30 37 1 29 24
M  V30 38 1 1 34
M  V30 39 1 1 35
M  V30 40 1 1 36
M  V30 41 1 2 37
M  V30 42 1 2 38
M  V30 43 1 4 39
M  V30 44 1 7 40
M  V30 45 1 11 41
M  V30 46 1 12 42
M  V30 47 1 12 43
M  V30 48 1 13 44 CFG=1
M  V30 49 1 14 45
M  V30 50 1 14 46
M  V30 51 1 15 47
M  V30 52 1 15 48
M  V30 53 1 17 49
M  V30 54 1 18 50
M  V30 55 1 19 51
M  V30 56 1 20 52
M  V30 57 1 21 53
M  V30 58 1 25 54
M  V30 59 1 26 55
M  V30 60 1 28 56
M  V30 61 1 29 57
M  V30 END BOND
M  V30 END CTAB
M  END
>  <Dataset>  (821) 
ChEMBL_Kinases

>  <Ligand_Instance>  (821) 
nan

>  <PDB_ID>  (821) 
nan

>  <Standardized_SMILES>  (821) 
CCc1cc(-c2csc3c(NC[C@@H](N)Cc4ccccc4)nc(-c4ccncc4)nc23)no1

>  <Name>  (821) 
nan

>  <Pocket>  (821) 
nan

>  <ATP_Site>  (821) 
nan

>  <Peripheral>  (821) 
nan

>  <Num_H_Atoms_ProtBoundConf>  (821) 
nan

>  <Num_Resolved_Atoms>  (821) 
nan

>  <Num_Not_Resolved_Atoms>  (821) 
nan

$$$$
CHEMBL3706769
     RDKit          3D

  0  0  0  0  0  0  0  0  0  0999 V3000
M  V30 BEGIN CTAB
M  V30 COUNTS 37 39 0 0 0
M  V30 BEGIN ATOM
M  V30 1 C 1.669531 -1.649610 -3.675746 0
M  V30 2 C 2.513857 -1.154186 -2.512054 0
M  V30 3 N 1.743189 -0.885623 -1.327982 0
M  V30 4 C 1.011916 -1.587715 -0.372736 0
M  V30 5 C 0.927745 -2.962522 -0.406284 0
M  V30 6 C 1.607474 -3.770196 -1.378025 0
M  V30 7 N 2.163679 -4.432639 -2.146735 0
M  V30 8 C 0.186061 -3.703962 0.521127 0
M  V30 9 N 0.077800 -5.122876 0.514260 0
M  V30 10 C -0.476332 -2.995806 1.498062 0
M  V30 11 C -0.388651 -1.626755 1.527446 0
M  V30 12 C 0.340023 -0.900673 0.615470 0
M  V30 13 C 0.416888 0.582383 0.671894 0
M  V30 14 C -0.375614 1.102727 1.805948 0
M  V30 15 C -0.339866 2.491434 1.908063 0
M  V30 16 C -1.042084 3.134952 2.932719 0
M  V30 17 O -1.002366 4.537076 3.030892 0
M  V30 18 C -1.780172 2.391469 3.855612 0
M  V30 19 O -2.450152 3.064474 4.839633 0
M  V30 20 C -1.804310 1.016243 3.739176 0
M  V30 21 C -1.110192 0.388125 2.727204 0
M  V30 22 O -1.083857 -0.986293 2.542229 0
M  V30 23 H 2.231688 -2.480941 -4.148270 0
M  V30 24 H 1.587424 -0.878564 -4.482634 0
M  V30 25 H 0.650000 -1.918091 -3.386231 0
M  V30 26 H 3.310735 -1.915882 -2.254345 0
M  V30 27 H 3.084874 -0.298181 -2.904778 0
M  V30 28 H 1.781161 0.169856 -1.200182 0
M  V30 29 H 0.963256 -5.618851 0.802417 0
M  V30 30 H -0.699831 -5.782227 0.282184 0
M  V30 31 H -1.048482 -3.525468 2.218112 0
M  V30 32 H 0.043041 0.937796 -0.313464 0
M  V30 33 H 1.454768 0.941964 0.823797 0
M  V30 34 H 0.205253 3.141934 1.237462 0
M  V30 35 H -0.269155 4.955241 3.617533 0
M  V30 36 H -2.135816 2.963593 5.803073 0
M  V30 37 H -2.365835 0.421374 4.438122 0
M  V30 END ATOM
M  V30 BEGIN BOND
M  V30 1 1 1 2
M  V30 2 1 2 3
M  V30 3 1 3 4
M  V30 4 2 4 5
M  V30 5 1 5 6
M  V30 6 3 6 7
M  V30 7 1 5 8
M  V30 8 1 8 9
M  V30 9 2 8 10
M  V30 10 1 10 11
M  V30 11 2 11 12
M  V30 12 1 12 13
M  V30 13 1 13 14
M  V30 14 2 14 15
M  V30 15 1 15 16
M  V30 16 1 16 17
M  V30 17 2 16 18
M  V30 18 1 18 19
M  V30 19 1 18 20
M  V30 20 2 20 21
M  V30 21 1 21 22
M  V30 22 1 12 4
M  V30 23 1 21 14
M  V30 24 1 22 11
M  V30 25 1 1 23
M  V30 26 1 1 24
M  V30 27 1 1 25
M  V30 28 1 2 26
M  V30 29 1 2 27
M  V30 30 1 3 28
M  V30 31 1 9 29
M  V30 32 1 9 30
M  V30 33 1 10 31
M  V30 34 1 13 32
M  V30 35 1 13 33
M  V30 36 1 15 34
M  V30 37 1 17 35
M  V30 38 1 19 36
M  V30 39 1 20 37
M  V30 END BOND
M  V30 END CTAB
M  END
>  <Dataset>  (822) 
ChEMBL_Kinases

>  <Ligand_Instance>  (822) 
nan

>  <PDB_ID>  (822) 
nan

>  <Standardized_SMILES>  (822) 
CCNc1c(C#N)c(N)cc2c1Cc1cc(O)c(O)cc1O2

>  <Name>  (822) 
nan

>  <Pocket>  (822) 
nan

>  <ATP_Site>  (822) 
nan

>  <Peripheral>  (822) 
nan

>  <Num_H_Atoms_ProtBoundConf>  (822) 
nan

>  <Num_Resolved_Atoms>  (822) 
nan

>  <Num_Not_Resolved_Atoms>  (822) 
nan

$$$$
CHEMBL3728907
     RDKit          3D

  0  0  0  0  0  0  0  0  0  0999 V3000
M  V30 BEGIN CTAB
M  V30 COUNTS 38 41 0 0 0
M  V30 BEGIN ATOM
M  V30 1 C 1.146669 -2.390569 5.217422 0
M  V30 2 C 0.729672 -2.659412 3.817940 0
M  V30 3 C 0.452305 -4.042624 3.522898 0
M  V30 4 S -0.040354 -3.976451 1.704523 0
M  V30 5 C 0.164890 -2.212199 1.541994 0
M  V30 6 C -0.016586 -1.365447 0.450191 0
M  V30 7 O -0.427228 -2.005410 -0.707283 0
M  V30 8 C -0.644239 -1.253443 -1.866857 0 CFG=1
M  V30 9 C 0.216149 -1.669684 -3.020933 0
M  V30 10 C -0.630477 -1.502528 -4.243813 0
M  V30 11 N -1.923519 -1.008653 -3.805953 0
M  V30 12 C -2.037443 -1.360789 -2.411017 0
M  V30 13 N 0.216978 -0.050203 0.620557 0
M  V30 14 C 0.608170 0.357174 1.828564 0
M  V30 15 C 0.878590 1.783942 2.073007 0
M  V30 16 C 0.710173 2.651746 1.018180 0
M  V30 17 C 0.968632 3.989381 1.265542 0
M  V30 18 N 1.373496 4.514373 2.459032 0
M  V30 19 C 1.521767 3.620140 3.454476 0
M  V30 20 C 1.285957 2.271374 3.295339 0
M  V30 21 N 0.779553 -0.453791 2.865130 0
M  V30 22 C 0.576224 -1.780924 2.810312 0
M  V30 23 H 0.459885 -2.915576 5.935049 0
M  V30 24 H 0.916603 -1.298925 5.404524 0
M  V30 25 H 2.204675 -2.557376 5.398994 0
M  V30 26 H 0.487344 -4.901467 4.091695 0
M  V30 27 H -0.449063 -0.163701 -1.691390 0
M  V30 28 H 1.118334 -1.014292 -3.075877 0
M  V30 29 H 0.597251 -2.706356 -2.927317 0
M  V30 30 H -0.811414 -2.445791 -4.802365 0
M  V30 31 H -0.226597 -0.754180 -4.963560 0
M  V30 32 H -1.987301 0.028024 -3.890744 0
M  V30 33 H -2.463933 -2.380393 -2.370891 0
M  V30 34 H -2.744196 -0.673232 -1.879123 0
M  V30 35 H 0.397058 2.306696 0.065372 0
M  V30 36 H 0.822211 4.641967 0.401208 0
M  V30 37 H 1.842272 4.010434 4.411524 0
M  V30 38 H 1.402212 1.547032 4.085834 0
M  V30 END ATOM
M  V30 BEGIN BOND
M  V30 1 1 1 2
M  V30 2 2 2 3
M  V30 3 1 3 4
M  V30 4 1 4 5
M  V30 5 2 5 6
M  V30 6 1 6 7
M  V30 7 1 7 8
M  V30 8 1 8 9
M  V30 9 1 9 10
M  V30 10 1 10 11
M  V30 11 1 11 12
M  V30 12 1 6 13
M  V30 13 2 13 14
M  V30 14 1 14 15
M  V30 15 2 15 16
M  V30 16 1 16 17
M  V30 17 2 17 18
M  V30 18 1 18 19
M  V30 19 2 19 20
M  V30 20 1 14 21
M  V30 21 2 21 22
M  V30 22 1 22 2
M  V30 23 1 22 5
M  V30 24 1 12 8
M  V30 25 1 20 15
M  V30 26 1 1 23
M  V30 27 1 1 24
M  V30 28 1 1 25
M  V30 29 1 3 26
M  V30 30 1 8 27 CFG=1
M  V30 31 1 9 28
M  V30 32 1 9 29
M  V30 33 1 10 30
M  V30 34 1 10 31
M  V30 35 1 11 32
M  V30 36 1 12 33
M  V30 37 1 12 34
M  V30 38 1 16 35
M  V30 39 1 17 36
M  V30 40 1 19 37
M  V30 41 1 20 38
M  V30 END BOND
M  V30 END CTAB
M  END
>  <Dataset>  (823) 
ChEMBL_Kinases

>  <Ligand_Instance>  (823) 
nan

>  <PDB_ID>  (823) 
nan

>  <Standardized_SMILES>  (823) 
Cc1csc2c(O[C@H]3CCNC3)nc(-c3ccncc3)nc12

>  <Name>  (823) 
nan

>  <Pocket>  (823) 
nan

>  <ATP_Site>  (823) 
nan

>  <Peripheral>  (823) 
nan

>  <Num_H_Atoms_ProtBoundConf>  (823) 
nan

>  <Num_Resolved_Atoms>  (823) 
nan

>  <Num_Not_Resolved_Atoms>  (823) 
nan

$$$$
CHEMBL573956
     RDKit          3D

  0  0  0  0  0  0  0  0  0  0999 V3000
M  V30 BEGIN CTAB
M  V30 COUNTS 36 39 0 0 0
M  V30 BEGIN ATOM
M  V30 1 O -0.106649 -2.418916 4.675646 0
M  V30 2 C 0.359032 -1.993625 3.587848 0
M  V30 3 N 0.806948 -2.720842 2.552965 0
M  V30 4 C 1.269881 -2.069338 1.469278 0
M  V30 5 C 1.752967 -2.986943 0.387513 0
M  V30 6 N 0.688932 -3.387509 -0.501692 0
M  V30 7 C -0.072447 -2.677968 -1.453222 0
M  V30 8 C 0.076306 -1.352636 -1.787422 0
M  V30 9 C -0.676219 -0.659403 -2.707917 0
M  V30 10 C -1.654766 -1.359069 -3.340389 0
M  V30 11 O -2.461464 -0.767304 -4.273773 0
M  V30 12 C -1.866219 -2.686931 -3.062215 0
M  V30 13 C -1.081118 -3.324762 -2.131710 0
M  V30 14 N 1.301377 -0.747319 1.382690 0
M  V30 15 C 0.891640 0.105828 2.327470 0
M  V30 16 C 0.419787 -0.611457 3.432584 0
M  V30 17 S -0.096355 0.714751 4.620339 0
M  V30 18 C 0.366469 2.049607 3.530064 0
M  V30 19 C 0.267107 3.383659 3.747946 0
M  V30 20 C 0.672969 4.288786 2.794516 0
M  V30 21 C 1.165893 3.693954 1.653483 0
M  V30 22 Cl 1.705117 4.815873 0.387589 0
M  V30 23 C 1.272502 2.347975 1.418853 0
M  V30 24 C 0.856451 1.469246 2.395729 0
M  V30 25 H 0.754132 -3.751635 2.686229 0
M  V30 26 H 2.587379 -2.490245 -0.183724 0
M  V30 27 H 2.250102 -3.851928 0.865053 0
M  V30 28 H 0.454228 -4.422669 -0.396774 0
M  V30 29 H 0.853385 -0.781683 -1.305030 0
M  V30 30 H -0.489634 0.393654 -2.911559 0
M  V30 31 H -2.265448 0.171330 -4.614524 0
M  V30 32 H -2.647497 -3.231838 -3.572233 0
M  V30 33 H -1.299783 -4.384852 -1.954456 0
M  V30 34 H -0.138501 3.721256 4.688379 0
M  V30 35 H 0.612696 5.357874 2.924092 0
M  V30 36 H 1.684465 2.038209 0.463356 0
M  V30 END ATOM
M  V30 BEGIN BOND
M  V30 1 2 1 2
M  V30 2 1 2 3
M  V30 3 1 3 4
M  V30 4 1 4 5
M  V30 5 1 5 6
M  V30 6 1 6 7
M  V30 7 2 7 8
M  V30 8 1 8 9
M  V30 9 2 9 10
M  V30 10 1 10 11
M  V30 11 1 10 12
M  V30 12 2 12 13
M  V30 13 2 4 14
M  V30 14 1 14 15
M  V30 15 2 15 16
M  V30 16 1 16 17
M  V30 17 1 17 18
M  V30 18 2 18 19
M  V30 19 1 19 20
M  V30 20 2 20 21
M  V30 21 1 21 22
M  V30 22 1 21 23
M  V30 23 2 23 24
M  V30 24 1 16 2
M  V30 25 1 24 18
M  V30 26 1 13 7
M  V30 27 1 24 15
M  V30 28 1 3 25
M  V30 29 1 5 26
M  V30 30 1 5 27
M  V30 31 1 6 28
M  V30 32 1 8 29
M  V30 33 1 9 30
M  V30 34 1 11 31
M  V30 35 1 12 32
M  V30 36 1 13 33
M  V30 37 1 19 34
M  V30 38 1 20 35
M  V30 39 1 23 36
M  V30 END BOND
M  V30 END CTAB
M  END
>  <Dataset>  (824) 
ChEMBL_Kinases

>  <Ligand_Instance>  (824) 
nan

>  <PDB_ID>  (824) 
nan

>  <Standardized_SMILES>  (824) 
O=c1[nH]c(CNc2ccc(O)cc2)nc2c1sc1ccc(Cl)cc12

>  <Name>  (824) 
nan

>  <Pocket>  (824) 
nan

>  <ATP_Site>  (824) 
nan

>  <Peripheral>  (824) 
nan

>  <Num_H_Atoms_ProtBoundConf>  (824) 
nan

>  <Num_Resolved_Atoms>  (824) 
nan

>  <Num_Not_Resolved_Atoms>  (824) 
nan

$$$$
CHEMBL573933
     RDKit          3D

  0  0  0  0  0  0  0  0  0  0999 V3000
M  V30 BEGIN CTAB
M  V30 COUNTS 42 45 0 0 0
M  V30 BEGIN ATOM
M  V30 1 C 1.655482 -7.396364 -0.434076 0
M  V30 2 C 1.428336 -5.931684 -0.307843 0
M  V30 3 C 1.261217 -5.369619 0.951942 0
M  V30 4 C 1.066580 -3.997235 0.794504 0
M  V30 5 C 1.129852 -3.817851 -0.570163 0
M  V30 6 C 0.989064 -2.557778 -1.289206 0
M  V30 7 C 1.077630 -2.542391 -2.665362 0
M  V30 8 C 0.950166 -1.366156 -3.396372 0
M  V30 9 C 0.727079 -0.182069 -2.696934 0
M  V30 10 O 0.570339 1.062284 -3.138733 0
M  V30 11 C 0.381284 1.865580 -2.093071 0
M  V30 12 C 0.418486 1.098592 -0.920958 0
M  V30 13 C 0.248048 1.644920 0.426010 0
M  V30 14 C -0.765469 2.557914 0.689439 0
M  V30 15 C -0.961640 3.103917 1.964752 0
M  V30 16 C -0.113699 2.715151 2.987863 0
M  V30 17 C -0.231096 3.233459 4.386065 0
M  V30 18 C -1.354569 2.618083 5.153967 0
M  V30 19 O -0.417537 4.606546 4.340900 0
M  V30 20 C 0.895919 1.796203 2.694060 0
M  V30 21 C 1.100075 1.250128 1.440280 0
M  V30 22 C 0.642730 -0.225769 -1.320557 0
M  V30 23 C 0.765481 -1.368908 -0.593068 0
M  V30 24 O 1.341168 -4.954327 -1.199400 0
M  V30 25 H 2.338264 -7.738381 0.345129 0
M  V30 26 H 0.703355 -7.971394 -0.279118 0
M  V30 27 H 2.052964 -7.674326 -1.448895 0
M  V30 28 H 1.263544 -5.822958 1.942768 0
M  V30 29 H 0.903574 -3.245104 1.561755 0
M  V30 30 H 1.251889 -3.452413 -3.245452 0
M  V30 31 H 1.016181 -1.331185 -4.475231 0
M  V30 32 H 0.229519 2.925166 -2.192061 0
M  V30 33 H -1.439193 2.870342 -0.111725 0
M  V30 34 H -1.747467 3.813790 2.175598 0
M  V30 35 H 0.744097 3.074925 4.895463 0
M  V30 36 H -1.042599 2.194875 6.130960 0
M  V30 37 H -2.150646 3.359845 5.369992 0
M  V30 38 H -1.833586 1.788102 4.594983 0
M  V30 39 H -1.378725 4.879961 4.257139 0
M  V30 40 H 1.550489 1.507275 3.520880 0
M  V30 41 H 1.905609 0.545225 1.299477 0
M  V30 42 H 0.692698 -1.358918 0.486011 0
M  V30 END ATOM
M  V30 BEGIN BOND
M  V30 1 1 1 2
M  V30 2 2 2 3
M  V30 3 1 3 4
M  V30 4 2 4 5
M  V30 5 1 5 6
M  V30 6 2 6 7
M  V30 7 1 7 8
M  V30 8 2 8 9
M  V30 9 1 9 10
M  V30 10 1 10 11
M  V30 11 2 11 12
M  V30 12 1 12 13
M  V30 13 2 13 14
M  V30 14 1 14 15
M  V30 15 2 15 16
M  V30 16 1 16 17
M  V30 17 1 17 18
M  V30 18 1 17 19
M  V30 19 1 16 20
M  V30 20 2 20 21
M  V30 21 1 12 22
M  V30 22 2 22 23
M  V30 23 1 5 24
M  V30 24 1 24 2
M  V30 25 1 23 6
M  V30 26 1 22 9
M  V30 27 1 21 13
M  V30 28 1 1 25
M  V30 29 1 1 26
M  V30 30 1 1 27
M  V30 31 1 3 28
M  V30 32 1 4 29
M  V30 33 1 7 30
M  V30 34 1 8 31
M  V30 35 1 11 32
M  V30 36 1 14 33
M  V30 37 1 15 34
M  V30 38 1 17 35
M  V30 39 1 18 36
M  V30 40 1 18 37
M  V30 41 1 18 38
M  V30 42 1 19 39
M  V30 43 1 20 40
M  V30 44 1 21 41
M  V30 45 1 23 42
M  V30 END BOND
M  V30 END CTAB
M  END
>  <Dataset>  (825) 
ChEMBL_Kinases

>  <Ligand_Instance>  (825) 
nan

>  <PDB_ID>  (825) 
nan

>  <Standardized_SMILES>  (825) 
Cc1ccc(-c2ccc3occ(-c4ccc(C(C)O)cc4)c3c2)o1

>  <Name>  (825) 
nan

>  <Pocket>  (825) 
nan

>  <ATP_Site>  (825) 
nan

>  <Peripheral>  (825) 
nan

>  <Num_H_Atoms_ProtBoundConf>  (825) 
nan

>  <Num_Resolved_Atoms>  (825) 
nan

>  <Num_Not_Resolved_Atoms>  (825) 
nan

$$$$
CHEMBL573770
     RDKit          3D

  0  0  0  0  0  0  0  0  0  0999 V3000
M  V30 BEGIN CTAB
M  V30 COUNTS 41 45 0 0 0
M  V30 BEGIN ATOM
M  V30 1 C 2.554223 -2.666264 -0.889560 0
M  V30 2 C 3.163691 -2.236912 0.384437 0
M  V30 3 C 3.226717 -3.071055 1.491193 0
M  V30 4 C 3.793353 -2.685439 2.700165 0
M  V30 5 C 4.309809 -1.409004 2.776000 0
M  V30 6 C 4.272781 -0.542323 1.706489 0
M  V30 7 Cl 4.925533 1.057886 1.815420 0
M  V30 8 C 3.694052 -0.967188 0.505972 0
M  V30 9 C 3.674148 0.019393 -0.657991 0
M  V30 10 N 2.410594 0.556757 -0.852573 0
M  V30 11 C 1.118605 1.106313 -1.051651 0
M  V30 12 N 0.411634 1.959903 -1.801375 0
M  V30 13 N -0.832583 1.996847 -1.407648 0
M  V30 14 C -0.992141 1.157995 -0.371003 0
M  V30 15 C 0.225268 0.564468 -0.105381 0
M  V30 16 C -0.067473 -0.348553 1.060916 0
M  V30 17 C -1.504427 -0.144133 1.344467 0
M  V30 18 C -2.247630 -0.749426 2.333712 0
M  V30 19 C -3.608952 -0.460308 2.489872 0
M  V30 20 C -4.147333 0.466015 1.589621 0
M  V30 21 C -3.428126 1.089782 0.587620 0
M  V30 22 C -2.096332 0.759516 0.491557 0
M  V30 23 O -5.505280 0.588824 1.940975 0
M  V30 24 C -5.869464 -0.538967 2.733409 0
M  V30 25 O -4.628575 -0.858450 3.334367 0
M  V30 26 H 1.811301 -1.888975 -1.160321 0
M  V30 27 H 1.981181 -3.598445 -0.737654 0
M  V30 28 H 3.301364 -2.855290 -1.699716 0
M  V30 29 H 2.821553 -4.071061 1.425953 0
M  V30 30 H 3.820689 -3.365241 3.531599 0
M  V30 31 H 4.773239 -1.035780 3.695358 0
M  V30 32 H 4.529188 0.739132 -0.477921 0
M  V30 33 H 4.049283 -0.637922 -1.505077 0
M  V30 34 H 2.814651 1.131808 -1.673608 0
M  V30 35 H -1.362777 2.655409 -1.991584 0
M  V30 36 H 0.137505 -1.392717 0.717414 0
M  V30 37 H 0.594345 -0.071182 1.893516 0
M  V30 38 H -1.892939 -1.484794 3.074446 0
M  V30 39 H -3.847336 1.803793 -0.102367 0
M  V30 40 H -6.681242 -0.337823 3.436512 0
M  V30 41 H -6.149261 -1.332640 1.979521 0
M  V30 END ATOM
M  V30 BEGIN BOND
M  V30 1 1 1 2
M  V30 2 2 2 3
M  V30 3 1 3 4
M  V30 4 2 4 5
M  V30 5 1 5 6
M  V30 6 1 6 7
M  V30 7 2 6 8
M  V30 8 1 8 9
M  V30 9 1 9 10
M  V30 10 1 10 11
M  V30 11 2 11 12
M  V30 12 1 12 13
M  V30 13 1 13 14
M  V30 14 2 14 15
M  V30 15 1 15 16
M  V30 16 1 16 17
M  V30 17 2 17 18
M  V30 18 1 18 19
M  V30 19 2 19 20
M  V30 20 1 20 21
M  V30 21 2 21 22
M  V30 22 1 20 23
M  V30 23 1 23 24
M  V30 24 1 24 25
M  V30 25 1 8 2
M  V30 26 1 15 11
M  V30 27 1 22 17
M  V30 28 1 22 14
M  V30 29 1 25 19
M  V30 30 1 1 26
M  V30 31 1 1 27
M  V30 32 1 1 28
M  V30 33 1 3 29
M  V30 34 1 4 30
M  V30 35 1 5 31
M  V30 36 1 9 32
M  V30 37 1 9 33
M  V30 38 1 10 34
M  V30 39 1 13 35
M  V30 40 1 16 36
M  V30 41 1 16 37
M  V30 42 1 18 38
M  V30 43 1 21 39
M  V30 44 1 24 40
M  V30 45 1 24 41
M  V30 END BOND
M  V30 END CTAB
M  END
>  <Dataset>  (826) 
ChEMBL_Kinases

>  <Ligand_Instance>  (826) 
nan

>  <PDB_ID>  (826) 
nan

>  <Standardized_SMILES>  (826) 
Cc1cccc(Cl)c1CNc1n[nH]c2c1Cc1cc3c(cc1-2)OCO3

>  <Name>  (826) 
nan

>  <Pocket>  (826) 
nan

>  <ATP_Site>  (826) 
nan

>  <Peripheral>  (826) 
nan

>  <Num_H_Atoms_ProtBoundConf>  (826) 
nan

>  <Num_Resolved_Atoms>  (826) 
nan

>  <Num_Not_Resolved_Atoms>  (826) 
nan

$$$$
CHEMBL573763
     RDKit          3D

  0  0  0  0  0  0  0  0  0  0999 V3000
M  V30 BEGIN CTAB
M  V30 COUNTS 43 46 0 0 0
M  V30 BEGIN ATOM
M  V30 1 C 4.662701 -4.607594 -1.485888 0
M  V30 2 O 3.896373 -3.714955 -2.267684 0
M  V30 3 C 3.084244 -2.746677 -1.707124 0
M  V30 4 C 2.957640 -2.574423 -0.348847 0
M  V30 5 C 2.139429 -1.598991 0.231040 0
M  V30 6 C 1.431583 -0.777678 -0.623987 0
M  V30 7 C 1.540360 -0.929025 -1.989746 0
M  V30 8 C 2.354317 -1.898733 -2.513865 0
M  V30 9 O 2.484509 -2.075444 -3.877180 0
M  V30 10 C 1.852145 -1.346292 -4.877991 0
M  V30 11 C 0.681502 0.122404 0.280452 0
M  V30 12 N -0.200392 1.161140 0.191841 0
M  V30 13 N -0.477771 1.508973 1.428005 0
M  V30 14 C 0.180823 0.746936 2.320287 0
M  V30 15 N 0.117945 0.850392 3.738090 0
M  V30 16 C -0.702821 1.828627 4.423964 0
M  V30 17 C -2.146328 1.634163 4.087120 0
M  V30 18 C -2.901971 2.404741 3.224677 0
M  V30 19 C -4.228681 2.090647 3.022665 0
M  V30 20 C -4.798048 1.020331 3.672388 0
M  V30 21 C -4.096007 0.213225 4.545432 0
M  V30 22 C -2.753791 0.556408 4.729760 0
M  V30 23 Cl -1.869539 -0.470559 5.837907 0
M  V30 24 C 0.952092 -0.174999 1.599892 0
M  V30 25 C 1.903384 -1.300429 1.668026 0
M  V30 26 H 4.043534 -4.961153 -0.627365 0
M  V30 27 H 4.871286 -5.523788 -2.107610 0
M  V30 28 H 5.605575 -4.172116 -1.111169 0
M  V30 29 H 3.525341 -3.232478 0.324103 0
M  V30 30 H 0.961231 -0.256352 -2.611384 0
M  V30 31 H 0.881831 -0.937758 -4.529001 0
M  V30 32 H 1.610429 -2.045083 -5.722277 0
M  V30 33 H 2.444163 -0.479518 -5.240572 0
M  V30 34 H -0.577367 1.590916 -0.677118 0
M  V30 35 H 0.698411 0.179853 4.316403 0
M  V30 36 H -0.604326 1.718703 5.510982 0
M  V30 37 H -0.366976 2.843453 4.130849 0
M  V30 38 H -2.382067 3.219431 2.759159 0
M  V30 39 H -4.812638 2.713899 2.333893 0
M  V30 40 H -5.834421 0.832155 3.469310 0
M  V30 41 H -4.545604 -0.622066 5.051367 0
M  V30 42 H 2.895560 -0.994585 2.095958 0
M  V30 43 H 1.497306 -2.175086 2.214031 0
M  V30 END ATOM
M  V30 BEGIN BOND
M  V30 1 1 1 2
M  V30 2 1 2 3
M  V30 3 2 3 4
M  V30 4 1 4 5
M  V30 5 2 5 6
M  V30 6 1 6 7
M  V30 7 2 7 8
M  V30 8 1 8 9
M  V30 9 1 9 10
M  V30 10 1 6 11
M  V30 11 1 11 12
M  V30 12 1 12 13
M  V30 13 2 13 14
M  V30 14 1 14 15
M  V30 15 1 15 16
M  V30 16 1 16 17
M  V30 17 2 17 18
M  V30 18 1 18 19
M  V30 19 2 19 20
M  V30 20 1 20 21
M  V30 21 2 21 22
M  V30 22 1 22 23
M  V30 23 1 14 24
M  V30 24 1 24 25
M  V30 25 1 8 3
M  V30 26 2 24 11
M  V30 27 1 25 5
M  V30 28 1 22 17
M  V30 29 1 1 26
M  V30 30 1 1 27
M  V30 31 1 1 28
M  V30 32 1 4 29
M  V30 33 1 7 30
M  V30 34 1 10 31
M  V30 35 1 10 32
M  V30 36 1 10 33
M  V30 37 1 12 34
M  V30 38 1 15 35
M  V30 39 1 16 36
M  V30 40 1 16 37
M  V30 41 1 18 38
M  V30 42 1 19 39
M  V30 43 1 20 40
M  V30 44 1 21 41
M  V30 45 1 25 42
M  V30 46 1 25 43
M  V30 END BOND
M  V30 END CTAB
M  END
>  <Dataset>  (827) 
ChEMBL_Kinases

>  <Ligand_Instance>  (827) 
nan

>  <PDB_ID>  (827) 
nan

>  <Standardized_SMILES>  (827) 
COc1cc2c(cc1OC)-c1[nH]nc(NCc3ccccc3Cl)c1C2

>  <Name>  (827) 
nan

>  <Pocket>  (827) 
nan

>  <ATP_Site>  (827) 
nan

>  <Peripheral>  (827) 
nan

>  <Num_H_Atoms_ProtBoundConf>  (827) 
nan

>  <Num_Resolved_Atoms>  (827) 
nan

>  <Num_Not_Resolved_Atoms>  (827) 
nan

$$$$
CHEMBL573760
     RDKit          3D

  0  0  0  0  0  0  0  0  0  0999 V3000
M  V30 BEGIN CTAB
M  V30 COUNTS 42 45 0 0 0
M  V30 BEGIN ATOM
M  V30 1 C 1.607286 -5.088363 -3.791352 0
M  V30 2 O 2.530879 -4.228571 -3.191626 0
M  V30 3 C 2.208595 -3.194459 -2.343423 0
M  V30 4 C 0.891082 -2.906047 -1.997675 0
M  V30 5 C 0.611529 -1.857401 -1.141921 0
M  V30 6 C 1.641780 -1.075850 -0.614230 0
M  V30 7 C 2.945325 -1.377449 -0.969151 0
M  V30 8 C 3.233597 -2.423013 -1.823300 0
M  V30 9 O 4.541419 -2.725321 -2.179232 0
M  V30 10 C 5.611524 -1.954516 -1.663663 0
M  V30 11 C 1.095286 -0.035658 0.258341 0
M  V30 12 N 1.379478 1.006067 1.057764 0
M  V30 13 N 0.231151 1.448465 1.509875 0
M  V30 14 C -0.819910 0.750738 1.050803 0
M  V30 15 N -2.173369 1.027951 1.392419 0
M  V30 16 C -2.736569 2.051473 2.253350 0
M  V30 17 C -2.267255 1.979468 3.650507 0
M  V30 18 C -2.843932 0.920568 4.355507 0
M  V30 19 Cl -3.997358 -0.211546 3.661035 0
M  V30 20 C -2.541595 0.674911 5.695320 0
M  V30 21 C -1.646168 1.513269 6.320987 0
M  V30 22 C -1.055946 2.579781 5.637094 0
M  V30 23 C -1.376534 2.798435 4.306244 0
M  V30 24 Cl -0.712132 4.107270 3.352482 0
M  V30 25 C -0.267503 -0.235811 0.220823 0
M  V30 26 C -0.661306 -1.353117 -0.629297 0
M  V30 27 O -1.819773 -1.768279 -0.855355 0
M  V30 28 H 2.080362 -5.424965 -4.759395 0
M  V30 29 H 1.444510 -5.986534 -3.166623 0
M  V30 30 H 0.657583 -4.590731 -4.064756 0
M  V30 31 H 0.091057 -3.507348 -2.402843 0
M  V30 32 H 3.718482 -0.765731 -0.553199 0
M  V30 33 H 5.663472 -0.971300 -2.166390 0
M  V30 34 H 5.505662 -1.749379 -0.565454 0
M  V30 35 H 6.581579 -2.498196 -1.823831 0
M  V30 36 H 2.336620 1.359837 1.252875 0
M  V30 37 H -2.837932 0.345702 0.912429 0
M  V30 38 H -2.509588 3.074272 1.869871 0
M  V30 39 H -3.836035 1.941720 2.245325 0
M  V30 40 H -2.967914 -0.130241 6.264777 0
M  V30 41 H -1.325534 1.435615 7.351368 0
M  V30 42 H -0.347013 3.251736 6.115235 0
M  V30 END ATOM
M  V30 BEGIN BOND
M  V30 1 1 1 2
M  V30 2 1 2 3
M  V30 3 2 3 4
M  V30 4 1 4 5
M  V30 5 2 5 6
M  V30 6 1 6 7
M  V30 7 2 7 8
M  V30 8 1 8 9
M  V30 9 1 9 10
M  V30 10 1 6 11
M  V30 11 1 11 12
M  V30 12 1 12 13
M  V30 13 2 13 14
M  V30 14 1 14 15
M  V30 15 1 15 16
M  V30 16 1 16 17
M  V30 17 2 17 18
M  V30 18 1 18 19
M  V30 19 1 18 20
M  V30 20 2 20 21
M  V30 21 1 21 22
M  V30 22 2 22 23
M  V30 23 1 23 24
M  V30 24 1 14 25
M  V30 25 1 25 26
M  V30 26 2 26 27
M  V30 27 1 8 3
M  V30 28 2 25 11
M  V30 29 1 26 5
M  V30 30 1 23 17
M  V30 31 1 1 28
M  V30 32 1 1 29
M  V30 33 1 1 30
M  V30 34 1 4 31
M  V30 35 1 7 32
M  V30 36 1 10 33
M  V30 37 1 10 34
M  V30 38 1 10 35
M  V30 39 1 12 36
M  V30 40 1 15 37
M  V30 41 1 16 38
M  V30 42 1 16 39
M  V30 43 1 20 40
M  V30 44 1 21 41
M  V30 45 1 22 42
M  V30 END BOND
M  V30 END CTAB
M  END
>  <Dataset>  (828) 
ChEMBL_Kinases

>  <Ligand_Instance>  (828) 
nan

>  <PDB_ID>  (828) 
nan

>  <Standardized_SMILES>  (828) 
COc1cc2c(cc1OC)-c1[nH]nc(NCc3c(Cl)cccc3Cl)c1C2=O

>  <Name>  (828) 
nan

>  <Pocket>  (828) 
nan

>  <ATP_Site>  (828) 
nan

>  <Peripheral>  (828) 
nan

>  <Num_H_Atoms_ProtBoundConf>  (828) 
nan

>  <Num_Resolved_Atoms>  (828) 
nan

>  <Num_Not_Resolved_Atoms>  (828) 
nan

$$$$
CHEMBL3706697
     RDKit          3D

  0  0  0  0  0  0  0  0  0  0999 V3000
M  V30 BEGIN CTAB
M  V30 COUNTS 32 34 0 0 0
M  V30 BEGIN ATOM
M  V30 1 O -0.446980 -4.893745 1.413630 0
M  V30 2 C -1.531947 -4.023759 1.502932 0
M  V30 3 C -1.047466 -2.611357 1.315584 0 CFG=1
M  V30 4 O -0.446589 -2.444656 0.085232 0
M  V30 5 C -0.437335 -1.101580 -0.221133 0 CFG=2
M  V30 6 N 0.930420 -0.630773 -0.119590 0
M  V30 7 C 2.057463 -1.396243 -0.027721 0
M  V30 8 N 3.163193 -0.653216 0.051792 0
M  V30 9 C 2.793308 0.630005 0.014306 0
M  V30 10 C 3.528807 1.794563 0.062435 0
M  V30 11 C 2.890392 3.023944 0.004740 0
M  V30 12 Cl 3.849177 4.488410 0.067853 0
M  V30 13 C 1.512176 3.020022 -0.100923 0
M  V30 14 Cl 0.707658 4.588255 -0.173755 0
M  V30 15 C 0.777301 1.839744 -0.148892 0
M  V30 16 C 1.416812 0.624013 -0.091211 0
M  V30 17 C -1.386030 -0.412673 0.715378 0 CFG=2
M  V30 18 O -0.690281 0.066627 1.806672 0
M  V30 19 C -2.188302 -1.622093 1.214907 0 CFG=2
M  V30 20 O -2.827362 -1.380396 2.409760 0
M  V30 21 H 0.128545 -4.786275 2.226881 0
M  V30 22 H -2.243922 -4.299760 0.706262 0
M  V30 23 H -2.024286 -4.200131 2.455890 0
M  V30 24 H -0.391984 -2.266769 2.121467 0
M  V30 25 H -0.830213 -0.888261 -1.256560 0
M  V30 26 H 2.105845 -2.495169 -0.016203 0
M  V30 27 H 4.606765 1.731221 0.145553 0
M  V30 28 H -0.295178 1.894713 -0.231528 0
M  V30 29 H -2.052051 0.325578 0.233453 0
M  V30 30 H -1.263789 0.392196 2.525618 0
M  V30 31 H -2.907530 -1.914933 0.400553 0
M  V30 32 H -3.758728 -1.741799 2.313993 0
M  V30 END ATOM
M  V30 BEGIN BOND
M  V30 1 1 1 2
M  V30 2 1 2 3
M  V30 3 1 3 4
M  V30 4 1 4 5
M  V30 5 1 5 6
M  V30 6 1 6 7
M  V30 7 2 7 8
M  V30 8 1 8 9
M  V30 9 2 9 10
M  V30 10 1 10 11
M  V30 11 1 11 12
M  V30 12 2 11 13
M  V30 13 1 13 14
M  V30 14 1 13 15
M  V30 15 2 15 16
M  V30 16 1 5 17
M  V30 17 1 17 18
M  V30 18 1 17 19
M  V30 19 1 19 20
M  V30 20 1 19 3
M  V30 21 1 16 6
M  V30 22 1 16 9
M  V30 23 1 1 21
M  V30 24 1 2 22
M  V30 25 1 2 23
M  V30 26 1 3 24 CFG=1
M  V30 27 1 5 25 CFG=3
M  V30 28 1 7 26
M  V30 29 1 10 27
M  V30 30 1 15 28
M  V30 31 1 17 29 CFG=3
M  V30 32 1 18 30
M  V30 33 1 19 31 CFG=3
M  V30 34 1 20 32
M  V30 END BOND
M  V30 END CTAB
M  END
>  <Dataset>  (829) 
ChEMBL_Kinases

>  <Ligand_Instance>  (829) 
nan

>  <PDB_ID>  (829) 
nan

>  <Standardized_SMILES>  (829) 
OC[C@H]1O[C@H](n2cnc3cc(Cl)c(Cl)cc32)[C@H](O)[C@@H]1O

>  <Name>  (829) 
nan

>  <Pocket>  (829) 
nan

>  <ATP_Site>  (829) 
nan

>  <Peripheral>  (829) 
nan

>  <Num_H_Atoms_ProtBoundConf>  (829) 
nan

>  <Num_Resolved_Atoms>  (829) 
nan

>  <Num_Not_Resolved_Atoms>  (829) 
nan

$$$$
CHEMBL3706766
     RDKit          3D

  0  0  0  0  0  0  0  0  0  0999 V3000
M  V30 BEGIN CTAB
M  V30 COUNTS 30 32 0 0 0
M  V30 BEGIN ATOM
M  V30 1 N 3.638298 -3.696923 4.013633 0
M  V30 2 C 2.795857 -3.031051 3.529593 0
M  V30 3 C 1.780436 -2.208391 2.932964 0
M  V30 4 C 0.768258 -1.666036 3.728197 0
M  V30 5 N 0.803085 -1.968412 5.120996 0
M  V30 6 C -0.230825 -0.868831 3.202325 0
M  V30 7 C -0.235941 -0.595888 1.853805 0
M  V30 8 C 0.750579 -1.117255 1.042501 0
M  V30 9 C 1.761782 -1.924182 1.575005 0
M  V30 10 N 2.819753 -2.505958 0.818271 0
M  V30 11 C 0.899215 -0.928809 -0.416215 0
M  V30 12 C -0.202348 -0.066018 -0.915000 0
M  V30 13 C -0.165818 0.180377 -2.275063 0
M  V30 14 C -1.132281 0.974512 -2.898744 0
M  V30 15 C -2.100688 1.476675 -2.054126 0
M  V30 16 O -3.085018 2.278758 -2.655660 0
M  V30 17 C -2.184751 1.262972 -0.692860 0
M  V30 18 C -1.203258 0.471239 -0.133347 0
M  V30 19 O -1.191702 0.191507 1.226803 0
M  V30 20 H 1.378594 -1.550814 5.901436 0
M  V30 21 H 0.334316 -2.625183 5.785612 0
M  V30 22 H -1.010953 -0.452984 3.826072 0
M  V30 23 H 3.461533 -1.665175 0.836240 0
M  V30 24 H 2.565083 -3.484854 0.553287 0
M  V30 25 H 0.731745 -1.924233 -0.903611 0
M  V30 26 H 1.889240 -0.509488 -0.678723 0
M  V30 27 H 0.609077 -0.225583 -2.930161 0
M  V30 28 H -1.149156 1.197271 -3.955370 0
M  V30 29 H -2.913077 3.271038 -2.753022 0
M  V30 30 H -2.978160 1.694578 -0.101933 0
M  V30 END ATOM
M  V30 BEGIN BOND
M  V30 1 3 1 2
M  V30 2 1 2 3
M  V30 3 2 3 4
M  V30 4 1 4 5
M  V30 5 1 4 6
M  V30 6 2 6 7
M  V30 7 1 7 8
M  V30 8 2 8 9
M  V30 9 1 9 10
M  V30 10 1 8 11
M  V30 11 1 11 12
M  V30 12 2 12 13
M  V30 13 1 13 14
M  V30 14 2 14 15
M  V30 15 1 15 16
M  V30 16 1 15 17
M  V30 17 2 17 18
M  V30 18 1 18 19
M  V30 19 1 9 3
M  V30 20 1 18 12
M  V30 21 1 19 7
M  V30 22 1 5 20
M  V30 23 1 5 21
M  V30 24 1 6 22
M  V30 25 1 10 23
M  V30 26 1 10 24
M  V30 27 1 11 25
M  V30 28 1 11 26
M  V30 29 1 13 27
M  V30 30 1 14 28
M  V30 31 1 16 29
M  V30 32 1 17 30
M  V30 END BOND
M  V30 END CTAB
M  END
>  <Dataset>  (830) 
ChEMBL_Kinases

>  <Ligand_Instance>  (830) 
nan

>  <PDB_ID>  (830) 
nan

>  <Standardized_SMILES>  (830) 
N#Cc1c(N)cc2c(c1N)Cc1ccc(O)cc1O2

>  <Name>  (830) 
nan

>  <Pocket>  (830) 
nan

>  <ATP_Site>  (830) 
nan

>  <Peripheral>  (830) 
nan

>  <Num_H_Atoms_ProtBoundConf>  (830) 
nan

>  <Num_Resolved_Atoms>  (830) 
nan

>  <Num_Not_Resolved_Atoms>  (830) 
nan

$$$$
CHEMBL3706767
     RDKit          3D

  0  0  0  0  0  0  0  0  0  0999 V3000
M  V30 BEGIN CTAB
M  V30 COUNTS 30 32 0 0 0
M  V30 BEGIN ATOM
M  V30 1 N 1.824382 -5.756952 2.419496 0
M  V30 2 C 1.306778 -4.716704 2.255214 0
M  V30 3 C 0.650630 -3.450320 2.044660 0
M  V30 4 C -0.441328 -3.077138 2.807130 0
M  V30 5 N -0.929173 -3.954258 3.817592 0
M  V30 6 C -1.095655 -1.866819 2.630888 0
M  V30 7 C -0.635916 -1.002085 1.654184 0
M  V30 8 C 0.451269 -1.344875 0.876593 0
M  V30 9 C 1.089558 -2.565326 1.074050 0
M  V30 10 N 2.221591 -3.000163 0.314383 0
M  V30 11 C 1.042963 -0.510327 -0.201844 0
M  V30 12 C 0.300873 0.770060 -0.342489 0
M  V30 13 C 0.730161 1.659675 -1.307218 0
M  V30 14 C 0.100987 2.893343 -1.521529 0
M  V30 15 O 0.538189 3.784352 -2.494408 0
M  V30 16 C -0.980303 3.170500 -0.707239 0
M  V30 17 C -1.452125 2.318727 0.272233 0
M  V30 18 C -0.787656 1.119859 0.431830 0
M  V30 19 O -1.228355 0.230905 1.406604 0
M  V30 20 H -0.385314 -3.577707 4.650354 0
M  V30 21 H -0.767772 -4.086669 4.860344 0
M  V30 22 H -1.946753 -1.540062 3.202154 0
M  V30 23 H 3.005213 -2.339680 0.120943 0
M  V30 24 H 2.307666 -3.970514 -0.067433 0
M  V30 25 H 0.883940 -1.070786 -1.152845 0
M  V30 26 H 2.129356 -0.338326 -0.037618 0
M  V30 27 H 1.584530 1.446232 -1.954170 0
M  V30 28 H 1.513816 4.097911 -2.563841 0
M  V30 29 H -1.528380 4.110606 -0.807570 0
M  V30 30 H -2.300298 2.549400 0.902459 0
M  V30 END ATOM
M  V30 BEGIN BOND
M  V30 1 3 1 2
M  V30 2 1 2 3
M  V30 3 2 3 4
M  V30 4 1 4 5
M  V30 5 1 4 6
M  V30 6 2 6 7
M  V30 7 1 7 8
M  V30 8 2 8 9
M  V30 9 1 9 10
M  V30 10 1 8 11
M  V30 11 1 11 12
M  V30 12 2 12 13
M  V30 13 1 13 14
M  V30 14 1 14 15
M  V30 15 2 14 16
M  V30 16 1 16 17
M  V30 17 2 17 18
M  V30 18 1 18 19
M  V30 19 1 9 3
M  V30 20 1 18 12
M  V30 21 1 19 7
M  V30 22 1 5 20
M  V30 23 1 5 21
M  V30 24 1 6 22
M  V30 25 1 10 23
M  V30 26 1 10 24
M  V30 27 1 11 25
M  V30 28 1 11 26
M  V30 29 1 13 27
M  V30 30 1 15 28
M  V30 31 1 16 29
M  V30 32 1 17 30
M  V30 END BOND
M  V30 END CTAB
M  END
>  <Dataset>  (831) 
ChEMBL_Kinases

>  <Ligand_Instance>  (831) 
nan

>  <PDB_ID>  (831) 
nan

>  <Standardized_SMILES>  (831) 
N#Cc1c(N)cc2c(c1N)Cc1cc(O)ccc1O2

>  <Name>  (831) 
nan

>  <Pocket>  (831) 
nan

>  <ATP_Site>  (831) 
nan

>  <Peripheral>  (831) 
nan

>  <Num_H_Atoms_ProtBoundConf>  (831) 
nan

>  <Num_Resolved_Atoms>  (831) 
nan

>  <Num_Not_Resolved_Atoms>  (831) 
nan

$$$$
CHEMBL3728900
     RDKit          3D

  0  0  0  0  0  0  0  0  0  0999 V3000
M  V30 BEGIN CTAB
M  V30 COUNTS 64 68 0 0 0
M  V30 BEGIN ATOM
M  V30 1 C 3.947110 1.269765 3.144118 0
M  V30 2 C 3.048890 1.976430 2.185585 0
M  V30 3 C 3.768805 2.044463 0.854404 0
M  V30 4 C 2.735794 3.396596 2.626889 0
M  V30 5 C 1.819690 1.183588 1.995024 0
M  V30 6 S 1.264450 0.518448 0.388492 0
M  V30 7 C -0.211169 -0.250742 1.059700 0
M  V30 8 C -1.186543 -0.984346 0.389235 0
M  V30 9 N -1.070638 -1.192026 -0.990242 0
M  V30 10 C -2.100009 -1.955542 -1.644925 0
M  V30 11 C -1.820713 -2.085391 -3.133486 0 CFG=1
M  V30 12 N -1.769944 -0.785400 -3.725001 0
M  V30 13 C -0.509426 -2.852031 -3.335152 0
M  V30 14 C -0.171191 -3.018003 -4.759005 0
M  V30 15 C 0.598067 -2.054346 -5.396119 0
M  V30 16 C 0.985963 -2.088089 -6.725468 0
M  V30 17 C 0.554642 -3.180638 -7.439493 0
M  V30 18 C -0.211948 -4.171405 -6.863666 0
M  V30 19 C -0.577651 -4.097922 -5.529539 0
M  V30 20 N -2.225714 -1.473453 1.122170 0
M  V30 21 C -2.188311 -1.184366 2.439153 0
M  V30 22 C -3.291599 -1.689950 3.285047 0
M  V30 23 C -3.336039 -1.443103 4.640695 0
M  V30 24 C -4.387080 -1.934846 5.396302 0
M  V30 25 N -5.363173 -2.653358 4.803053 0
M  V30 26 C -5.301071 -2.885307 3.467548 0
M  V30 27 C -4.261740 -2.411593 2.658276 0
M  V30 28 N -1.227616 -0.472442 3.046883 0
M  V30 29 C -0.172955 0.039905 2.381938 0
M  V30 30 C 0.880403 0.779374 2.844917 0
M  V30 31 C 1.030247 1.159196 4.271488 0
M  V30 32 C 1.604240 0.661812 5.440595 0
M  V30 33 C 1.342110 1.582806 6.433375 0
M  V30 34 O 0.657217 2.573954 5.913394 0
M  V30 35 C 0.446860 2.373627 4.643057 0
M  V30 36 H 3.963051 1.744596 4.156687 0
M  V30 37 H 4.997899 1.191188 2.746401 0
M  V30 38 H 3.585491 0.233301 3.286329 0
M  V30 39 H 3.687362 1.050487 0.332114 0
M  V30 40 H 3.256143 2.751621 0.147147 0
M  V30 41 H 4.811957 2.352665 0.937161 0
M  V30 42 H 2.922945 3.557784 3.706804 0
M  V30 43 H 1.686101 3.593365 2.322205 0
M  V30 44 H 3.414867 4.097986 2.084164 0
M  V30 45 H -0.262699 -0.803814 -1.520826 0
M  V30 46 H -2.179240 -2.977553 -1.187559 0
M  V30 47 H -3.053352 -1.383405 -1.562150 0
M  V30 48 H -2.657478 -2.650295 -3.590219 0
M  V30 49 H -2.302077 -0.050547 -3.226511 0
M  V30 50 H -1.812097 -0.769821 -4.749092 0
M  V30 51 H 0.294283 -2.334323 -2.785231 0
M  V30 52 H -0.623096 -3.837820 -2.870000 0
M  V30 53 H 0.921625 -1.197553 -4.788283 0
M  V30 54 H 1.588445 -1.280941 -7.122807 0
M  V30 55 H 0.851342 -3.220860 -8.484232 0
M  V30 56 H -0.523932 -5.007679 -7.469411 0
M  V30 57 H -1.176528 -4.866958 -5.070049 0
M  V30 58 H -2.514698 -0.851431 5.075927 0
M  V30 59 H -4.310995 -1.676110 6.445229 0
M  V30 60 H -6.092679 -3.466395 2.994413 0
M  V30 61 H -4.289909 -2.643299 1.597698 0
M  V30 62 H 2.106423 -0.303056 5.297915 0
M  V30 63 H 1.739089 1.313308 7.405840 0
M  V30 64 H -0.117735 3.154514 4.134808 0
M  V30 END ATOM
M  V30 BEGIN BOND
M  V30 1 1 1 2
M  V30 2 1 2 3
M  V30 3 1 2 4
M  V30 4 1 2 5
M  V30 5 1 5 6
M  V30 6 1 6 7
M  V30 7 2 7 8
M  V30 8 1 8 9
M  V30 9 1 9 10
M  V30 10 1 10 11
M  V30 11 1 11 12
M  V30 12 1 11 13
M  V30 13 1 13 14
M  V30 14 2 14 15
M  V30 15 1 15 16
M  V30 16 2 16 17
M  V30 17 1 17 18
M  V30 18 2 18 19
M  V30 19 1 8 20
M  V30 20 2 20 21
M  V30 21 1 21 22
M  V30 22 2 22 23
M  V30 23 1 23 24
M  V30 24 2 24 25
M  V30 25 1 25 26
M  V30 26 2 26 27
M  V30 27 1 21 28
M  V30 28 2 28 29
M  V30 29 1 29 30
M  V30 30 1 30 31
M  V30 31 1 31 32
M  V30 32 2 32 33
M  V30 33 1 33 34
M  V30 34 1 34 35
M  V30 35 2 30 5
M  V30 36 2 35 31
M  V30 37 1 29 7
M  V30 38 1 19 14
M  V30 39 1 27 22
M  V30 40 1 1 36
M  V30 41 1 1 37
M  V30 42 1 1 38
M  V30 43 1 3 39
M  V30 44 1 3 40
M  V30 45 1 3 41
M  V30 46 1 4 42
M  V30 47 1 4 43
M  V30 48 1 4 44
M  V30 49 1 9 45
M  V30 50 1 10 46
M  V30 51 1 10 47
M  V30 52 1 11 48 CFG=3
M  V30 53 1 12 49
M  V30 54 1 12 50
M  V30 55 1 13 51
M  V30 56 1 13 52
M  V30 57 1 15 53
M  V30 58 1 16 54
M  V30 59 1 17 55
M  V30 60 1 18 56
M  V30 61 1 19 57
M  V30 62 1 23 58
M  V30 63 1 24 59
M  V30 64 1 26 60
M  V30 65 1 27 61
M  V30 66 1 32 62
M  V30 67 1 33 63
M  V30 68 1 35 64
M  V30 END BOND
M  V30 END CTAB
M  END
>  <Dataset>  (832) 
ChEMBL_Kinases

>  <Ligand_Instance>  (832) 
nan

>  <PDB_ID>  (832) 
nan

>  <Standardized_SMILES>  (832) 
CC(C)(C)c1sc2c(NC[C@@H](N)Cc3ccccc3)nc(-c3ccncc3)nc2c1-c1ccoc1

>  <Name>  (832) 
nan

>  <Pocket>  (832) 
nan

>  <ATP_Site>  (832) 
nan

>  <Peripheral>  (832) 
nan

>  <Num_H_Atoms_ProtBoundConf>  (832) 
nan

>  <Num_Resolved_Atoms>  (832) 
nan

>  <Num_Not_Resolved_Atoms>  (832) 
nan

$$$$
CHEMBL3706768
     RDKit          3D

  0  0  0  0  0  0  0  0  0  0999 V3000
M  V30 BEGIN CTAB
M  V30 COUNTS 40 42 0 0 0
M  V30 BEGIN ATOM
M  V30 1 C 1.440494 -5.439792 0.645374 0
M  V30 2 C 2.186091 -4.111805 0.795562 0
M  V30 3 C 1.352268 -3.059895 0.097084 0
M  V30 4 N 1.942392 -1.743319 0.160434 0
M  V30 5 C 1.361798 -0.577279 -0.416588 0
M  V30 6 C 1.741282 -0.322380 -1.732258 0
M  V30 7 C 2.654251 -1.187087 -2.437560 0
M  V30 8 N 3.395496 -1.888983 -3.003556 0
M  V30 9 C 1.198652 0.799387 -2.324745 0
M  V30 10 N 1.568369 1.084134 -3.667131 0
M  V30 11 C 0.319265 1.665984 -1.701473 0
M  V30 12 C -0.024541 1.371841 -0.404288 0
M  V30 13 C 0.486770 0.264830 0.237204 0
M  V30 14 C 0.135468 -0.074042 1.626447 0
M  V30 15 C -0.807188 0.948837 2.138223 0
M  V30 16 C -1.194521 0.702848 3.457525 0
M  V30 17 C -2.074284 1.533907 4.140853 0
M  V30 18 O -2.457077 1.286400 5.452010 0
M  V30 19 C -2.563150 2.630038 3.464737 0
M  V30 20 O -3.457525 3.500731 4.116396 0
M  V30 21 C -2.194833 2.892901 2.162024 0
M  V30 22 C -1.327690 2.055693 1.518580 0
M  V30 23 O -0.906026 2.245416 0.212297 0
M  V30 24 H 0.329404 -5.249761 0.617496 0
M  V30 25 H 1.631524 -6.091808 1.508018 0
M  V30 26 H 1.693771 -5.875838 -0.337566 0
M  V30 27 H 3.201742 -4.190947 0.331385 0
M  V30 28 H 2.305575 -3.822877 1.854993 0
M  V30 29 H 0.345609 -3.112891 0.582569 0
M  V30 30 H 1.222445 -3.391080 -0.967877 0
M  V30 31 H 2.853145 -1.541012 0.640785 0
M  V30 32 H 0.777656 1.316327 -4.315167 0
M  V30 33 H 2.355701 1.161772 -4.313847 0
M  V30 34 H -0.053532 2.520943 -2.248799 0
M  V30 35 H 1.101200 -0.070340 2.201932 0
M  V30 36 H -0.268486 -1.096394 1.751888 0
M  V30 37 H -0.846989 -0.149844 4.060426 0
M  V30 38 H -2.281170 0.354415 5.829659 0
M  V30 39 H -4.366508 3.067017 4.340712 0
M  V30 40 H -2.573365 3.745507 1.632069 0
M  V30 END ATOM
M  V30 BEGIN BOND
M  V30 1 1 1 2
M  V30 2 1 2 3
M  V30 3 1 3 4
M  V30 4 1 4 5
M  V30 5 2 5 6
M  V30 6 1 6 7
M  V30 7 3 7 8
M  V30 8 1 6 9
M  V30 9 1 9 10
M  V30 10 2 9 11
M  V30 11 1 11 12
M  V30 12 2 12 13
M  V30 13 1 13 14
M  V30 14 1 14 15
M  V30 15 2 15 16
M  V30 16 1 16 17
M  V30 17 1 17 18
M  V30 18 2 17 19
M  V30 19 1 19 20
M  V30 20 1 19 21
M  V30 21 2 21 22
M  V30 22 1 22 23
M  V30 23 1 13 5
M  V30 24 1 22 15
M  V30 25 1 23 12
M  V30 26 1 1 24
M  V30 27 1 1 25
M  V30 28 1 1 26
M  V30 29 1 2 27
M  V30 30 1 2 28
M  V30 31 1 3 29
M  V30 32 1 3 30
M  V30 33 1 4 31
M  V30 34 1 10 32
M  V30 35 1 10 33
M  V30 36 1 11 34
M  V30 37 1 14 35
M  V30 38 1 14 36
M  V30 39 1 16 37
M  V30 40 1 18 38
M  V30 41 1 20 39
M  V30 42 1 21 40
M  V30 END BOND
M  V30 END CTAB
M  END
>  <Dataset>  (833) 
ChEMBL_Kinases

>  <Ligand_Instance>  (833) 
nan

>  <PDB_ID>  (833) 
nan

>  <Standardized_SMILES>  (833) 
CCCNc1c(C#N)c(N)cc2c1Cc1cc(O)c(O)cc1O2

>  <Name>  (833) 
nan

>  <Pocket>  (833) 
nan

>  <ATP_Site>  (833) 
nan

>  <Peripheral>  (833) 
nan

>  <Num_H_Atoms_ProtBoundConf>  (833) 
nan

>  <Num_Resolved_Atoms>  (833) 
nan

>  <Num_Not_Resolved_Atoms>  (833) 
nan

$$$$
CHEMBL3728937
     RDKit          3D

  0  0  0  0  0  0  0  0  0  0999 V3000
M  V30 BEGIN CTAB
M  V30 COUNTS 48 52 0 0 0
M  V30 BEGIN ATOM
M  V30 1 C -0.175787 -6.312570 -0.440413 0
M  V30 2 C -0.724703 -5.150531 0.076018 0
M  V30 3 C 0.112121 -4.058429 0.162675 0
M  V30 4 C -0.383718 -2.795714 0.693872 0
M  V30 5 N 0.349435 -1.695706 0.812205 0
M  V30 6 C -0.059016 -0.515948 1.292558 0
M  V30 7 O 0.792977 0.521471 1.357872 0
M  V30 8 C 2.085290 0.772382 1.048870 0
M  V30 9 C 2.637320 0.675062 -0.291631 0 CFG=1
M  V30 10 C 2.718724 -0.614124 -1.005369 0
M  V30 11 C 3.447591 -0.122846 -2.281295 0
M  V30 12 C 2.524861 1.069589 -2.574141 0
M  V30 13 N 2.040611 1.543169 -1.298261 0
M  V30 14 C -1.369951 -0.395754 1.716996 0
M  V30 15 C -1.995074 0.709057 2.238615 0
M  V30 16 C -3.293296 0.628700 2.598136 0
M  V30 17 S -3.714276 -1.065426 2.206369 0
M  V30 18 C -2.137623 -1.541374 1.594959 0
M  V30 19 N -1.658466 -2.702102 1.099491 0
M  V30 20 C -4.255601 1.562115 3.167221 0
M  V30 21 C -3.596647 2.868289 3.428053 0
M  V30 22 C -2.144959 2.564339 3.816042 0
M  V30 23 C -1.510141 2.086782 2.515724 0
M  V30 24 C 1.412795 -4.214035 -0.268148 0
M  V30 25 C 1.921334 -5.383215 -0.774860 0
M  V30 26 N 1.092469 -6.448141 -0.855591 0
M  V30 27 H -0.802756 -7.204437 -0.527829 0
M  V30 28 H -1.747583 -5.138751 0.381016 0
M  V30 29 H 2.712386 0.132173 1.749856 0
M  V30 30 H 2.367808 1.811386 1.418186 0
M  V30 31 H 3.705682 1.063543 -0.241400 0
M  V30 32 H 1.770818 -0.995169 -1.445157 0
M  V30 33 H 3.328606 -1.348618 -0.485040 0
M  V30 34 H 4.470105 0.185194 -2.046321 0
M  V30 35 H 3.347816 -0.898528 -3.045015 0
M  V30 36 H 3.109006 1.831706 -3.118507 0
M  V30 37 H 1.662993 0.692305 -3.160628 0
M  V30 38 H 1.003406 1.586675 -1.230541 0
M  V30 39 H -5.155088 1.741785 2.537301 0
M  V30 40 H -4.685654 1.177238 4.136838 0
M  V30 41 H -3.534114 3.411752 2.441500 0
M  V30 42 H -4.092660 3.526659 4.155168 0
M  V30 43 H -1.615805 3.429325 4.213849 0
M  V30 44 H -2.127822 1.725567 4.559324 0
M  V30 45 H -1.662621 2.806620 1.720108 0
M  V30 46 H -0.406658 2.097267 2.726277 0
M  V30 47 H 2.030308 -3.339195 -0.182871 0
M  V30 48 H 2.949584 -5.446747 -1.097355 0
M  V30 END ATOM
M  V30 BEGIN BOND
M  V30 1 2 1 2
M  V30 2 1 2 3
M  V30 3 1 3 4
M  V30 4 2 4 5
M  V30 5 1 5 6
M  V30 6 1 6 7
M  V30 7 1 7 8
M  V30 8 1 8 9
M  V30 9 1 9 10
M  V30 10 1 10 11
M  V30 11 1 11 12
M  V30 12 1 12 13
M  V30 13 2 6 14
M  V30 14 1 14 15
M  V30 15 2 15 16
M  V30 16 1 16 17
M  V30 17 1 17 18
M  V30 18 2 18 19
M  V30 19 1 16 20
M  V30 20 1 20 21
M  V30 21 1 21 22
M  V30 22 1 22 23
M  V30 23 2 3 24
M  V30 24 1 24 25
M  V30 25 2 25 26
M  V30 26 1 26 1
M  V30 27 1 19 4
M  V30 28 1 13 9
M  V30 29 1 18 14
M  V30 30 1 23 15
M  V30 31 1 1 27
M  V30 32 1 2 28
M  V30 33 1 8 29
M  V30 34 1 8 30
M  V30 35 1 9 31 CFG=1
M  V30 36 1 10 32
M  V30 37 1 10 33
M  V30 38 1 11 34
M  V30 39 1 11 35
M  V30 40 1 12 36
M  V30 41 1 12 37
M  V30 42 1 13 38
M  V30 43 1 20 39
M  V30 44 1 20 40
M  V30 45 1 21 41
M  V30 46 1 21 42
M  V30 47 1 22 43
M  V30 48 1 22 44
M  V30 49 1 23 45
M  V30 50 1 23 46
M  V30 51 1 24 47
M  V30 52 1 25 48
M  V30 END BOND
M  V30 END CTAB
M  END
>  <Dataset>  (834) 
ChEMBL_Kinases

>  <Ligand_Instance>  (834) 
nan

>  <PDB_ID>  (834) 
nan

>  <Standardized_SMILES>  (834) 
c1cc(-c2nc(OC[C@H]3CCCN3)c3c4c(sc3n2)CCCC4)ccn1

>  <Name>  (834) 
nan

>  <Pocket>  (834) 
nan

>  <ATP_Site>  (834) 
nan

>  <Peripheral>  (834) 
nan

>  <Num_H_Atoms_ProtBoundConf>  (834) 
nan

>  <Num_Resolved_Atoms>  (834) 
nan

>  <Num_Not_Resolved_Atoms>  (834) 
nan

$$$$
CHEMBL573477
     RDKit          3D

  0  0  0  0  0  0  0  0  0  0999 V3000
M  V30 BEGIN CTAB
M  V30 COUNTS 36 39 0 0 0
M  V30 BEGIN ATOM
M  V30 1 O 2.466008 -0.560744 4.342860 0
M  V30 2 C 1.747063 -0.890797 3.369129 0
M  V30 3 N 2.146765 -1.680377 2.357713 0
M  V30 4 C 1.221181 -1.908812 1.417634 0
M  V30 5 C 1.735048 -2.803893 0.332562 0
M  V30 6 N 2.389183 -2.102152 -0.720524 0
M  V30 7 C 1.957122 -1.206749 -1.721868 0
M  V30 8 C 0.654121 -0.804103 -1.915538 0
M  V30 9 C 0.195908 0.048171 -2.877773 0
M  V30 10 C 1.131737 0.559805 -3.746812 0
M  V30 11 C 2.454410 0.208140 -3.622532 0
M  V30 12 C 2.850358 -0.652775 -2.634174 0
M  V30 13 O 4.216481 -0.983448 -2.546768 0
M  V30 14 N -0.005457 -1.411188 1.448948 0
M  V30 15 C -0.479021 -0.618634 2.419184 0
M  V30 16 C 0.466218 -0.379648 3.388323 0
M  V30 17 S -0.350241 0.669995 4.555679 0
M  V30 18 C -1.948406 0.712182 3.629259 0
M  V30 19 C -3.138503 1.386797 3.965809 0
M  V30 20 C -4.183981 1.257515 3.109411 0
M  V30 21 C -3.980831 0.480948 1.996475 0
M  V30 22 Cl -5.350653 0.324900 0.895704 0
M  V30 23 C -2.833511 -0.165663 1.678013 0
M  V30 24 C -1.731064 -0.081680 2.497540 0
M  V30 25 H 3.128617 -2.017989 2.429521 0
M  V30 26 H 2.341160 -3.615209 0.749041 0
M  V30 27 H 0.803981 -3.275605 -0.117319 0
M  V30 28 H 3.434694 -2.304659 -0.746623 0
M  V30 29 H -0.118566 -1.179012 -1.271689 0
M  V30 30 H -0.836212 0.334302 -2.989473 0
M  V30 31 H 0.860762 1.240048 -4.537809 0
M  V30 32 H 3.204792 0.598577 -4.294610 0
M  V30 33 H 4.779681 -0.290564 -2.072057 0
M  V30 34 H -3.139076 1.951898 4.867259 0
M  V30 35 H -5.080687 1.783558 3.391299 0
M  V30 36 H -2.795416 -0.750003 0.769193 0
M  V30 END ATOM
M  V30 BEGIN BOND
M  V30 1 2 1 2
M  V30 2 1 2 3
M  V30 3 1 3 4
M  V30 4 1 4 5
M  V30 5 1 5 6
M  V30 6 1 6 7
M  V30 7 2 7 8
M  V30 8 1 8 9
M  V30 9 2 9 10
M  V30 10 1 10 11
M  V30 11 2 11 12
M  V30 12 1 12 13
M  V30 13 2 4 14
M  V30 14 1 14 15
M  V30 15 2 15 16
M  V30 16 1 16 17
M  V30 17 1 17 18
M  V30 18 2 18 19
M  V30 19 1 19 20
M  V30 20 2 20 21
M  V30 21 1 21 22
M  V30 22 1 21 23
M  V30 23 2 23 24
M  V30 24 1 16 2
M  V30 25 1 24 18
M  V30 26 1 12 7
M  V30 27 1 24 15
M  V30 28 1 3 25
M  V30 29 1 5 26
M  V30 30 1 5 27
M  V30 31 1 6 28
M  V30 32 1 8 29
M  V30 33 1 9 30
M  V30 34 1 10 31
M  V30 35 1 11 32
M  V30 36 1 13 33
M  V30 37 1 19 34
M  V30 38 1 20 35
M  V30 39 1 23 36
M  V30 END BOND
M  V30 END CTAB
M  END
>  <Dataset>  (835) 
ChEMBL_Kinases

>  <Ligand_Instance>  (835) 
nan

>  <PDB_ID>  (835) 
nan

>  <Standardized_SMILES>  (835) 
O=c1[nH]c(CNc2ccccc2O)nc2c1sc1ccc(Cl)cc12

>  <Name>  (835) 
nan

>  <Pocket>  (835) 
nan

>  <ATP_Site>  (835) 
nan

>  <Peripheral>  (835) 
nan

>  <Num_H_Atoms_ProtBoundConf>  (835) 
nan

>  <Num_Resolved_Atoms>  (835) 
nan

>  <Num_Not_Resolved_Atoms>  (835) 
nan

$$$$
CHEMBL524450
     RDKit          3D

  0  0  0  0  0  0  0  0  0  0999 V3000
M  V30 BEGIN CTAB
M  V30 COUNTS 39 42 0 0 0
M  V30 BEGIN ATOM
M  V30 1 N 3.590843 -3.955651 5.028951 0
M  V30 2 C 2.314540 -3.998554 4.441819 0
M  V30 3 O 1.714973 -4.996300 4.926520 0
M  V30 4 C 1.852731 -3.023390 3.459222 0
M  V30 5 C 2.658754 -1.976426 3.044089 0
M  V30 6 C 2.137341 -1.103538 2.111631 0
M  V30 7 N 0.903698 -1.207086 1.585746 0
M  V30 8 C 0.168176 -0.513781 0.688473 0
M  V30 9 C 0.724434 0.660005 0.050757 0
M  V30 10 C 0.829931 0.494171 -1.334906 0
M  V30 11 C 1.332020 1.475327 -2.167248 0
M  V30 12 N 1.741930 2.654500 -1.620981 0
M  V30 13 C 1.617779 2.765667 -0.265827 0
M  V30 14 N 2.030188 3.980638 0.362608 0
M  V30 15 N 1.133701 1.828977 0.569711 0
M  V30 16 C -1.070722 -1.154441 0.577075 0
M  V30 17 C -2.111504 -0.643155 -0.327555 0
M  V30 18 C -2.647711 -1.319337 -1.393642 0
M  V30 19 C -3.636495 -0.705255 -2.170396 0
M  V30 20 C -3.997458 0.564599 -1.785992 0
M  V30 21 F -4.956930 1.167879 -2.535425 0
M  V30 22 C -3.500751 1.290127 -0.735700 0
M  V30 23 C -2.514103 0.642429 0.016831 0
M  V30 24 N -1.031871 -2.208189 1.411804 0
M  V30 25 C 0.164532 -2.244160 2.026129 0
M  V30 26 C 0.563356 -3.189457 2.954422 0
M  V30 27 H 4.318632 -4.107875 4.291979 0
M  V30 28 H 4.063909 -3.822640 5.958750 0
M  V30 29 H 3.655967 -1.867383 3.449076 0
M  V30 30 H 2.784182 -0.277757 1.790370 0
M  V30 31 H 0.538049 -0.396720 -1.889257 0
M  V30 32 H 1.425347 1.381713 -3.229244 0
M  V30 33 H 1.329047 4.560943 0.881875 0
M  V30 34 H 2.822334 4.621491 0.554668 0
M  V30 35 H -2.280112 -2.303673 -1.587182 0
M  V30 36 H -4.066347 -1.228751 -3.012059 0
M  V30 37 H -3.855906 2.290093 -0.515930 0
M  V30 38 H -2.114807 1.219803 0.855945 0
M  V30 39 H -0.044713 -3.995646 3.279007 0
M  V30 END ATOM
M  V30 BEGIN BOND
M  V30 1 1 1 2
M  V30 2 2 2 3
M  V30 3 1 2 4
M  V30 4 1 4 5
M  V30 5 2 5 6
M  V30 6 1 6 7
M  V30 7 1 7 8
M  V30 8 1 8 9
M  V30 9 2 9 10
M  V30 10 1 10 11
M  V30 11 2 11 12
M  V30 12 1 12 13
M  V30 13 1 13 14
M  V30 14 2 13 15
M  V30 15 2 8 16
M  V30 16 1 16 17
M  V30 17 2 17 18
M  V30 18 1 18 19
M  V30 19 2 19 20
M  V30 20 1 20 21
M  V30 21 1 20 22
M  V30 22 2 22 23
M  V30 23 1 16 24
M  V30 24 2 24 25
M  V30 25 1 25 26
M  V30 26 2 26 4
M  V30 27 1 25 7
M  V30 28 1 15 9
M  V30 29 1 23 17
M  V30 30 1 1 27
M  V30 31 1 1 28
M  V30 32 1 5 29
M  V30 33 1 6 30
M  V30 34 1 10 31
M  V30 35 1 11 32
M  V30 36 1 14 33
M  V30 37 1 14 34
M  V30 38 1 18 35
M  V30 39 1 19 36
M  V30 40 1 22 37
M  V30 41 1 23 38
M  V30 42 1 26 39
M  V30 END BOND
M  V30 END CTAB
M  END
>  <Dataset>  (836) 
ChEMBL_Kinases

>  <Ligand_Instance>  (836) 
nan

>  <PDB_ID>  (836) 
nan

>  <Standardized_SMILES>  (836) 
NC(=O)c1ccn2c(-c3ccnc(N)n3)c(-c3ccc(F)cc3)nc2c1

>  <Name>  (836) 
nan

>  <Pocket>  (836) 
nan

>  <ATP_Site>  (836) 
nan

>  <Peripheral>  (836) 
nan

>  <Num_H_Atoms_ProtBoundConf>  (836) 
nan

>  <Num_Resolved_Atoms>  (836) 
nan

>  <Num_Not_Resolved_Atoms>  (836) 
nan

$$$$
CHEMBL3728698
     RDKit          3D

  0  0  0  0  0  0  0  0  0  0999 V3000
M  V30 BEGIN CTAB
M  V30 COUNTS 41 44 0 0 0
M  V30 BEGIN ATOM
M  V30 1 C 1.794581 -4.388254 0.843802 0
M  V30 2 C 1.926356 -3.506102 -0.387764 0 CFG=1
M  V30 3 N 2.929063 -4.152342 -1.222895 0
M  V30 4 C 0.610872 -3.366958 -1.107223 0
M  V30 5 N -0.377324 -2.786273 -0.265648 0
M  V30 6 C -0.173667 -1.469301 0.202484 0
M  V30 7 N 0.893838 -0.718600 -0.103152 0
M  V30 8 C 0.949334 0.521993 0.411990 0
M  V30 9 C 2.077847 1.444588 0.145810 0
M  V30 10 C 3.063388 0.938680 -0.666432 0
M  V30 11 C 4.147493 1.735660 -0.961659 0
M  V30 12 N 4.267514 2.982862 -0.482078 0
M  V30 13 C 3.295494 3.489524 0.322420 0
M  V30 14 C 2.194208 2.721591 0.640750 0
M  V30 15 N 0.013255 1.049903 1.204235 0
M  V30 16 C -1.094463 0.401071 1.578905 0
M  V30 17 C -1.081767 -0.888772 1.001277 0
M  V30 18 S -2.682404 -1.645174 1.622775 0
M  V30 19 C -3.191878 -0.110498 2.605251 0
M  V30 20 C -4.291776 0.048684 3.332385 0
M  V30 21 C -4.453200 1.260262 3.964232 0
M  V30 22 C -3.453552 2.155048 3.762760 0
M  V30 23 C -2.322304 1.974971 3.007668 0
M  V30 24 Cl -1.162110 3.277442 2.890500 0
M  V30 25 C -2.133946 0.779030 2.366653 0
M  V30 26 H 1.951735 -5.425104 0.548893 0
M  V30 27 H 0.729056 -4.315813 1.175394 0
M  V30 28 H 2.510441 -4.100809 1.651445 0
M  V30 29 H 2.363089 -2.546773 -0.072273 0
M  V30 30 H 2.489646 -5.009412 -1.622593 0
M  V30 31 H 3.254015 -3.493419 -1.983212 0
M  V30 32 H 0.725230 -2.798059 -2.062367 0
M  V30 33 H 0.289363 -4.420394 -1.344814 0
M  V30 34 H -1.234404 -3.316891 0.002233 0
M  V30 35 H 3.012860 -0.067128 -1.080820 0
M  V30 36 H 4.910069 1.307797 -1.606235 0
M  V30 37 H 3.317930 4.485685 0.749328 0
M  V30 38 H 1.375677 3.039865 1.270315 0
M  V30 39 H -4.989323 -0.764740 3.389418 0
M  V30 40 H -5.329176 1.444557 4.568751 0
M  V30 41 H -3.568225 3.135553 4.264570 0
M  V30 END ATOM
M  V30 BEGIN BOND
M  V30 1 1 1 2
M  V30 2 1 2 3
M  V30 3 1 2 4
M  V30 4 1 4 5
M  V30 5 1 5 6
M  V30 6 2 6 7
M  V30 7 1 7 8
M  V30 8 1 8 9
M  V30 9 2 9 10
M  V30 10 1 10 11
M  V30 11 2 11 12
M  V30 12 1 12 13
M  V30 13 2 13 14
M  V30 14 2 8 15
M  V30 15 1 15 16
M  V30 16 2 16 17
M  V30 17 1 17 18
M  V30 18 1 18 19
M  V30 19 2 19 20
M  V30 20 1 20 21
M  V30 21 2 21 22
M  V30 22 1 22 23
M  V30 23 1 23 24
M  V30 24 2 23 25
M  V30 25 1 17 6
M  V30 26 1 25 19
M  V30 27 1 14 9
M  V30 28 1 25 16
M  V30 29 1 1 26
M  V30 30 1 1 27
M  V30 31 1 1 28
M  V30 32 1 2 29 CFG=1
M  V30 33 1 3 30
M  V30 34 1 3 31
M  V30 35 1 4 32
M  V30 36 1 4 33
M  V30 37 1 5 34
M  V30 38 1 10 35
M  V30 39 1 11 36
M  V30 40 1 13 37
M  V30 41 1 14 38
M  V30 42 1 20 39
M  V30 43 1 21 40
M  V30 44 1 22 41
M  V30 END BOND
M  V30 END CTAB
M  END
>  <Dataset>  (837) 
ChEMBL_Kinases

>  <Ligand_Instance>  (837) 
nan

>  <PDB_ID>  (837) 
nan

>  <Standardized_SMILES>  (837) 
C[C@@H](N)CNc1nc(-c2ccncc2)nc2c1sc1cccc(Cl)c12

>  <Name>  (837) 
nan

>  <Pocket>  (837) 
nan

>  <ATP_Site>  (837) 
nan

>  <Peripheral>  (837) 
nan

>  <Num_H_Atoms_ProtBoundConf>  (837) 
nan

>  <Num_Resolved_Atoms>  (837) 
nan

>  <Num_Not_Resolved_Atoms>  (837) 
nan

$$$$
CHEMBL524468
     RDKit          3D

  0  0  0  0  0  0  0  0  0  0999 V3000
M  V30 BEGIN CTAB
M  V30 COUNTS 30 33 0 0 0
M  V30 BEGIN ATOM
M  V30 1 C -0.876114 -2.471140 4.194816 0
M  V30 2 C 0.166059 -3.314190 3.868130 0
M  V30 3 C 0.622988 -3.384856 2.548944 0
M  V30 4 C 0.038117 -2.608647 1.540111 0
M  V30 5 O 0.680768 -2.876430 0.344938 0
M  V30 6 C 0.335246 -2.182278 -0.802789 0
M  V30 7 C -0.159399 -2.902342 -1.869584 0
M  V30 8 N -0.554484 -2.415780 -3.080841 0
M  V30 9 C -0.446251 -1.085806 -3.244206 0
M  V30 10 C 0.058117 -0.361861 -2.153474 0
M  V30 11 S 0.342945 1.481633 -2.037229 0
M  V30 12 C 0.952469 1.410582 -0.403436 0
M  V30 13 C 1.403601 2.606876 0.374767 0
M  V30 14 N 2.394949 3.460655 0.095451 0
M  V30 15 N 2.441969 4.365832 1.051313 0
M  V30 16 N 1.493513 4.117853 1.956107 0
M  V30 17 N 0.853513 3.029049 1.533889 0
M  V30 18 C 0.912316 0.123018 -0.065083 0
M  V30 19 C 0.462759 -0.810711 -0.929681 0
M  V30 20 C -1.001689 -1.774469 1.892129 0
M  V30 21 C -1.437310 -1.716115 3.185875 0
M  V30 22 H -1.309070 -2.336277 5.178162 0
M  V30 23 H 0.568059 -3.879842 4.687978 0
M  V30 24 H 1.446936 -4.096242 2.467127 0
M  V30 25 H -0.258214 -3.998162 -1.760637 0
M  V30 26 H -0.718357 -0.553461 -4.144915 0
M  V30 27 H 1.157369 4.542266 2.850948 0
M  V30 28 H 1.263238 -0.132548 0.949583 0
M  V30 29 H -1.366765 -1.236912 1.028297 0
M  V30 30 H -2.264402 -1.016835 3.326212 0
M  V30 END ATOM
M  V30 BEGIN BOND
M  V30 1 2 1 2
M  V30 2 1 2 3
M  V30 3 2 3 4
M  V30 4 1 4 5
M  V30 5 1 5 6
M  V30 6 2 6 7
M  V30 7 1 7 8
M  V30 8 2 8 9
M  V30 9 1 9 10
M  V30 10 1 10 11
M  V30 11 1 11 12
M  V30 12 1 12 13
M  V30 13 1 13 14
M  V30 14 2 14 15
M  V30 15 1 15 16
M  V30 16 1 16 17
M  V30 17 2 12 18
M  V30 18 1 18 19
M  V30 19 1 4 20
M  V30 20 2 20 21
M  V30 21 1 21 1
M  V30 22 1 19 6
M  V30 23 2 19 10
M  V30 24 2 17 13
M  V30 25 1 1 22
M  V30 26 1 2 23
M  V30 27 1 3 24
M  V30 28 1 7 25
M  V30 29 1 9 26
M  V30 30 1 16 27
M  V30 31 1 18 28
M  V30 32 1 20 29
M  V30 33 1 21 30
M  V30 END BOND
M  V30 END CTAB
M  END
>  <Dataset>  (838) 
ChEMBL_Kinases

>  <Ligand_Instance>  (838) 
nan

>  <PDB_ID>  (838) 
nan

>  <Standardized_SMILES>  (838) 
c1ccc(Oc2cncc3sc(-c4nn[nH]n4)cc23)cc1

>  <Name>  (838) 
nan

>  <Pocket>  (838) 
nan

>  <ATP_Site>  (838) 
nan

>  <Peripheral>  (838) 
nan

>  <Num_H_Atoms_ProtBoundConf>  (838) 
nan

>  <Num_Resolved_Atoms>  (838) 
nan

>  <Num_Not_Resolved_Atoms>  (838) 
nan

$$$$
CHEMBL3728690
     RDKit          3D

  0  0  0  0  0  0  0  0  0  0999 V3000
M  V30 BEGIN CTAB
M  V30 COUNTS 48 51 0 0 0
M  V30 BEGIN ATOM
M  V30 1 C 3.166181 -4.088295 -1.004478 0
M  V30 2 C 1.957739 -3.610468 -0.252691 0 CFG=2
M  V30 3 N 0.809609 -4.262895 -0.848611 0
M  V30 4 C 1.841337 -2.128607 -0.208959 0
M  V30 5 N 0.692608 -1.688478 0.506084 0
M  V30 6 C 0.414508 -0.290200 0.658030 0
M  V30 7 N 1.276884 0.508899 0.032015 0
M  V30 8 C 1.262896 1.828261 -0.047602 0
M  V30 9 C 2.250548 2.606419 -0.754349 0
M  V30 10 C 3.288748 1.970720 -1.399454 0
M  V30 11 C 4.165561 2.843248 -2.039127 0
M  V30 12 N 4.069742 4.187308 -2.066089 0
M  V30 13 C 3.054267 4.794747 -1.434140 0
M  V30 14 C 2.148759 3.982389 -0.779506 0
M  V30 15 N 0.230707 2.389268 0.599009 0
M  V30 16 C -0.665035 1.610857 1.246589 0
M  V30 17 S -2.132910 2.114017 2.175007 0
M  V30 18 C -2.638351 0.503280 2.619415 0
M  V30 19 C -1.665063 -0.354005 2.041753 0
M  V30 20 C -0.655143 0.233646 1.334495 0
M  V30 21 C -1.731262 -1.816294 2.247735 0
M  V30 22 C -2.796079 -2.163748 3.302272 0
M  V30 23 C -4.117935 -2.028732 2.623895 0
M  V30 24 C -4.801891 -0.722974 2.932068 0
M  V30 25 C -3.837967 0.336132 3.403804 0
M  V30 26 H 2.889696 -4.388806 -2.040057 0
M  V30 27 H 3.909723 -3.264898 -1.038846 0
M  V30 28 H 3.530180 -4.990781 -0.496069 0
M  V30 29 H 2.004215 -3.969385 0.817119 0
M  V30 30 H 0.265098 -3.632963 -1.475980 0
M  V30 31 H 1.035607 -5.166187 -1.314560 0
M  V30 32 H 1.797551 -1.783025 -1.285802 0
M  V30 33 H 2.788274 -1.741152 0.229474 0
M  V30 34 H 0.224137 -2.558465 0.798889 0
M  V30 35 H 3.433645 0.915573 -1.424450 0
M  V30 36 H 5.030019 2.480681 -2.587496 0
M  V30 37 H 2.891332 5.858696 -1.397781 0
M  V30 38 H 1.301439 4.430065 -0.248220 0
M  V30 39 H -0.788467 -2.212782 2.701049 0
M  V30 40 H -1.995574 -2.417587 1.392911 0
M  V30 41 H -2.600502 -3.194939 3.677104 0
M  V30 42 H -2.747310 -1.519672 4.181284 0
M  V30 43 H -4.059642 -2.122232 1.514710 0
M  V30 44 H -4.764411 -2.883514 2.956336 0
M  V30 45 H -5.514378 -0.906922 3.762594 0
M  V30 46 H -5.367094 -0.365061 2.056374 0
M  V30 47 H -4.437548 1.293871 3.339599 0
M  V30 48 H -3.670426 0.217776 4.489382 0
M  V30 END ATOM
M  V30 BEGIN BOND
M  V30 1 1 1 2
M  V30 2 1 2 3
M  V30 3 1 2 4
M  V30 4 1 4 5
M  V30 5 1 5 6
M  V30 6 2 6 7
M  V30 7 1 7 8
M  V30 8 1 8 9
M  V30 9 2 9 10
M  V30 10 1 10 11
M  V30 11 2 11 12
M  V30 12 1 12 13
M  V30 13 2 13 14
M  V30 14 2 8 15
M  V30 15 1 15 16
M  V30 16 1 16 17
M  V30 17 1 17 18
M  V30 18 2 18 19
M  V30 19 1 19 20
M  V30 20 1 19 21
M  V30 21 1 21 22
M  V30 22 1 22 23
M  V30 23 1 23 24
M  V30 24 1 24 25
M  V30 25 1 20 6
M  V30 26 1 14 9
M  V30 27 2 20 16
M  V30 28 1 25 18
M  V30 29 1 1 26
M  V30 30 1 1 27
M  V30 31 1 1 28
M  V30 32 1 2 29 CFG=1
M  V30 33 1 3 30
M  V30 34 1 3 31
M  V30 35 1 4 32
M  V30 36 1 4 33
M  V30 37 1 5 34
M  V30 38 1 10 35
M  V30 39 1 11 36
M  V30 40 1 13 37
M  V30 41 1 14 38
M  V30 42 1 21 39
M  V30 43 1 21 40
M  V30 44 1 22 41
M  V30 45 1 22 42
M  V30 46 1 23 43
M  V30 47 1 23 44
M  V30 48 1 24 45
M  V30 49 1 24 46
M  V30 50 1 25 47
M  V30 51 1 25 48
M  V30 END BOND
M  V30 END CTAB
M  END
>  <Dataset>  (839) 
ChEMBL_Kinases

>  <Ligand_Instance>  (839) 
nan

>  <PDB_ID>  (839) 
nan

>  <Standardized_SMILES>  (839) 
C[C@H](N)CNc1nc(-c2ccncc2)nc2sc3c(c12)CCCCC3

>  <Name>  (839) 
nan

>  <Pocket>  (839) 
nan

>  <ATP_Site>  (839) 
nan

>  <Peripheral>  (839) 
nan

>  <Num_H_Atoms_ProtBoundConf>  (839) 
nan

>  <Num_Resolved_Atoms>  (839) 
nan

>  <Num_Not_Resolved_Atoms>  (839) 
nan

$$$$
CHEMBL524647
     RDKit          3D

  0  0  0  0  0  0  0  0  0  0999 V3000
M  V30 BEGIN CTAB
M  V30 COUNTS 71 75 0 0 0
M  V30 BEGIN ATOM
M  V30 1 C 6.685181 -0.050159 5.155589 0
M  V30 2 C 6.672614 1.158601 4.239832 0
M  V30 3 C 7.978726 1.148749 3.492419 0
M  V30 4 N 5.569082 1.100426 3.303373 0
M  V30 5 C 4.507819 2.026039 3.125582 0
M  V30 6 O 4.593345 3.002313 3.913957 0
M  V30 7 C 3.454422 1.846525 2.140771 0
M  V30 8 C 3.343478 0.791563 1.257450 0
M  V30 9 C 2.277044 0.773472 0.390193 0
M  V30 10 C 1.321651 1.748112 0.361470 0
M  V30 11 C 1.438948 2.785198 1.234166 0
M  V30 12 C 2.491882 2.843456 2.120431 0
M  V30 13 N 0.364136 3.708592 1.040527 0
M  V30 14 C -0.457304 3.209962 -0.006788 0
M  V30 15 O -1.503860 3.696924 -0.504211 0
M  V30 16 C 0.143995 1.964361 -0.441109 0
M  V30 17 C -0.251708 1.091130 -1.331017 0
M  V30 18 N -1.447002 1.510923 -2.030296 0
M  V30 19 C -2.547987 0.603002 -1.998762 0
M  V30 20 C -2.878587 -0.343285 -2.944904 0
M  V30 21 C -3.980495 -1.141546 -2.730033 0
M  V30 22 C -4.805071 -1.077622 -1.623534 0
M  V30 23 C -5.978911 -1.965842 -1.435182 0
M  V30 24 N -5.582371 -3.122482 -0.712377 0
M  V30 25 C -4.583829 -3.943372 -1.295584 0
M  V30 26 C -4.042858 -4.975525 -0.324299 0
M  V30 27 C -5.205503 -5.481197 0.498402 0
M  V30 28 C -5.732321 -4.366411 1.393900 0
M  V30 29 C -5.597454 -3.030455 0.708245 0
M  V30 30 C -4.451513 -0.116775 -0.685795 0
M  V30 31 C -3.348278 0.714795 -0.854980 0
M  V30 32 C 0.192326 -0.235681 -1.682470 0
M  V30 33 C 0.531197 -0.273051 -3.045031 0
M  V30 34 C 0.937421 -1.440981 -3.687088 0
M  V30 35 C 1.007946 -2.603824 -2.952485 0
M  V30 36 C 0.687238 -2.624445 -1.614360 0
M  V30 37 C 0.289484 -1.461065 -1.002630 0
M  V30 38 H 5.937786 0.043233 5.969513 0
M  V30 39 H 6.539481 -0.983244 4.578222 0
M  V30 40 H 7.681361 -0.102980 5.641626 0
M  V30 41 H 6.549225 2.098580 4.823917 0
M  V30 42 H 8.364719 0.099058 3.348290 0
M  V30 43 H 7.906794 1.605313 2.479161 0
M  V30 44 H 8.750408 1.690952 4.070818 0
M  V30 45 H 5.637022 0.236334 2.722985 0
M  V30 46 H 4.146495 0.079960 1.364494 0
M  V30 47 H 2.377900 -0.091963 -0.224071 0
M  V30 48 H 2.541952 3.697378 2.802492 0
M  V30 49 H 0.174704 4.601098 1.551235 0
M  V30 50 H -1.397105 2.460034 -2.505743 0
M  V30 51 H -2.246695 -0.395604 -3.801880 0
M  V30 52 H -4.173118 -1.854978 -3.516590 0
M  V30 53 H -6.851588 -1.442357 -1.017275 0
M  V30 54 H -6.248920 -2.306776 -2.476101 0
M  V30 55 H -3.723453 -3.330260 -1.693980 0
M  V30 56 H -4.948744 -4.508164 -2.187781 0
M  V30 57 H -3.641352 -5.824565 -0.916039 0
M  V30 58 H -3.244373 -4.528545 0.330622 0
M  V30 59 H -4.919632 -6.380689 1.096560 0
M  V30 60 H -6.018633 -5.746652 -0.199565 0
M  V30 61 H -6.769628 -4.589515 1.716811 0
M  V30 62 H -5.105798 -4.356270 2.308065 0
M  V30 63 H -6.515605 -2.449221 1.002188 0
M  V30 64 H -4.737669 -2.474612 1.133855 0
M  V30 65 H -5.089309 -0.054488 0.188348 0
M  V30 66 H -3.170301 1.436634 -0.043304 0
M  V30 67 H 0.523448 0.569288 -3.756631 0
M  V30 68 H 1.204836 -1.504740 -4.731155 0
M  V30 69 H 1.312526 -3.564456 -3.359063 0
M  V30 70 H 0.703449 -3.460043 -0.944899 0
M  V30 71 H -0.005793 -1.267592 0.041102 0
M  V30 END ATOM
M  V30 BEGIN BOND
M  V30 1 1 1 2
M  V30 2 1 2 3
M  V30 3 1 2 4
M  V30 4 1 4 5
M  V30 5 2 5 6
M  V30 6 1 5 7
M  V30 7 2 7 8
M  V30 8 1 8 9
M  V30 9 2 9 10
M  V30 10 1 10 11
M  V30 11 2 11 12
M  V30 12 1 11 13
M  V30 13 1 13 14
M  V30 14 2 14 15
M  V30 15 1 14 16
M  V30 16 2 16 17
M  V30 17 1 17 18
M  V30 18 1 18 19
M  V30 19 2 19 20
M  V30 20 1 20 21
M  V30 21 2 21 22
M  V30 22 1 22 23
M  V30 23 1 23 24
M  V30 24 1 24 25
M  V30 25 1 25 26
M  V30 26 1 26 27
M  V30 27 1 27 28
M  V30 28 1 28 29
M  V30 29 1 22 30
M  V30 30 2 30 31
M  V30 31 1 17 32
M  V30 32 2 32 33
M  V30 33 1 33 34
M  V30 34 2 34 35
M  V30 35 1 35 36
M  V30 36 2 36 37
M  V30 37 1 12 7
M  V30 38 1 31 19
M  V30 39 1 37 32
M  V30 40 1 16 10
M  V30 41 1 29 24
M  V30 42 1 1 38
M  V30 43 1 1 39
M  V30 44 1 1 40
M  V30 45 1 2 41
M  V30 46 1 3 42
M  V30 47 1 3 43
M  V30 48 1 3 44
M  V30 49 1 4 45
M  V30 50 1 8 46
M  V30 51 1 9 47
M  V30 52 1 12 48
M  V30 53 1 13 49
M  V30 54 1 18 50
M  V30 55 1 20 51
M  V30 56 1 21 52
M  V30 57 1 23 53
M  V30 58 1 23 54
M  V30 59 1 25 55
M  V30 60 1 25 56
M  V30 61 1 26 57
M  V30 62 1 26 58
M  V30 63 1 27 59
M  V30 64 1 27 60
M  V30 65 1 28 61
M  V30 66 1 28 62
M  V30 67 1 29 63
M  V30 68 1 29 64
M  V30 69 1 30 65
M  V30 70 1 31 66
M  V30 71 1 33 67
M  V30 72 1 34 68
M  V30 73 1 35 69
M  V30 74 1 36 70
M  V30 75 1 37 71
M  V30 END BOND
M  V30 END CTAB
M  END
>  <Dataset>  (840) 
ChEMBL_Kinases

>  <Ligand_Instance>  (840) 
nan

>  <PDB_ID>  (840) 
nan

>  <Standardized_SMILES>  (840) 
CC(C)NC(=O)c1ccc2c(c1)NC(=O)/C2=C(\Nc1ccc(CN2CCCCC2)cc1)c1ccccc1

>  <Name>  (840) 
nan

>  <Pocket>  (840) 
nan

>  <ATP_Site>  (840) 
nan

>  <Peripheral>  (840) 
nan

>  <Num_H_Atoms_ProtBoundConf>  (840) 
nan

>  <Num_Resolved_Atoms>  (840) 
nan

>  <Num_Not_Resolved_Atoms>  (840) 
nan

$$$$
CHEMBL524828
     RDKit          3D

  0  0  0  0  0  0  0  0  0  0999 V3000
M  V30 BEGIN CTAB
M  V30 COUNTS 34 36 0 0 0
M  V30 BEGIN ATOM
M  V30 1 N -0.189405 -3.635228 6.042690 0
M  V30 2 C 0.033120 -3.460656 4.905748 0
M  V30 3 C 0.303649 -3.233446 3.523730 0
M  V30 4 C 1.451409 -3.660281 2.906192 0
M  V30 5 C 1.654757 -3.411424 1.572901 0
M  V30 6 C 0.691881 -2.729055 0.867796 0
M  V30 7 C 0.818745 -2.413696 -0.567955 0
M  V30 8 C 1.228801 -3.221412 -1.598132 0
M  V30 9 N 1.164349 -2.445174 -2.719214 0
M  V30 10 C 0.734088 -1.220104 -2.384361 0
M  V30 11 C 0.522417 -0.123369 -3.195909 0
M  V30 12 C 0.071462 1.018837 -2.564769 0
M  V30 13 C -0.147828 1.040616 -1.203302 0
M  V30 14 N -0.612982 2.214829 -0.544357 0
M  V30 15 C -0.856885 2.276606 0.895577 0
M  V30 16 C -1.346931 3.680622 1.260370 0
M  V30 17 O -1.590838 3.783876 2.618386 0
M  V30 18 N 0.075456 -0.059300 -0.459849 0
M  V30 19 N 0.513673 -1.176167 -1.059500 0
M  V30 20 C -0.480342 -2.287753 1.478238 0
M  V30 21 C -0.678873 -2.540645 2.817404 0
M  V30 22 H 2.200109 -4.198146 3.481906 0
M  V30 23 H 2.544381 -3.725513 1.031091 0
M  V30 24 H 1.533238 -4.270579 -1.474710 0
M  V30 25 H 0.687366 -0.122576 -4.253887 0
M  V30 26 H -0.134153 1.954185 -3.096339 0
M  V30 27 H -0.787582 3.080468 -1.136415 0
M  V30 28 H 0.099841 2.136946 1.440335 0
M  V30 29 H -1.565347 1.511021 1.219006 0
M  V30 30 H -0.514216 4.395861 1.028493 0
M  V30 31 H -2.189085 3.928582 0.611141 0
M  V30 32 H -2.409261 3.307783 2.838237 0
M  V30 33 H -1.229592 -1.751251 0.908732 0
M  V30 34 H -1.597028 -2.187940 3.268967 0
M  V30 END ATOM
M  V30 BEGIN BOND
M  V30 1 3 1 2
M  V30 2 1 2 3
M  V30 3 2 3 4
M  V30 4 1 4 5
M  V30 5 2 5 6
M  V30 6 1 6 7
M  V30 7 2 7 8
M  V30 8 1 8 9
M  V30 9 2 9 10
M  V30 10 1 10 11
M  V30 11 2 11 12
M  V30 12 1 12 13
M  V30 13 1 13 14
M  V30 14 1 14 15
M  V30 15 1 15 16
M  V30 16 1 16 17
M  V30 17 2 13 18
M  V30 18 1 18 19
M  V30 19 1 6 20
M  V30 20 2 20 21
M  V30 21 1 21 3
M  V30 22 1 19 7
M  V30 23 1 19 10
M  V30 24 1 4 22
M  V30 25 1 5 23
M  V30 26 1 8 24
M  V30 27 1 11 25
M  V30 28 1 12 26
M  V30 29 1 14 27
M  V30 30 1 15 28
M  V30 31 1 15 29
M  V30 32 1 16 30
M  V30 33 1 16 31
M  V30 34 1 17 32
M  V30 35 1 20 33
M  V30 36 1 21 34
M  V30 END BOND
M  V30 END CTAB
M  END
>  <Dataset>  (841) 
ChEMBL_Kinases

>  <Ligand_Instance>  (841) 
nan

>  <PDB_ID>  (841) 
nan

>  <Standardized_SMILES>  (841) 
N#Cc1ccc(-c2cnc3ccc(NCCO)nn23)cc1

>  <Name>  (841) 
nan

>  <Pocket>  (841) 
nan

>  <ATP_Site>  (841) 
nan

>  <Peripheral>  (841) 
nan

>  <Num_H_Atoms_ProtBoundConf>  (841) 
nan

>  <Num_Resolved_Atoms>  (841) 
nan

>  <Num_Not_Resolved_Atoms>  (841) 
nan

$$$$
CHEMBL525194
     RDKit          3D

  0  0  0  0  0  0  0  0  0  0999 V3000
M  V30 BEGIN CTAB
M  V30 COUNTS 31 34 0 0 0
M  V30 BEGIN ATOM
M  V30 1 C -0.294577 -2.601684 3.492121 0
M  V30 2 C 0.536373 -3.609392 3.993019 0
M  V30 3 N 1.733967 -3.893543 3.430300 0
M  V30 4 N 2.162093 -3.213822 2.369958 0
M  V30 5 N 3.280072 -3.314713 1.663905 0
M  V30 6 C 3.274640 -2.406111 0.668716 0
M  V30 7 C 2.089044 -1.671425 0.727219 0
M  V30 8 C 1.648093 -0.585184 -0.145037 0
M  V30 9 C 2.503987 -0.219771 -1.172224 0
M  V30 10 C 2.173318 0.792489 -2.043697 0
M  V30 11 N 1.004837 1.392592 -1.849796 0
M  V30 12 C 0.158313 1.041748 -0.845476 0
M  V30 13 N -1.075191 1.720281 -0.690311 0
M  V30 14 C -2.064402 1.460183 0.318486 0
M  V30 15 C -2.739179 0.185059 0.489053 0
M  V30 16 C -3.460269 1.242491 -0.296582 0
M  V30 17 N 0.467422 0.055055 0.013637 0
M  V30 18 C 1.433722 -2.220417 1.809827 0
M  V30 19 C 0.217823 -1.943941 2.394362 0
M  V30 20 H -1.255080 -2.356512 3.924446 0
M  V30 21 H 0.226384 -4.176953 4.843690 0
M  V30 22 H 4.067070 -2.254109 -0.077536 0
M  V30 23 H 3.455156 -0.727855 -1.308526 0
M  V30 24 H 2.805653 1.126934 -2.873484 0
M  V30 25 H -1.329711 2.499435 -1.361101 0
M  V30 26 H -1.993560 2.148008 1.192538 0
M  V30 27 H -2.449844 -0.750945 -0.023715 0
M  V30 28 H -3.207057 -0.011501 1.476883 0
M  V30 29 H -4.242389 1.859298 0.171743 0
M  V30 30 H -3.555986 1.064199 -1.366123 0
M  V30 31 H -0.416084 -1.154206 1.989167 0
M  V30 END ATOM
M  V30 BEGIN BOND
M  V30 1 1 1 2
M  V30 2 2 2 3
M  V30 3 1 3 4
M  V30 4 1 4 5
M  V30 5 2 5 6
M  V30 6 1 6 7
M  V30 7 1 7 8
M  V30 8 2 8 9
M  V30 9 1 9 10
M  V30 10 2 10 11
M  V30 11 1 11 12
M  V30 12 1 12 13
M  V30 13 1 13 14
M  V30 14 1 14 15
M  V30 15 1 15 16
M  V30 16 2 12 17
M  V30 17 2 7 18
M  V30 18 1 18 19
M  V30 19 2 19 1
M  V30 20 1 18 4
M  V30 21 1 17 8
M  V30 22 1 16 14
M  V30 23 1 1 20
M  V30 24 1 2 21
M  V30 25 1 6 22
M  V30 26 1 9 23
M  V30 27 1 10 24
M  V30 28 1 13 25
M  V30 29 1 14 26
M  V30 30 1 15 27
M  V30 31 1 15 28
M  V30 32 1 16 29
M  V30 33 1 16 30
M  V30 34 1 19 31
M  V30 END BOND
M  V30 END CTAB
M  END
>  <Dataset>  (842) 
ChEMBL_Kinases

>  <Ligand_Instance>  (842) 
nan

>  <PDB_ID>  (842) 
nan

>  <Standardized_SMILES>  (842) 
c1cnn2ncc(-c3ccnc(NC4CC4)n3)c2c1

>  <Name>  (842) 
nan

>  <Pocket>  (842) 
nan

>  <ATP_Site>  (842) 
nan

>  <Peripheral>  (842) 
nan

>  <Num_H_Atoms_ProtBoundConf>  (842) 
nan

>  <Num_Resolved_Atoms>  (842) 
nan

>  <Num_Not_Resolved_Atoms>  (842) 
nan

$$$$
CHEMBL525196
     RDKit          3D

  0  0  0  0  0  0  0  0  0  0999 V3000
M  V30 BEGIN CTAB
M  V30 COUNTS 60 65 0 0 0
M  V30 BEGIN ATOM
M  V30 1 N 4.827897 -1.810701 3.316646 0
M  V30 2 C 4.505187 -1.014375 2.185995 0
M  V30 3 N 5.421168 -0.941140 1.218240 0
M  V30 4 C 5.282494 -0.234594 0.085621 0
M  V30 5 C 4.105439 0.465094 -0.087986 0
M  V30 6 C 3.137284 0.410814 0.893216 0
M  V30 7 C 1.833328 1.064120 0.939829 0
M  V30 8 C 1.462199 2.377942 1.065193 0
M  V30 9 C 2.415758 3.457652 1.196645 0
M  V30 10 C 2.344828 4.386576 0.166358 0
M  V30 11 C 3.203695 5.489955 0.145845 0
M  V30 12 C 4.123475 5.622562 1.185277 0
M  V30 13 F 5.000187 6.646055 1.264907 0
M  V30 14 C 4.190536 4.699937 2.203421 0
M  V30 15 C 3.326303 3.619929 2.193663 0
M  V30 16 N 0.098930 2.401145 1.039043 0
M  V30 17 C -0.371883 1.148957 0.900375 0
M  V30 18 C -1.690629 0.722909 0.824314 0
M  V30 19 C -1.919485 -0.651420 0.674049 0
M  V30 20 C -3.324355 -1.124344 0.584957 0
M  V30 21 C -3.647364 -1.632529 -0.809957 0
M  V30 22 C -4.537593 -2.878023 -0.634395 0
M  V30 23 N -3.775420 -3.833458 0.012248 0
M  V30 24 C -3.435503 -5.077662 -0.458595 0
M  V30 25 C -2.457465 -5.054578 -1.586936 0
M  V30 26 C -2.853765 -4.361655 -2.866038 0
M  V30 27 C -2.602419 -5.838896 -2.831326 0
M  V30 28 C -3.497906 -3.527938 1.385230 0
M  V30 29 C -3.719347 -2.087019 1.659968 0
M  V30 30 C -0.839245 -1.509163 0.609667 0
M  V30 31 C 0.436529 -0.990890 0.695157 0
M  V30 32 N 0.704668 0.336455 0.841139 0
M  V30 33 N 3.352326 -0.330657 2.020016 0
M  V30 34 H 5.018108 -1.554985 4.330308 0
M  V30 35 H 4.973750 -2.823395 3.513041 0
M  V30 36 H 6.014822 -0.164452 -0.710533 0
M  V30 37 H 3.838013 1.071317 -0.930300 0
M  V30 38 H 1.660722 4.366504 -0.684869 0
M  V30 39 H 3.188624 6.242842 -0.637079 0
M  V30 40 H 4.863965 4.720190 3.038965 0
M  V30 41 H 3.318669 2.842096 2.968972 0
M  V30 42 H -2.506149 1.423005 0.878354 0
M  V30 43 H -3.964435 -0.226460 0.710059 0
M  V30 44 H -4.189058 -0.927328 -1.429741 0
M  V30 45 H -2.724115 -1.986195 -1.302789 0
M  V30 46 H -5.117641 -3.119015 -1.515151 0
M  V30 47 H -5.315133 -2.500920 0.132917 0
M  V30 48 H -2.958072 -5.756828 0.323693 0
M  V30 49 H -4.352780 -5.592281 -0.857742 0
M  V30 50 H -1.383381 -4.818148 -1.257217 0
M  V30 51 H -2.101957 -3.691580 -3.340135 0
M  V30 52 H -3.869456 -4.109065 -3.138559 0
M  V30 53 H -3.435822 -6.537117 -2.933543 0
M  V30 54 H -1.662167 -6.140114 -3.343430 0
M  V30 55 H -2.545611 -3.935775 1.739554 0
M  V30 56 H -4.283016 -4.088368 1.976676 0
M  V30 57 H -3.108855 -1.829376 2.564518 0
M  V30 58 H -4.774991 -1.884730 2.004270 0
M  V30 59 H -0.991252 -2.569672 0.493748 0
M  V30 60 H 1.264043 -1.706176 0.639099 0
M  V30 END ATOM
M  V30 BEGIN BOND
M  V30 1 1 1 2
M  V30 2 2 2 3
M  V30 3 1 3 4
M  V30 4 2 4 5
M  V30 5 1 5 6
M  V30 6 1 6 7
M  V30 7 2 7 8
M  V30 8 1 8 9
M  V30 9 2 9 10
M  V30 10 1 10 11
M  V30 11 2 11 12
M  V30 12 1 12 13
M  V30 13 1 12 14
M  V30 14 2 14 15
M  V30 15 1 8 16
M  V30 16 2 16 17
M  V30 17 1 17 18
M  V30 18 2 18 19
M  V30 19 1 19 20
M  V30 20 1 20 21
M  V30 21 1 21 22
M  V30 22 1 22 23
M  V30 23 1 23 24
M  V30 24 1 24 25
M  V30 25 1 25 26
M  V30 26 1 26 27
M  V30 27 1 23 28
M  V30 28 1 28 29
M  V30 29 1 19 30
M  V30 30 2 30 31
M  V30 31 1 31 32
M  V30 32 2 6 33
M  V30 33 1 33 2
M  V30 34 1 32 7
M  V30 35 1 15 9
M  V30 36 1 32 17
M  V30 37 1 29 20
M  V30 38 1 27 25
M  V30 39 1 1 34
M  V30 40 1 1 35
M  V30 41 1 4 36
M  V30 42 1 5 37
M  V30 43 1 10 38
M  V30 44 1 11 39
M  V30 45 1 14 40
M  V30 46 1 15 41
M  V30 47 1 18 42
M  V30 48 1 20 43
M  V30 49 1 21 44
M  V30 50 1 21 45
M  V30 51 1 22 46
M  V30 52 1 22 47
M  V30 53 1 24 48
M  V30 54 1 24 49
M  V30 55 1 25 50
M  V30 56 1 26 51
M  V30 57 1 26 52
M  V30 58 1 27 53
M  V30 59 1 27 54
M  V30 60 1 28 55
M  V30 61 1 28 56
M  V30 62 1 29 57
M  V30 63 1 29 58
M  V30 64 1 30 59
M  V30 65 1 31 60
M  V30 END BOND
M  V30 END CTAB
M  END
>  <Dataset>  (843) 
ChEMBL_Kinases

>  <Ligand_Instance>  (843) 
nan

>  <PDB_ID>  (843) 
nan

>  <Standardized_SMILES>  (843) 
Nc1nccc(-c2c(-c3ccc(F)cc3)nc3cc(C4CCN(CC5CC5)CC4)ccn23)n1

>  <Name>  (843) 
nan

>  <Pocket>  (843) 
nan

>  <ATP_Site>  (843) 
nan

>  <Peripheral>  (843) 
nan

>  <Num_H_Atoms_ProtBoundConf>  (843) 
nan

>  <Num_Resolved_Atoms>  (843) 
nan

>  <Num_Not_Resolved_Atoms>  (843) 
nan

$$$$
CHEMBL525385
     RDKit          3D

  0  0  0  0  0  0  0  0  0  0999 V3000
M  V30 BEGIN CTAB
M  V30 COUNTS 229 231 0 0 0
M  V30 BEGIN ATOM
M  V30 1 N 3.631010 -4.574470 5.019969 0
M  V30 2 C 3.302067 -5.401999 5.969384 0
M  V30 3 N 3.493230 -6.809471 5.758424 0
M  V30 4 N 2.758301 -4.945191 7.176179 0
M  V30 5 C 1.891330 -3.791234 7.189262 0
M  V30 6 C 0.588412 -4.060359 6.476055 0
M  V30 7 C -0.215423 -5.183278 7.069676 0
M  V30 8 C -1.496700 -5.387444 6.246175 0 CFG=1
M  V30 9 N -1.096302 -5.698202 4.886454 0
M  V30 10 C -1.484350 -4.993508 3.700717 0
M  V30 11 O -2.258816 -4.002093 3.863540 0
M  V30 12 C -0.840574 -5.641015 2.511849 0 CFG=1
M  V30 13 C -1.161376 -7.096820 2.444317 0
M  V30 14 C -0.575850 -7.836160 1.283898 0
M  V30 15 C 0.916693 -7.747799 1.317077 0
M  V30 16 N 1.513758 -8.472477 0.195213 0
M  V30 17 C 2.883603 -8.679027 -0.165342 0
M  V30 18 N 3.666237 -7.918848 0.514710 0
M  V30 19 N 3.172521 -9.665732 -1.185860 0
M  V30 20 N -1.129457 -5.008401 1.279447 0
M  V30 21 C -0.331126 -3.957311 0.744840 0
M  V30 22 O 0.605626 -3.669537 1.498751 0
M  V30 23 C -0.777092 -3.424391 -0.597341 0 CFG=1
M  V30 24 C -2.243566 -3.412478 -0.751928 0
M  V30 25 C -2.937145 -2.576235 0.301158 0
M  V30 26 C -4.421864 -2.587803 0.035252 0
M  V30 27 N -5.154345 -1.809856 1.047780 0
M  V30 28 C -6.575699 -1.654269 0.993722 0
M  V30 29 N -7.152170 -2.207545 -0.020230 0
M  V30 30 N -7.144751 -0.898163 2.079143 0
M  V30 31 N -0.087259 -2.238422 -1.006456 0
M  V30 32 C 1.086663 -1.498361 -1.160407 0
M  V30 33 O 1.969523 -2.236467 -0.671309 0
M  V30 34 C 1.027428 -0.149046 -1.792767 0 CFG=1
M  V30 35 C -0.335448 0.328448 -2.033835 0
M  V30 36 C -0.446686 1.658741 -2.663849 0
M  V30 37 C -0.021691 2.870480 -1.939057 0
M  V30 38 N -0.241226 4.070091 -2.784381 0
M  V30 39 C 0.008771 5.412066 -2.471018 0
M  V30 40 N 0.769080 5.588426 -1.449489 0
M  V30 41 N -0.544793 6.461388 -3.243436 0
M  V30 42 N 2.044356 0.694200 -1.338094 0
M  V30 43 C 3.214383 1.355778 -1.793878 0
M  V30 44 O 3.546249 1.183631 -3.017501 0
M  V30 45 C 3.977909 2.206086 -0.893084 0 CFG=1
M  V30 46 C 4.930567 1.417074 0.025653 0
M  V30 47 C 5.927627 0.658579 -0.801731 0
M  V30 48 C 6.914784 -0.022480 0.095840 0
M  V30 49 N 6.275631 -0.945360 0.994869 0
M  V30 50 C 7.228478 -1.565303 1.874846 0
M  V30 51 N 8.460447 -1.218755 1.969618 0
M  V30 52 N 6.779480 -2.638190 2.703635 0
M  V30 53 N 4.839044 3.138371 -1.661961 0
M  V30 54 C 4.580291 4.515582 -1.380664 0
M  V30 55 O 3.736233 5.037107 -0.598245 0
M  V30 56 C 5.157786 5.840605 -1.846020 0 CFG=1
M  V30 57 C 5.189360 5.895243 -3.312062 0
M  V30 58 C 5.742608 7.150350 -3.907706 0
M  V30 59 C 5.720533 7.082271 -5.442214 0
M  V30 60 N 4.379657 6.942489 -5.965415 0
M  V30 61 C 3.443533 8.012426 -5.888962 0
M  V30 62 N 3.877999 9.220773 -5.853638 0
M  V30 63 N 2.060854 7.709881 -5.869274 0
M  V30 64 N 4.412574 6.850668 -1.157264 0
M  V30 65 C 4.577670 7.087909 0.255879 0
M  V30 66 O 5.372121 6.403610 0.984179 0
M  V30 67 C 3.760693 8.182409 0.825818 0
M  V30 68 C 3.624115 8.177440 2.306691 0
M  V30 69 C 2.908971 6.950066 2.872400 0
M  V30 70 C 1.517120 6.863370 2.302234 0
M  V30 71 C 0.739981 5.720632 2.823368 0
M  V30 72 N 1.320975 4.430626 2.612229 0
M  V30 73 C 0.415660 3.453739 3.088913 0
M  V30 74 O -0.745650 3.613990 3.620239 0
M  V30 75 C 0.158040 1.964610 3.294311 0 CFG=1
M  V30 76 C 1.022913 1.572957 4.427268 0
M  V30 77 C 0.968314 0.174992 4.898576 0
M  V30 78 C 1.323034 -0.910353 3.966143 0
M  V30 79 C 2.752064 -0.818458 3.454152 0
M  V30 80 N 3.004064 -1.952530 2.573793 0
M  V30 81 N -1.266520 1.906885 3.617074 0
M  V30 82 C -2.192633 2.125362 2.521493 0
M  V30 83 O -1.520768 2.354345 1.490743 0
M  V30 84 C -3.650577 2.068929 2.713849 0
M  V30 85 C -4.407727 2.977258 1.796819 0
M  V30 86 C -4.254135 2.805816 0.357143 0
M  V30 87 C -4.701180 1.473458 -0.252173 0
M  V30 88 C -4.421122 1.597343 -1.749368 0
M  V30 89 N -4.786795 0.503260 -2.568116 0
M  V30 90 C -5.989653 -0.162021 -2.902552 0
M  V30 91 O -6.987270 0.362044 -2.293903 0
M  V30 92 C -6.022600 -1.282904 -3.831132 0 CFG=1
M  V30 93 O -4.733688 -1.699923 -4.262337 0
M  V30 94 C -5.053258 -2.698907 -5.141753 0 CFG=1
M  V30 95 N -4.009124 -3.651918 -5.374497 0
M  V30 96 C -4.242518 -4.835614 -5.956337 0
M  V30 97 N -3.080344 -5.531181 -6.056642 0
M  V30 98 C -2.105206 -4.792781 -5.542347 0
M  V30 99 C -0.736192 -5.013988 -5.390868 0
M  V30 100 N -0.104728 -6.224530 -5.827871 0
M  V30 101 N -0.069078 -4.015305 -4.814326 0
M  V30 102 C -0.649027 -2.853653 -4.392502 0
M  V30 103 N -1.976500 -2.665454 -4.550361 0
M  V30 104 C -2.703194 -3.641043 -5.128949 0
M  V30 105 C -6.258695 -3.455977 -4.580912 0 CFG=2
M  V30 106 O -7.292518 -3.308091 -5.512322 0
M  V30 107 C -6.570699 -2.582520 -3.334669 0 CFG=2
M  V30 108 O -7.949623 -2.539228 -3.116489 0
M  V30 109 C -2.188045 -6.540833 6.910335 0
M  V30 110 N -2.517884 -6.064091 8.219761 0
M  V30 111 O -2.084640 -7.297653 5.912676 0
M  V30 112 H 3.495144 -3.529916 5.178361 0
M  V30 113 H 2.867153 -7.319938 5.097809 0
M  V30 114 H 4.124994 -7.592710 6.082308 0
M  V30 115 H 3.023290 -5.476821 8.059900 0
M  V30 116 H 1.623562 -3.494981 8.225804 0
M  V30 117 H 2.381867 -2.915327 6.742039 0
M  V30 118 H -0.001206 -3.128769 6.384722 0
M  V30 119 H 0.849130 -4.374217 5.441840 0
M  V30 120 H -0.531836 -4.853851 8.099189 0
M  V30 121 H 0.373436 -6.109250 7.085688 0
M  V30 122 H -2.119445 -4.494875 6.231065 0
M  V30 123 H -0.464961 -6.536069 4.982559 0
M  V30 124 H 0.282471 -5.527335 2.658233 0
M  V30 125 H -1.008956 -7.638339 3.409326 0
M  V30 126 H -2.289867 -7.148459 2.297665 0
M  V30 127 H -0.894131 -8.913376 1.306355 0
M  V30 128 H -0.936179 -7.370464 0.345010 0
M  V30 129 H 1.279121 -8.261969 2.242863 0
M  V30 130 H 1.247568 -6.707321 1.294036 0
M  V30 131 H 0.808590 -8.916979 -0.475812 0
M  V30 132 H 4.699091 -7.962882 0.361046 0
M  V30 133 H 2.633272 -10.554951 -1.119517 0
M  V30 134 H 3.884887 -9.449470 -1.911604 0
M  V30 135 H -1.973351 -5.383988 0.809482 0
M  V30 136 H -0.347679 -4.227421 -1.303952 0
M  V30 137 H -2.475189 -2.936972 -1.735007 0
M  V30 138 H -2.672906 -4.415048 -0.776667 0
M  V30 139 H -2.620460 -1.530364 0.311418 0
M  V30 140 H -2.785302 -3.024630 1.296783 0
M  V30 141 H -4.653598 -2.042473 -0.923266 0
M  V30 142 H -4.860373 -3.595880 -0.078927 0
M  V30 143 H -4.571886 -1.373802 1.816457 0
M  V30 144 H -8.181102 -2.159959 -0.165973 0
M  V30 145 H -7.232645 0.157523 2.062350 0
M  V30 146 H -7.551752 -1.164215 3.008217 0
M  V30 147 H -0.941111 -1.675292 -1.342720 0
M  V30 148 H 1.378151 -0.435855 -2.900832 0
M  V30 149 H -0.981351 0.332407 -1.111194 0
M  V30 150 H -0.860617 -0.376817 -2.761397 0
M  V30 151 H -1.442367 1.799627 -3.175565 0
M  V30 152 H 0.245602 1.629925 -3.597092 0
M  V30 153 H 1.019580 2.948426 -1.629402 0
M  V30 154 H -0.635238 3.093383 -1.025878 0
M  V30 155 H -0.641028 3.907493 -3.756261 0
M  V30 156 H 1.049199 6.528493 -1.084193 0
M  V30 157 H -0.094011 7.298302 -3.654836 0
M  V30 158 H -1.580097 6.288141 -3.393867 0
M  V30 159 H 1.729653 0.786568 -0.321390 0
M  V30 160 H 3.336350 2.798289 -0.249723 0
M  V30 161 H 4.280473 0.759827 0.629968 0
M  V30 162 H 5.431143 2.099927 0.719395 0
M  V30 163 H 6.486818 1.440941 -1.387939 0
M  V30 164 H 5.413054 -0.036333 -1.498381 0
M  V30 165 H 7.382244 0.801724 0.710662 0
M  V30 166 H 7.711225 -0.533068 -0.502067 0
M  V30 167 H 5.265327 -1.084235 0.956083 0
M  V30 168 H 9.130105 -1.686745 2.616536 0
M  V30 169 H 6.382291 -2.756226 3.674048 0
M  V30 170 H 6.862881 -3.582409 2.217408 0
M  V30 171 H 5.594589 3.137201 -2.363578 0
M  V30 172 H 6.202838 5.783952 -1.416270 0
M  V30 173 H 5.854643 5.054866 -3.667972 0
M  V30 174 H 4.187489 5.725576 -3.791383 0
M  V30 175 H 6.770210 7.392465 -3.598032 0
M  V30 176 H 5.112283 8.037781 -3.639516 0
M  V30 177 H 6.292682 6.201109 -5.791786 0
M  V30 178 H 6.178625 7.972222 -5.910937 0
M  V30 179 H 4.027659 6.050541 -6.425398 0
M  V30 180 H 3.241250 10.044487 -5.795914 0
M  V30 181 H 1.038219 7.559498 -5.761700 0
M  V30 182 H 1.564296 7.086089 -6.538211 0
M  V30 183 H 3.730446 7.425950 -1.719662 0
M  V30 184 H 4.256567 9.181845 0.575933 0
M  V30 185 H 2.757279 8.215663 0.322634 0
M  V30 186 H 2.952513 9.041450 2.572011 0
M  V30 187 H 4.558413 8.355882 2.849950 0
M  V30 188 H 2.824107 7.125418 3.963256 0
M  V30 189 H 3.494086 6.019572 2.734647 0
M  V30 190 H 0.999092 7.808898 2.649045 0
M  V30 191 H 1.545535 6.885475 1.175496 0
M  V30 192 H 0.550019 5.821361 3.926578 0
M  V30 193 H -0.309898 5.715250 2.379924 0
M  V30 194 H 2.075060 3.791182 2.287391 0
M  V30 195 H 0.305125 1.513063 2.317632 0
M  V30 196 H 2.074844 1.841316 4.158965 0
M  V30 197 H 0.728144 2.221745 5.301977 0
M  V30 198 H 1.714225 0.113874 5.758761 0
M  V30 199 H -0.013105 0.008799 5.419938 0
M  V30 200 H 1.284113 -1.867598 4.542257 0
M  V30 201 H 0.619626 -1.065365 3.121970 0
M  V30 202 H 2.958275 0.141384 2.978610 0
M  V30 203 H 3.413951 -0.938462 4.336359 0
M  V30 204 H 4.053206 -2.136335 2.656968 0
M  V30 205 H 2.607681 -2.791515 3.090864 0
M  V30 206 H -1.640128 1.720146 4.595480 0
M  V30 207 H -3.945228 2.274517 3.762647 0
M  V30 208 H -3.940222 1.022262 2.409771 0
M  V30 209 H -4.176868 4.066789 2.040657 0
M  V30 210 H -5.528913 2.901030 2.039316 0
M  V30 211 H -4.812470 3.588411 -0.245299 0
M  V30 212 H -3.175646 2.892638 0.063297 0
M  V30 213 H -5.780113 1.375374 -0.056793 0
M  V30 214 H -4.145999 0.635448 0.197189 0
M  V30 215 H -3.340856 1.872646 -1.836469 0
M  V30 216 H -4.937599 2.563226 -2.082795 0
M  V30 217 H -3.945172 0.064435 -3.063026 0
M  V30 218 H -6.601024 -0.994356 -4.755931 0
M  V30 219 H -5.306456 -2.199662 -6.111873 0
M  V30 220 H -5.197082 -5.223954 -6.307278 0
M  V30 221 H 0.319000 -6.635341 -4.973852 0
M  V30 222 H -0.036384 -6.670857 -6.778009 0
M  V30 223 H 0.106493 -2.208113 -3.966668 0
M  V30 224 H -6.045498 -4.483340 -4.306501 0
M  V30 225 H -6.893617 -3.059436 -6.386362 0
M  V30 226 H -6.060988 -3.032201 -2.489056 0
M  V30 227 H -8.146639 -1.581111 -2.941591 0
M  V30 228 H -3.313889 -5.367659 8.245167 0
M  V30 229 H -1.820553 -6.581877 8.806772 0
M  V30 END ATOM
M  V30 BEGIN BOND
M  V30 1 2 1 2 CFG=2
M  V30 2 1 2 3
M  V30 3 1 2 4
M  V30 4 1 4 5
M  V30 5 1 5 6
M  V30 6 1 6 7
M  V30 7 1 7 8
M  V30 8 1 8 9
M  V30 9 1 9 10
M  V30 10 2 10 11
M  V30 11 1 10 12
M  V30 12 1 12 13
M  V30 13 1 13 14
M  V30 14 1 14 15
M  V30 15 1 15 16
M  V30 16 1 16 17
M  V30 17 2 17 18 CFG=2
M  V30 18 1 17 19
M  V30 19 1 12 20
M  V30 20 1 20 21
M  V30 21 2 21 22
M  V30 22 1 21 23
M  V30 23 1 23 24
M  V30 24 1 24 25
M  V30 25 1 25 26
M  V30 26 1 26 27
M  V30 27 1 27 28
M  V30 28 2 28 29 CFG=2
M  V30 29 1 28 30
M  V30 30 1 23 31
M  V30 31 1 31 32
M  V30 32 2 32 33
M  V30 33 1 32 34
M  V30 34 1 34 35
M  V30 35 1 35 36
M  V30 36 1 36 37
M  V30 37 1 37 38
M  V30 38 1 38 39
M  V30 39 2 39 40 CFG=2
M  V30 40 1 39 41
M  V30 41 1 34 42
M  V30 42 1 42 43
M  V30 43 2 43 44
M  V30 44 1 43 45
M  V30 45 1 45 46
M  V30 46 1 46 47
M  V30 47 1 47 48
M  V30 48 1 48 49
M  V30 49 1 49 50
M  V30 50 2 50 51 CFG=2
M  V30 51 1 50 52
M  V30 52 1 45 53
M  V30 53 1 53 54
M  V30 54 2 54 55
M  V30 55 1 54 56
M  V30 56 1 56 57
M  V30 57 1 57 58
M  V30 58 1 58 59
M  V30 59 1 59 60
M  V30 60 1 60 61
M  V30 61 2 61 62 CFG=2
M  V30 62 1 61 63
M  V30 63 1 56 64
M  V30 64 1 64 65
M  V30 65 2 65 66
M  V30 66 1 65 67
M  V30 67 1 67 68
M  V30 68 1 68 69
M  V30 69 1 69 70
M  V30 70 1 70 71
M  V30 71 1 71 72
M  V30 72 1 72 73
M  V30 73 2 73 74
M  V30 74 1 73 75
M  V30 75 1 75 76
M  V30 76 1 76 77
M  V30 77 1 77 78
M  V30 78 1 78 79
M  V30 79 1 79 80
M  V30 80 1 75 81
M  V30 81 1 81 82
M  V30 82 2 82 83
M  V30 83 1 82 84
M  V30 84 1 84 85
M  V30 85 1 85 86
M  V30 86 1 86 87
M  V30 87 1 87 88
M  V30 88 1 88 89
M  V30 89 1 89 90
M  V30 90 2 90 91
M  V30 91 1 90 92
M  V30 92 1 92 93
M  V30 93 1 93 94
M  V30 94 1 94 95
M  V30 95 1 95 96
M  V30 96 2 96 97
M  V30 97 1 97 98
M  V30 98 2 98 99
M  V30 99 1 99 100
M  V30 100 1 99 101
M  V30 101 2 101 102
M  V30 102 1 102 103
M  V30 103 2 103 104
M  V30 104 1 94 105
M  V30 105 1 105 106
M  V30 106 1 105 107
M  V30 107 1 107 108
M  V30 108 1 8 109
M  V30 109 1 109 110
M  V30 110 2 109 111
M  V30 111 1 107 92
M  V30 112 1 104 95
M  V30 113 1 104 98
M  V30 114 1 1 112
M  V30 115 1 3 113
M  V30 116 1 3 114
M  V30 117 1 4 115
M  V30 118 1 5 116
M  V30 119 1 5 117
M  V30 120 1 6 118
M  V30 121 1 6 119
M  V30 122 1 7 120
M  V30 123 1 7 121
M  V30 124 1 8 122 CFG=3
M  V30 125 1 9 123
M  V30 126 1 12 124 CFG=1
M  V30 127 1 13 125
M  V30 128 1 13 126
M  V30 129 1 14 127
M  V30 130 1 14 128
M  V30 131 1 15 129
M  V30 132 1 15 130
M  V30 133 1 16 131
M  V30 134 1 18 132
M  V30 135 1 19 133
M  V30 136 1 19 134
M  V30 137 1 20 135
M  V30 138 1 23 136 CFG=3
M  V30 139 1 24 137
M  V30 140 1 24 138
M  V30 141 1 25 139
M  V30 142 1 25 140
M  V30 143 1 26 141
M  V30 144 1 26 142
M  V30 145 1 27 143
M  V30 146 1 29 144
M  V30 147 1 30 145
M  V30 148 1 30 146
M  V30 149 1 31 147
M  V30 150 1 34 148 CFG=3
M  V30 151 1 35 149
M  V30 152 1 35 150
M  V30 153 1 36 151
M  V30 154 1 36 152
M  V30 155 1 37 153
M  V30 156 1 37 154
M  V30 157 1 38 155
M  V30 158 1 40 156
M  V30 159 1 41 157
M  V30 160 1 41 158
M  V30 161 1 42 159
M  V30 162 1 45 160 CFG=1
M  V30 163 1 46 161
M  V30 164 1 46 162
M  V30 165 1 47 163
M  V30 166 1 47 164
M  V30 167 1 48 165
M  V30 168 1 48 166
M  V30 169 1 49 167
M  V30 170 1 51 168
M  V30 171 1 52 169
M  V30 172 1 52 170
M  V30 173 1 53 171
M  V30 174 1 56 172 CFG=1
M  V30 175 1 57 173
M  V30 176 1 57 174
M  V30 177 1 58 175
M  V30 178 1 58 176
M  V30 179 1 59 177
M  V30 180 1 59 178
M  V30 181 1 60 179
M  V30 182 1 62 180
M  V30 183 1 63 181
M  V30 184 1 63 182
M  V30 185 1 64 183
M  V30 186 1 67 184
M  V30 187 1 67 185
M  V30 188 1 68 186
M  V30 189 1 68 187
M  V30 190 1 69 188
M  V30 191 1 69 189
M  V30 192 1 70 190
M  V30 193 1 70 191
M  V30 194 1 71 192
M  V30 195 1 71 193
M  V30 196 1 72 194
M  V30 197 1 75 195 CFG=3
M  V30 198 1 76 196
M  V30 199 1 76 197
M  V30 200 1 77 198
M  V30 201 1 77 199
M  V30 202 1 78 200
M  V30 203 1 78 201
M  V30 204 1 79 202
M  V30 205 1 79 203
M  V30 206 1 80 204
M  V30 207 1 80 205
M  V30 208 1 81 206
M  V30 209 1 84 207
M  V30 210 1 84 208
M  V30 211 1 85 209
M  V30 212 1 85 210
M  V30 213 1 86 211
M  V30 214 1 86 212
M  V30 215 1 87 213
M  V30 216 1 87 214
M  V30 217 1 88 215
M  V30 218 1 88 216
M  V30 219 1 89 217
M  V30 220 1 92 218 CFG=3
M  V30 221 1 94 219 CFG=3
M  V30 222 1 96 220
M  V30 223 1 100 221
M  V30 224 1 100 222
M  V30 225 1 102 223
M  V30 226 1 105 224 CFG=1
M  V30 227 1 106 225
M  V30 228 1 107 226 CFG=1
M  V30 229 1 108 227
M  V30 230 1 110 228
M  V30 231 1 110 229
M  V30 END BOND
M  V30 END CTAB
M  END
>  <Dataset>  (844) 
ChEMBL_Kinases

>  <Ligand_Instance>  (844) 
nan

>  <PDB_ID>  (844) 
nan

>  <Standardized_SMILES>  (844) 
N=C(N)NCCC[C@@H](NC(=O)[C@@H](CCCNC(=N)N)NC(=O)[C@@H](CCCNC(=N)N)NC(=O)[C@@H](CCCNC(=N)N)NC(=O)[C@@H](CCCNC(=N)N)NC(=O)[C@@H](CCCNC(=N)N)NC(=O)CCCCCNC(=O)[C@@H](CCCCN)NC(=O)CCCCCNC(=O)[C@H]1O[C@@H](n2cnc3c(N)ncnc32)[C@H](O)[C@@H]1O)C(N)=O

>  <Name>  (844) 
nan

>  <Pocket>  (844) 
nan

>  <ATP_Site>  (844) 
nan

>  <Peripheral>  (844) 
nan

>  <Num_H_Atoms_ProtBoundConf>  (844) 
nan

>  <Num_Resolved_Atoms>  (844) 
nan

>  <Num_Not_Resolved_Atoms>  (844) 
nan

$$$$
CHEMBL3706778
     RDKit          3D

  0  0  0  0  0  0  0  0  0  0999 V3000
M  V30 BEGIN CTAB
M  V30 COUNTS 37 39 0 0 0
M  V30 BEGIN ATOM
M  V30 1 C 4.385672 -2.941853 2.660077 0
M  V30 2 C 4.222709 -3.902251 1.519702 0
M  V30 3 O 2.860367 -4.220433 1.377251 0
M  V30 4 C 1.922154 -3.245609 1.096795 0
M  V30 5 C 2.001552 -1.884516 0.893285 0
M  V30 6 C 0.868033 -1.164550 0.627647 0
M  V30 7 C -0.391743 -1.716416 0.544970 0
M  V30 8 C -0.482263 -3.079697 0.747117 0
M  V30 9 C 0.657331 -3.843152 1.020510 0
M  V30 10 O 0.354037 -5.206862 1.194081 0
M  V30 11 C -1.600257 -0.909008 0.255557 0
M  V30 12 C -1.186076 0.505073 0.088866 0
M  V30 13 C 0.064335 1.079729 0.166655 0
M  V30 14 C 0.201103 2.438450 -0.028630 0
M  V30 15 C -0.883604 3.250616 -0.302231 0
M  V30 16 N -0.605232 4.642164 -0.483627 0
M  V30 17 C -2.139073 2.684196 -0.381997 0
M  V30 18 C -3.236518 3.567851 -0.668613 0
M  V30 19 N -4.122897 4.259851 -0.907946 0
M  V30 20 C -2.299132 1.308699 -0.187191 0
M  V30 21 N -3.649366 0.876029 -0.300684 0
M  V30 22 O 1.091192 0.191680 0.444409 0
M  V30 23 H 3.409310 -2.646357 3.035552 0
M  V30 24 H 4.921374 -2.021416 2.294754 0
M  V30 25 H 4.941184 -3.389859 3.514842 0
M  V30 26 H 4.650674 -3.463209 0.582796 0
M  V30 27 H 4.785356 -4.855404 1.730206 0
M  V30 28 H 3.001102 -1.535156 0.968831 0
M  V30 29 H -1.478757 -3.494355 0.678193 0
M  V30 30 H -0.017647 -5.715437 0.404564 0
M  V30 31 H -2.153684 -1.264685 -0.638775 0
M  V30 32 H -2.301235 -0.918503 1.137109 0
M  V30 33 H 1.206674 2.801294 0.049499 0
M  V30 34 H -0.977470 5.292767 0.270075 0
M  V30 35 H -0.087396 5.183705 -1.237662 0
M  V30 36 H -3.884757 0.084190 -0.940072 0
M  V30 37 H -4.449405 1.296007 0.217058 0
M  V30 END ATOM
M  V30 BEGIN BOND
M  V30 1 1 1 2
M  V30 2 1 2 3
M  V30 3 1 3 4
M  V30 4 2 4 5
M  V30 5 1 5 6
M  V30 6 2 6 7
M  V30 7 1 7 8
M  V30 8 2 8 9
M  V30 9 1 9 10
M  V30 10 1 7 11
M  V30 11 1 11 12
M  V30 12 2 12 13
M  V30 13 1 13 14
M  V30 14 2 14 15
M  V30 15 1 15 16
M  V30 16 1 15 17
M  V30 17 1 17 18
M  V30 18 3 18 19
M  V30 19 2 17 20
M  V30 20 1 20 21
M  V30 21 1 13 22
M  V30 22 1 9 4
M  V30 23 1 20 12
M  V30 24 1 22 6
M  V30 25 1 1 23
M  V30 26 1 1 24
M  V30 27 1 1 25
M  V30 28 1 2 26
M  V30 29 1 2 27
M  V30 30 1 5 28
M  V30 31 1 8 29
M  V30 32 1 10 30
M  V30 33 1 11 31
M  V30 34 1 11 32
M  V30 35 1 14 33
M  V30 36 1 16 34
M  V30 37 1 16 35
M  V30 38 1 21 36
M  V30 39 1 21 37
M  V30 END BOND
M  V30 END CTAB
M  END
>  <Dataset>  (845) 
ChEMBL_Kinases

>  <Ligand_Instance>  (845) 
nan

>  <PDB_ID>  (845) 
nan

>  <Standardized_SMILES>  (845) 
CCOc1cc2c(cc1O)Cc1c(cc(N)c(C#N)c1N)O2

>  <Name>  (845) 
nan

>  <Pocket>  (845) 
nan

>  <ATP_Site>  (845) 
nan

>  <Peripheral>  (845) 
nan

>  <Num_H_Atoms_ProtBoundConf>  (845) 
nan

>  <Num_Resolved_Atoms>  (845) 
nan

>  <Num_Not_Resolved_Atoms>  (845) 
nan

$$$$
CHEMBL525719
     RDKit          3D

  0  0  0  0  0  0  0  0  0  0999 V3000
M  V30 BEGIN CTAB
M  V30 COUNTS 52 55 0 0 0
M  V30 BEGIN ATOM
M  V30 1 C 3.290788 -3.741516 3.042663 0
M  V30 2 C 3.083417 -2.451522 3.753976 0
M  V30 3 N 3.795938 -1.329720 3.271147 0
M  V30 4 C 3.493672 -0.174939 4.081979 0
M  V30 5 C 4.088808 -0.396946 5.453813 0
M  V30 6 C 3.809847 -1.081072 1.880685 0
M  V30 7 C 2.534802 -0.849132 1.213957 0
M  V30 8 C 2.044871 0.462274 1.151737 0
M  V30 9 C 0.846958 0.794405 0.537300 0
M  V30 10 N 0.097115 -0.158611 -0.034199 0
M  V30 11 C -1.079428 -0.141869 -0.688786 0
M  V30 12 C -1.907667 1.027000 -0.963322 0
M  V30 13 C -2.117661 1.335884 -2.291255 0
M  V30 14 C -2.885267 2.420557 -2.690291 0
M  V30 15 N -3.455324 3.213927 -1.747247 0
M  V30 16 C -3.244438 2.904347 -0.457714 0
M  V30 17 N -3.822729 3.710311 0.562700 0
M  V30 18 N -2.500876 1.853707 -0.071430 0
M  V30 19 C -1.409007 -1.423588 -1.079564 0
M  V30 20 C -2.580974 -1.893374 -1.811145 0
M  V30 21 C -3.823811 -1.728437 -1.221828 0
M  V30 22 C -4.953007 -2.167904 -1.901581 0
M  V30 23 C -4.754107 -2.743483 -3.128715 0
M  V30 24 F -5.856321 -3.186093 -3.816456 0
M  V30 25 C -3.529985 -2.913873 -3.725126 0
M  V30 26 C -2.393275 -2.475980 -3.049946 0
M  V30 27 N -0.383445 -2.204113 -0.632654 0
M  V30 28 C 0.519672 -1.434448 -0.003936 0
M  V30 29 C 1.710274 -1.775414 0.605279 0
M  V30 30 H 3.575650 -4.592365 3.726675 0
M  V30 31 H 2.281241 -4.055288 2.651572 0
M  V30 32 H 4.044791 -3.738166 2.248341 0
M  V30 33 H 1.997338 -2.194778 3.890576 0
M  V30 34 H 3.433165 -2.623266 4.815271 0
M  V30 35 H 2.409777 -0.004473 4.233139 0
M  V30 36 H 3.940369 0.731260 3.627468 0
M  V30 37 H 4.837587 -1.211826 5.401699 0
M  V30 38 H 3.307360 -0.672499 6.186527 0
M  V30 39 H 4.575856 0.541296 5.839642 0
M  V30 40 H 4.448291 -0.162980 1.720231 0
M  V30 41 H 4.364535 -1.892336 1.341622 0
M  V30 42 H 2.615943 1.271145 1.600401 0
M  V30 43 H 0.532864 1.829535 0.529633 0
M  V30 44 H -1.695499 0.748722 -3.071172 0
M  V30 45 H -3.033828 2.639592 -3.738380 0
M  V30 46 H -4.861626 3.762314 0.673411 0
M  V30 47 H -3.453297 4.344134 1.328612 0
M  V30 48 H -3.907339 -1.256195 -0.231079 0
M  V30 49 H -5.939522 -2.051522 -1.464186 0
M  V30 50 H -3.356423 -3.364769 -4.690476 0
M  V30 51 H -1.414870 -2.599515 -3.499474 0
M  V30 52 H 2.043140 -2.794940 0.623596 0
M  V30 END ATOM
M  V30 BEGIN BOND
M  V30 1 1 1 2
M  V30 2 1 2 3
M  V30 3 1 3 4
M  V30 4 1 4 5
M  V30 5 1 3 6
M  V30 6 1 6 7
M  V30 7 1 7 8
M  V30 8 2 8 9
M  V30 9 1 9 10
M  V30 10 1 10 11
M  V30 11 1 11 12
M  V30 12 2 12 13
M  V30 13 1 13 14
M  V30 14 2 14 15
M  V30 15 1 15 16
M  V30 16 1 16 17
M  V30 17 2 16 18
M  V30 18 2 11 19
M  V30 19 1 19 20
M  V30 20 2 20 21
M  V30 21 1 21 22
M  V30 22 2 22 23
M  V30 23 1 23 24
M  V30 24 1 23 25
M  V30 25 2 25 26
M  V30 26 1 19 27
M  V30 27 2 27 28
M  V30 28 1 28 29
M  V30 29 2 29 7
M  V30 30 1 28 10
M  V30 31 1 18 12
M  V30 32 1 26 20
M  V30 33 1 1 30
M  V30 34 1 1 31
M  V30 35 1 1 32
M  V30 36 1 2 33
M  V30 37 1 2 34
M  V30 38 1 4 35
M  V30 39 1 4 36
M  V30 40 1 5 37
M  V30 41 1 5 38
M  V30 42 1 5 39
M  V30 43 1 6 40
M  V30 44 1 6 41
M  V30 45 1 8 42
M  V30 46 1 9 43
M  V30 47 1 13 44
M  V30 48 1 14 45
M  V30 49 1 17 46
M  V30 50 1 17 47
M  V30 51 1 21 48
M  V30 52 1 22 49
M  V30 53 1 25 50
M  V30 54 1 26 51
M  V30 55 1 29 52
M  V30 END BOND
M  V30 END CTAB
M  END
>  <Dataset>  (846) 
ChEMBL_Kinases

>  <Ligand_Instance>  (846) 
nan

>  <PDB_ID>  (846) 
nan

>  <Standardized_SMILES>  (846) 
CCN(CC)Cc1ccn2c(-c3ccnc(N)n3)c(-c3ccc(F)cc3)nc2c1

>  <Name>  (846) 
nan

>  <Pocket>  (846) 
nan

>  <ATP_Site>  (846) 
nan

>  <Peripheral>  (846) 
nan

>  <Num_H_Atoms_ProtBoundConf>  (846) 
nan

>  <Num_Resolved_Atoms>  (846) 
nan

>  <Num_Not_Resolved_Atoms>  (846) 
nan

$$$$
CHEMBL525775
     RDKit          3D

  0  0  0  0  0  0  0  0  0  0999 V3000
M  V30 BEGIN CTAB
M  V30 COUNTS 34 37 0 0 0
M  V30 BEGIN ATOM
M  V30 1 O -2.661874 -2.236705 -0.443075 0
M  V30 2 C -1.549608 -2.168060 0.146941 0
M  V30 3 N -0.850544 -3.227807 0.842200 0
M  V30 4 C 0.024455 -2.735341 1.883913 0
M  V30 5 C 0.733451 -3.872081 2.521449 0
M  V30 6 C 1.603070 -4.796965 1.789105 0
M  V30 7 C 0.228932 -5.244682 2.320929 0
M  V30 8 C 0.987994 -1.680097 1.381418 0
M  V30 9 C 0.248076 -0.605759 0.671030 0
M  V30 10 N 0.652544 0.680649 0.518812 0
M  V30 11 C -0.292545 1.328716 -0.185904 0
M  V30 12 C -0.256775 2.733883 -0.574207 0
M  V30 13 C 0.818624 3.516792 -0.213576 0
M  V30 14 C 0.741116 4.835021 -0.638579 0
M  V30 15 N -0.264045 5.364408 -1.341725 0
M  V30 16 C -1.305728 4.591101 -1.686711 0
M  V30 17 C -1.295418 3.277588 -1.299811 0
M  V30 18 C -1.298938 0.430229 -0.475219 0
M  V30 19 C -0.992457 -0.799618 0.049386 0
M  V30 20 H -1.189706 -4.106137 0.373111 0
M  V30 21 H -0.628877 -2.182745 2.625973 0
M  V30 22 H 1.081374 -3.642435 3.566304 0
M  V30 23 H 1.663900 -4.820691 0.686571 0
M  V30 24 H 2.515153 -5.205056 2.269860 0
M  V30 25 H -0.532470 -5.535310 1.596562 0
M  V30 26 H 0.333852 -6.000882 3.138412 0
M  V30 27 H 1.734385 -2.085447 0.678938 0
M  V30 28 H 1.511602 -1.288703 2.265837 0
M  V30 29 H 1.526518 1.126957 0.867056 0
M  V30 30 H 1.663591 3.151139 0.354467 0
M  V30 31 H 1.536841 5.526972 -0.404423 0
M  V30 32 H -2.165457 4.929259 -2.254853 0
M  V30 33 H -2.104419 2.619989 -1.551181 0
M  V30 34 H -2.218223 0.578333 -1.020769 0
M  V30 END ATOM
M  V30 BEGIN BOND
M  V30 1 2 1 2
M  V30 2 1 2 3
M  V30 3 1 3 4
M  V30 4 1 4 5
M  V30 5 1 5 6
M  V30 6 1 6 7
M  V30 7 1 4 8
M  V30 8 1 8 9
M  V30 9 1 9 10
M  V30 10 1 10 11
M  V30 11 1 11 12
M  V30 12 2 12 13
M  V30 13 1 13 14
M  V30 14 2 14 15
M  V30 15 1 15 16
M  V30 16 2 16 17
M  V30 17 2 11 18
M  V30 18 1 18 19
M  V30 19 1 19 2
M  V30 20 1 7 5
M  V30 21 2 19 9
M  V30 22 1 17 12
M  V30 23 1 3 20
M  V30 24 1 4 21
M  V30 25 1 5 22
M  V30 26 1 6 23
M  V30 27 1 6 24
M  V30 28 1 7 25
M  V30 29 1 7 26
M  V30 30 1 8 27
M  V30 31 1 8 28
M  V30 32 1 10 29
M  V30 33 1 13 30
M  V30 34 1 14 31
M  V30 35 1 16 32
M  V30 36 1 17 33
M  V30 37 1 18 34
M  V30 END BOND
M  V30 END CTAB
M  END
>  <Dataset>  (847) 
ChEMBL_Kinases

>  <Ligand_Instance>  (847) 
nan

>  <PDB_ID>  (847) 
nan

>  <Standardized_SMILES>  (847) 
O=C1NC(C2CC2)Cc2[nH]c(-c3ccncc3)cc21

>  <Name>  (847) 
nan

>  <Pocket>  (847) 
nan

>  <ATP_Site>  (847) 
nan

>  <Peripheral>  (847) 
nan

>  <Num_H_Atoms_ProtBoundConf>  (847) 
nan

>  <Num_Resolved_Atoms>  (847) 
nan

>  <Num_Not_Resolved_Atoms>  (847) 
nan

$$$$
CHEMBL525907
     RDKit          3D

  0  0  0  0  0  0  0  0  0  0999 V3000
M  V30 BEGIN CTAB
M  V30 COUNTS 45 48 0 0 0
M  V30 BEGIN ATOM
M  V30 1 C -0.612726 -5.289321 0.577297 0
M  V30 2 C -0.322149 -3.883458 0.124258 0
M  V30 3 N 0.525942 -3.435952 -0.795861 0
M  V30 4 N 0.501063 -2.131838 -0.902426 0
M  V30 5 C 1.272058 -1.318261 -1.783590 0
M  V30 6 C 2.230604 -0.451674 -1.307718 0
M  V30 7 C 3.042301 0.391820 -2.063369 0
M  V30 8 C 2.834922 0.325821 -3.433847 0
M  V30 9 C 1.877695 -0.530757 -3.994944 0
M  V30 10 C 1.111481 -1.339049 -3.164219 0
M  V30 11 C -0.390778 -1.622425 -0.034574 0
M  V30 12 C -0.868786 -0.372703 0.336713 0
M  V30 13 C -1.835293 -0.197800 1.318879 0
M  V30 14 N -2.160742 1.176378 1.552559 0
M  V30 15 C -1.536510 1.574841 2.783819 0 CFG=1
M  V30 16 C -2.122963 0.784461 3.916985 0
M  V30 17 C -0.065651 1.546033 2.767454 0
M  V30 18 C 0.642049 2.146282 1.752186 0
M  V30 19 C 2.036248 2.095623 1.738847 0
M  V30 20 C 2.669820 1.423658 2.777307 0
M  V30 21 C 1.997213 0.800769 3.825791 0
M  V30 22 C 0.607332 0.874928 3.801320 0
M  V30 23 N -2.316772 -1.296479 1.924774 0
M  V30 24 C -1.871153 -2.515820 1.584692 0
M  V30 25 C -0.908743 -2.737071 0.611992 0
M  V30 26 H -1.691508 -5.532904 0.520664 0
M  V30 27 H 0.038198 -6.010976 0.051603 0
M  V30 28 H -0.334090 -5.339331 1.660921 0
M  V30 29 H 2.414616 -0.378546 -0.234319 0
M  V30 30 H 3.772712 1.039817 -1.603584 0
M  V30 31 H 3.427331 0.954835 -4.110979 0
M  V30 32 H 1.740025 -0.557342 -5.081399 0
M  V30 33 H 0.373593 -2.002953 -3.607432 0
M  V30 34 H -0.379271 0.396852 -0.260714 0
M  V30 35 H -2.762139 1.583342 0.801244 0
M  V30 36 H -1.835905 2.640340 2.958736 0
M  V30 37 H -1.982817 1.350452 4.875987 0
M  V30 38 H -3.237282 0.776762 3.757250 0
M  V30 39 H -1.788004 -0.251596 3.984786 0
M  V30 40 H 0.094513 2.655484 0.960941 0
M  V30 41 H 2.605049 2.570720 0.937074 0
M  V30 42 H 3.748809 1.362478 2.804511 0
M  V30 43 H 2.530036 0.286163 4.619647 0
M  V30 44 H 0.092627 0.381678 4.627574 0
M  V30 45 H -2.334122 -3.316289 2.143309 0
M  V30 END ATOM
M  V30 BEGIN BOND
M  V30 1 1 1 2
M  V30 2 2 2 3
M  V30 3 1 3 4
M  V30 4 1 4 5
M  V30 5 2 5 6
M  V30 6 1 6 7
M  V30 7 2 7 8
M  V30 8 1 8 9
M  V30 9 2 9 10
M  V30 10 1 4 11
M  V30 11 2 11 12
M  V30 12 1 12 13
M  V30 13 1 13 14
M  V30 14 1 14 15
M  V30 15 1 15 16
M  V30 16 1 15 17
M  V30 17 2 17 18
M  V30 18 1 18 19
M  V30 19 2 19 20
M  V30 20 1 20 21
M  V30 21 2 21 22
M  V30 22 2 13 23
M  V30 23 1 23 24
M  V30 24 2 24 25
M  V30 25 1 25 2
M  V30 26 1 10 5
M  V30 27 1 25 11
M  V30 28 1 22 17
M  V30 29 1 1 26
M  V30 30 1 1 27
M  V30 31 1 1 28
M  V30 32 1 6 29
M  V30 33 1 7 30
M  V30 34 1 8 31
M  V30 35 1 9 32
M  V30 36 1 10 33
M  V30 37 1 12 34
M  V30 38 1 14 35
M  V30 39 1 15 36 CFG=1
M  V30 40 1 16 37
M  V30 41 1 16 38
M  V30 42 1 16 39
M  V30 43 1 18 40
M  V30 44 1 19 41
M  V30 45 1 20 42
M  V30 46 1 21 43
M  V30 47 1 22 44
M  V30 48 1 24 45
M  V30 END BOND
M  V30 END CTAB
M  END
>  <Dataset>  (848) 
ChEMBL_Kinases

>  <Ligand_Instance>  (848) 
nan

>  <PDB_ID>  (848) 
nan

>  <Standardized_SMILES>  (848) 
Cc1nn(-c2ccccc2)c2cc(N[C@@H](C)c3ccccc3)ncc12

>  <Name>  (848) 
nan

>  <Pocket>  (848) 
nan

>  <ATP_Site>  (848) 
nan

>  <Peripheral>  (848) 
nan

>  <Num_H_Atoms_ProtBoundConf>  (848) 
nan

>  <Num_Resolved_Atoms>  (848) 
nan

>  <Num_Not_Resolved_Atoms>  (848) 
nan

$$$$
CHEMBL525927
     RDKit          3D

  0  0  0  0  0  0  0  0  0  0999 V3000
M  V30 BEGIN CTAB
M  V30 COUNTS 47 50 0 0 0
M  V30 BEGIN ATOM
M  V30 1 C -2.783955 -0.318393 0.817108 0
M  V30 2 C -2.434452 -1.730706 0.450191 0 CFG=1
M  V30 3 N -1.085210 -1.821055 -0.112743 0
M  V30 4 C -0.788534 -1.101411 -1.302626 0
M  V30 5 C 0.338918 -0.938444 -2.113569 0
M  V30 6 N 1.670222 -1.477242 -2.013742 0
M  V30 7 C 2.682445 -0.772079 -1.288840 0
M  V30 8 C 3.981073 -1.273470 -1.177497 0
M  V30 9 C 4.962554 -0.591374 -0.475555 0
M  V30 10 N 4.689240 0.582658 0.123149 0
M  V30 11 C 3.432233 1.108338 0.038872 0
M  V30 12 N 3.016095 2.337480 0.625314 0
M  V30 13 C 2.460070 2.834736 1.838322 0
M  V30 14 C 1.068514 2.879402 1.908298 0
M  V30 15 N 0.515461 3.346441 3.046700 0
M  V30 16 C 1.279757 3.745776 4.056024 0
M  V30 17 C 2.639586 3.716051 4.022054 0
M  V30 18 N 3.208160 3.252585 2.892933 0
M  V30 19 C 2.450501 0.427838 -0.662217 0
M  V30 20 C -0.327001 -0.105899 -2.977717 0
M  V30 21 O 0.024461 0.493411 -4.023679 0
M  V30 22 C -1.436888 -0.262580 -2.184865 0
M  V30 23 O -2.594947 0.216793 -2.287329 0
M  V30 24 C -2.607028 -2.669426 1.579894 0
M  V30 25 C -3.742017 -3.455481 1.693655 0
M  V30 26 C -4.012710 -4.365099 2.701415 0
M  V30 27 C -3.035053 -4.488962 3.691066 0
M  V30 28 C -1.882715 -3.727101 3.624736 0
M  V30 29 C -1.674811 -2.837615 2.591558 0
M  V30 30 H -3.764374 -0.067876 0.367112 0
M  V30 31 H -2.006801 0.361453 0.390821 0
M  V30 32 H -2.861415 -0.175146 1.923454 0
M  V30 33 H -3.101185 -2.054537 -0.373823 0
M  V30 34 H -0.331417 -2.393957 0.325907 0
M  V30 35 H 1.937280 -2.375324 -2.453620 0
M  V30 36 H 4.195189 -2.227802 -1.666664 0
M  V30 37 H 5.941658 -1.020611 -0.421428 0
M  V30 38 H 3.228900 3.010620 -0.162772 0
M  V30 39 H 0.477025 2.550258 1.077503 0
M  V30 40 H 0.771195 4.107497 4.935380 0
M  V30 41 H 3.235357 4.051296 4.868064 0
M  V30 42 H 1.443687 0.809818 -0.752469 0
M  V30 43 H -4.475733 -3.322640 0.896779 0
M  V30 44 H -4.946593 -4.919219 2.669199 0
M  V30 45 H -3.238177 -5.196861 4.481680 0
M  V30 46 H -1.148499 -3.853139 4.412801 0
M  V30 47 H -0.779979 -2.233272 2.522761 0
M  V30 END ATOM
M  V30 BEGIN BOND
M  V30 1 1 1 2
M  V30 2 1 2 3
M  V30 3 1 3 4
M  V30 4 2 4 5
M  V30 5 1 5 6
M  V30 6 1 6 7
M  V30 7 2 7 8
M  V30 8 1 8 9
M  V30 9 2 9 10
M  V30 10 1 10 11
M  V30 11 1 11 12
M  V30 12 1 12 13
M  V30 13 2 13 14
M  V30 14 1 14 15
M  V30 15 2 15 16
M  V30 16 1 16 17
M  V30 17 2 17 18
M  V30 18 2 11 19
M  V30 19 1 5 20
M  V30 20 2 20 21
M  V30 21 1 20 22
M  V30 22 2 22 23
M  V30 23 1 2 24
M  V30 24 2 24 25
M  V30 25 1 25 26
M  V30 26 2 26 27
M  V30 27 1 27 28
M  V30 28 2 28 29
M  V30 29 1 22 4
M  V30 30 1 29 24
M  V30 31 1 19 7
M  V30 32 1 18 13
M  V30 33 1 1 30
M  V30 34 1 1 31
M  V30 35 1 1 32
M  V30 36 1 2 33 CFG=3
M  V30 37 1 3 34
M  V30 38 1 6 35
M  V30 39 1 8 36
M  V30 40 1 9 37
M  V30 41 1 12 38
M  V30 42 1 14 39
M  V30 43 1 16 40
M  V30 44 1 17 41
M  V30 45 1 19 42
M  V30 46 1 25 43
M  V30 47 1 26 44
M  V30 48 1 27 45
M  V30 49 1 28 46
M  V30 50 1 29 47
M  V30 END BOND
M  V30 END CTAB
M  END
>  <Dataset>  (849) 
ChEMBL_Kinases

>  <Ligand_Instance>  (849) 
nan

>  <PDB_ID>  (849) 
nan

>  <Standardized_SMILES>  (849) 
C[C@@H](Nc1c(Nc2ccnc(Nc3cnccn3)c2)c(=O)c1=O)c1ccccc1

>  <Name>  (849) 
nan

>  <Pocket>  (849) 
nan

>  <ATP_Site>  (849) 
nan

>  <Peripheral>  (849) 
nan

>  <Num_H_Atoms_ProtBoundConf>  (849) 
nan

>  <Num_Resolved_Atoms>  (849) 
nan

>  <Num_Not_Resolved_Atoms>  (849) 
nan

$$$$
CHEMBL526034
     RDKit          3D

  0  0  0  0  0  0  0  0  0  0999 V3000
M  V30 BEGIN CTAB
M  V30 COUNTS 40 42 0 0 0
M  V30 BEGIN ATOM
M  V30 1 C 1.905207 -4.784059 1.046035 0
M  V30 2 N 0.817258 -4.047747 0.490912 0
M  V30 3 C 0.878147 -3.769864 -0.900661 0
M  V30 4 C 0.245035 -3.041440 1.323996 0
M  V30 5 C -0.869540 -2.289118 0.691258 0
M  V30 6 C -2.139391 -2.801077 0.532318 0
M  V30 7 O -2.412000 -4.088631 0.980544 0
M  V30 8 C -3.130896 -2.021825 -0.074862 0
M  V30 9 C -2.861616 -0.729104 -0.526410 0
M  V30 10 C -1.589952 -0.219436 -0.365810 0
M  V30 11 O -1.060098 0.955679 -0.693156 0
M  V30 12 C 0.206569 0.994759 -0.341040 0
M  V30 13 C 1.215288 2.079732 -0.492200 0
M  V30 14 C 1.189653 2.972469 0.714367 0
M  V30 15 C 2.039356 2.599121 1.757932 0
M  V30 16 C 2.099670 3.352683 2.925756 0
M  V30 17 C 1.308033 4.455112 3.011569 0
M  V30 18 C 0.457230 4.849253 1.995205 0
M  V30 19 C 0.395931 4.097509 0.827974 0
M  V30 20 C 0.553850 -0.219211 0.256992 0
M  V30 21 C -0.594741 -0.990759 0.239247 0
M  V30 22 H 1.650914 -5.866704 1.216842 0
M  V30 23 H 2.303070 -4.312883 1.971008 0
M  V30 24 H 2.740526 -4.814721 0.297844 0
M  V30 25 H 0.417112 -2.793181 -1.187209 0
M  V30 26 H 0.424267 -4.608047 -1.492930 0
M  V30 27 H 1.930441 -3.727145 -1.246612 0
M  V30 28 H -0.128753 -3.504904 2.284275 0
M  V30 29 H 1.037652 -2.339590 1.650602 0
M  V30 30 H -2.072508 -4.371949 1.903162 0
M  V30 31 H -4.123601 -2.444903 -0.189250 0
M  V30 32 H -3.645177 -0.140324 -0.995381 0
M  V30 33 H 0.910963 2.717338 -1.336947 0
M  V30 34 H 2.234892 1.656324 -0.615600 0
M  V30 35 H 2.665277 1.724545 1.685785 0
M  V30 36 H 2.760213 3.055739 3.727743 0
M  V30 37 H 1.355755 5.047254 3.929516 0
M  V30 38 H -0.172437 5.725980 2.062566 0
M  V30 39 H -0.240094 4.328960 -0.020717 0
M  V30 40 H 1.501972 -0.534282 0.661165 0
M  V30 END ATOM
M  V30 BEGIN BOND
M  V30 1 1 1 2
M  V30 2 1 2 3
M  V30 3 1 2 4
M  V30 4 1 4 5
M  V30 5 2 5 6
M  V30 6 1 6 7
M  V30 7 1 6 8
M  V30 8 2 8 9
M  V30 9 1 9 10
M  V30 10 1 10 11
M  V30 11 1 11 12
M  V30 12 1 12 13
M  V30 13 1 13 14
M  V30 14 2 14 15
M  V30 15 1 15 16
M  V30 16 2 16 17
M  V30 17 1 17 18
M  V30 18 2 18 19
M  V30 19 2 12 20
M  V30 20 1 20 21
M  V30 21 1 21 5
M  V30 22 2 21 10
M  V30 23 1 19 14
M  V30 24 1 1 22
M  V30 25 1 1 23
M  V30 26 1 1 24
M  V30 27 1 3 25
M  V30 28 1 3 26
M  V30 29 1 3 27
M  V30 30 1 4 28
M  V30 31 1 4 29
M  V30 32 1 7 30
M  V30 33 1 8 31
M  V30 34 1 9 32
M  V30 35 1 13 33
M  V30 36 1 13 34
M  V30 37 1 15 35
M  V30 38 1 16 36
M  V30 39 1 17 37
M  V30 40 1 18 38
M  V30 41 1 19 39
M  V30 42 1 20 40
M  V30 END BOND
M  V30 END CTAB
M  END
>  <Dataset>  (850) 
ChEMBL_Kinases

>  <Ligand_Instance>  (850) 
nan

>  <PDB_ID>  (850) 
nan

>  <Standardized_SMILES>  (850) 
CN(C)Cc1c(O)ccc2oc(Cc3ccccc3)cc12

>  <Name>  (850) 
nan

>  <Pocket>  (850) 
nan

>  <ATP_Site>  (850) 
nan

>  <Peripheral>  (850) 
nan

>  <Num_H_Atoms_ProtBoundConf>  (850) 
nan

>  <Num_Resolved_Atoms>  (850) 
nan

>  <Num_Not_Resolved_Atoms>  (850) 
nan

$$$$
CHEMBL526092
     RDKit          3D

  0  0  0  0  0  0  0  0  0  0999 V3000
M  V30 BEGIN CTAB
M  V30 COUNTS 34 36 0 0 0
M  V30 BEGIN ATOM
M  V30 1 C -2.087805 -2.712229 0.475343 0
M  V30 2 C -0.930203 -3.528141 1.022232 0
M  V30 3 C 0.394480 -3.092446 0.448132 0
M  V30 4 C 1.553543 -3.871944 0.962846 0
M  V30 5 N 2.158213 -3.367824 2.156100 0
M  V30 6 C 2.348837 -1.966116 2.347548 0
M  V30 7 O 3.176143 -1.483796 3.151608 0
M  V30 8 C 1.493359 -1.095980 1.522662 0
M  V30 9 C 1.443908 0.300109 1.481445 0
M  V30 10 C 0.474959 0.586963 0.543811 0
M  V30 11 C 0.053834 1.925173 0.142120 0
M  V30 12 C 0.634053 3.039841 0.709674 0
M  V30 13 C 0.188169 4.295880 0.283487 0
M  V30 14 N -0.788739 4.368381 -0.662904 0
M  V30 15 C -1.344305 3.268256 -1.206495 0
M  V30 16 N -2.370663 3.392997 -2.200565 0
M  V30 17 N -0.905090 2.087067 -0.786416 0
M  V30 18 N -0.022769 -0.563863 0.055933 0
M  V30 19 C 0.570877 -1.636607 0.626083 0
M  V30 20 H -2.031178 -2.640561 -0.644635 0
M  V30 21 H -2.139807 -1.725072 0.969760 0
M  V30 22 H -3.015096 -3.312490 0.651659 0
M  V30 23 H -1.135501 -4.586708 0.769901 0
M  V30 24 H -0.904920 -3.340235 2.108111 0
M  V30 25 H 0.323400 -3.269158 -0.664350 0
M  V30 26 H 2.302295 -4.003196 0.128388 0
M  V30 27 H 1.180712 -4.922156 1.142838 0
M  V30 28 H 2.479176 -4.016422 2.925676 0
M  V30 29 H 2.054990 0.969095 2.076857 0
M  V30 30 H 1.407434 2.921456 1.458609 0
M  V30 31 H 0.642438 5.181625 0.727902 0
M  V30 32 H -3.204862 2.921406 -1.787012 0
M  V30 33 H -3.216071 2.921355 -1.794854 0
M  V30 34 H -0.785414 -0.588146 -0.683252 0
M  V30 END ATOM
M  V30 BEGIN BOND
M  V30 1 1 1 2
M  V30 2 1 2 3
M  V30 3 1 3 4
M  V30 4 1 4 5
M  V30 5 1 5 6
M  V30 6 2 6 7
M  V30 7 1 6 8
M  V30 8 1 8 9
M  V30 9 2 9 10
M  V30 10 1 10 11
M  V30 11 2 11 12
M  V30 12 1 12 13
M  V30 13 2 13 14
M  V30 14 1 14 15
M  V30 15 1 15 16
M  V30 16 2 15 17
M  V30 17 1 10 18
M  V30 18 1 18 19
M  V30 19 1 19 3
M  V30 20 2 19 8
M  V30 21 1 17 11
M  V30 22 1 1 20
M  V30 23 1 1 21
M  V30 24 1 1 22
M  V30 25 1 2 23
M  V30 26 1 2 24
M  V30 27 1 3 25
M  V30 28 1 4 26
M  V30 29 1 4 27
M  V30 30 1 5 28
M  V30 31 1 9 29
M  V30 32 1 12 30
M  V30 33 1 13 31
M  V30 34 1 16 32
M  V30 35 1 16 33
M  V30 36 1 18 34
M  V30 END BOND
M  V30 END CTAB
M  END
>  <Dataset>  (851) 
ChEMBL_Kinases

>  <Ligand_Instance>  (851) 
nan

>  <PDB_ID>  (851) 
nan

>  <Standardized_SMILES>  (851) 
CCC1CNC(=O)c2cc(-c3ccnc(N)n3)[nH]c21

>  <Name>  (851) 
nan

>  <Pocket>  (851) 
nan

>  <ATP_Site>  (851) 
nan

>  <Peripheral>  (851) 
nan

>  <Num_H_Atoms_ProtBoundConf>  (851) 
nan

>  <Num_Resolved_Atoms>  (851) 
nan

>  <Num_Not_Resolved_Atoms>  (851) 
nan

$$$$
CHEMBL526110
     RDKit          3D

  0  0  0  0  0  0  0  0  0  0999 V3000
M  V30 BEGIN CTAB
M  V30 COUNTS 36 39 0 0 0
M  V30 BEGIN ATOM
M  V30 1 O 0.932881 -4.911634 3.458517 0
M  V30 2 N 0.907882 -3.946048 2.673906 0 CHG=1 VAL=4
M  V30 3 O -0.311839 -3.333192 2.802825 0 CHG=-1 VAL=1
M  V30 4 C 2.002622 -3.618241 1.833684 0
M  V30 5 C 3.116378 -4.420349 1.913011 0
M  V30 6 C 4.172961 -4.120494 1.114139 0
M  V30 7 C 4.150079 -3.060971 0.253447 0
M  V30 8 C 3.059134 -2.219403 0.129990 0
M  V30 9 N 2.990127 -1.111347 -0.755864 0
M  V30 10 C 2.000896 -0.110730 -0.943135 0
M  V30 11 N 2.229766 0.790285 -1.915801 0
M  V30 12 C 1.347809 1.770576 -2.156018 0
M  V30 13 C 0.230860 1.782809 -1.358969 0
M  V30 14 C -0.081818 0.913481 -0.354602 0
M  V30 15 C -1.208519 0.867139 0.537926 0
M  V30 16 C -1.195569 0.018438 1.648106 0
M  V30 17 N -2.356547 0.147518 2.304214 0
M  V30 18 N -3.143631 1.013526 1.721197 0
M  V30 19 N -4.356535 1.467361 1.972974 0
M  V30 20 C -4.942911 2.376304 1.175484 0
M  V30 21 C -4.259328 2.853618 0.055772 0
M  V30 22 C -3.006300 2.358842 -0.169454 0
M  V30 23 C -2.442571 1.433373 0.667777 0
M  V30 24 N 0.888133 -0.005944 -0.232091 0
M  V30 25 C 2.005177 -2.567853 0.967029 0
M  V30 26 H 3.149593 -5.262234 2.589972 0
M  V30 27 H 5.074033 -4.714997 1.133066 0
M  V30 28 H 5.013051 -2.851724 -0.369509 0
M  V30 29 H 3.852703 -1.076659 -1.356138 0
M  V30 30 H 1.510937 2.499624 -2.926332 0
M  V30 31 H -0.439633 2.590884 -1.574124 0
M  V30 32 H -0.527005 -0.688282 2.107925 0
M  V30 33 H -5.949032 2.686546 1.472998 0
M  V30 34 H -4.758584 3.580170 -0.560843 0
M  V30 35 H -2.529157 2.746480 -1.042084 0
M  V30 36 H 1.087626 -2.003743 0.975988 0
M  V30 END ATOM
M  V30 BEGIN BOND
M  V30 1 2 1 2
M  V30 2 1 2 3
M  V30 3 1 2 4
M  V30 4 2 4 5
M  V30 5 1 5 6
M  V30 6 2 6 7
M  V30 7 1 7 8
M  V30 8 1 8 9
M  V30 9 1 9 10
M  V30 10 2 10 11
M  V30 11 1 11 12
M  V30 12 2 12 13
M  V30 13 1 13 14
M  V30 14 1 14 15
M  V30 15 1 15 16
M  V30 16 2 16 17
M  V30 17 1 17 18
M  V30 18 1 18 19
M  V30 19 2 19 20
M  V30 20 1 20 21
M  V30 21 2 21 22
M  V30 22 1 22 23
M  V30 23 2 14 24
M  V30 24 2 8 25
M  V30 25 1 25 4
M  V30 26 1 24 10
M  V30 27 2 23 15
M  V30 28 1 23 18
M  V30 29 1 5 26
M  V30 30 1 6 27
M  V30 31 1 7 28
M  V30 32 1 9 29
M  V30 33 1 12 30
M  V30 34 1 13 31
M  V30 35 1 16 32
M  V30 36 1 20 33
M  V30 37 1 21 34
M  V30 38 1 22 35
M  V30 39 1 25 36
M  V30 END BOND
M  V30 END CTAB
M  END
>  <Dataset>  (852) 
ChEMBL_Kinases

>  <Ligand_Instance>  (852) 
nan

>  <PDB_ID>  (852) 
nan

>  <Standardized_SMILES>  (852) 
O=[N+]([O-])c1cccc(Nc2nccc(-c3cnn4ncccc34)n2)c1

>  <Name>  (852) 
nan

>  <Pocket>  (852) 
nan

>  <ATP_Site>  (852) 
nan

>  <Peripheral>  (852) 
nan

>  <Num_H_Atoms_ProtBoundConf>  (852) 
nan

>  <Num_Resolved_Atoms>  (852) 
nan

>  <Num_Not_Resolved_Atoms>  (852) 
nan

$$$$
CHEMBL526291
     RDKit          3D

  0  0  0  0  0  0  0  0  0  0999 V3000
M  V30 BEGIN CTAB
M  V30 COUNTS 55 58 0 0 0
M  V30 BEGIN ATOM
M  V30 1 C -0.577862 1.405478 4.930407 0
M  V30 2 C 0.894748 1.360688 4.687470 0
M  V30 3 C 1.348764 0.138569 3.919064 0
M  V30 4 C 2.847327 0.247476 3.760219 0
M  V30 5 N 3.462618 -0.820445 3.051949 0
M  V30 6 C 3.403181 -2.034242 3.827433 0
M  V30 7 C 4.855648 -0.493126 2.829018 0
M  V30 8 C 0.670781 -0.017712 2.611335 0
M  V30 9 C 0.698134 0.957895 1.631131 0
M  V30 10 C 0.080726 0.850427 0.390458 0
M  V30 11 N -0.591694 -0.285652 0.125833 0
M  V30 12 C -1.269849 -0.654153 -0.977258 0
M  V30 13 C -1.475264 0.080295 -2.218792 0
M  V30 14 C -2.729112 0.450305 -2.718060 0
M  V30 15 C -2.745095 1.149978 -3.909118 0
M  V30 16 N -1.631885 1.477073 -4.583392 0
M  V30 17 C -0.427997 1.110035 -4.083979 0
M  V30 18 N 0.749579 1.460229 -4.801140 0
M  V30 19 N -0.392871 0.432436 -2.932511 0
M  V30 20 C -1.787463 -1.911231 -0.779222 0
M  V30 21 C -2.593372 -2.810599 -1.595467 0
M  V30 22 C -3.845396 -3.275708 -1.224073 0
M  V30 23 C -4.461323 -4.114946 -2.112565 0
M  V30 24 C -3.926753 -4.510185 -3.313182 0
M  V30 25 F -4.556019 -5.340382 -4.172733 0
M  V30 26 C -2.668336 -4.022785 -3.651674 0
M  V30 27 C -2.006812 -3.175037 -2.791490 0
M  V30 28 N -1.402070 -2.266963 0.451265 0
M  V30 29 C -0.671330 -1.287838 1.019595 0
M  V30 30 C -0.045257 -1.165590 2.263733 0
M  V30 31 H -0.829008 1.432240 6.029664 0
M  V30 32 H -1.150277 0.563152 4.506022 0
M  V30 33 H -0.947510 2.405681 4.560137 0
M  V30 34 H 1.391218 1.303101 5.680728 0
M  V30 35 H 1.311800 2.261807 4.189786 0
M  V30 36 H 1.087710 -0.764089 4.509002 0
M  V30 37 H 3.241799 0.351173 4.811715 0
M  V30 38 H 3.067786 1.255862 3.308797 0
M  V30 39 H 4.349962 -2.065155 4.446182 0
M  V30 40 H 3.468981 -2.942387 3.170453 0
M  V30 41 H 2.559143 -2.116896 4.510808 0
M  V30 42 H 4.991629 0.558818 2.518947 0
M  V30 43 H 5.332224 -1.209983 2.131713 0
M  V30 44 H 5.377135 -0.621311 3.813114 0
M  V30 45 H 1.260572 1.850672 1.913352 0
M  V30 46 H 0.153154 1.663766 -0.317790 0
M  V30 47 H -3.588053 0.166819 -2.145708 0
M  V30 48 H -3.734323 1.422868 -4.269622 0
M  V30 49 H 1.554286 1.744220 -4.192004 0
M  V30 50 H 0.935198 1.479322 -5.811020 0
M  V30 51 H -4.258241 -2.956280 -0.271990 0
M  V30 52 H -5.440177 -4.490957 -1.843399 0
M  V30 53 H -2.243227 -4.341636 -4.614488 0
M  V30 54 H -1.045181 -2.857321 -3.146088 0
M  V30 55 H -0.107263 -1.968706 2.984680 0
M  V30 END ATOM
M  V30 BEGIN BOND
M  V30 1 1 1 2
M  V30 2 1 2 3
M  V30 3 1 3 4
M  V30 4 1 4 5
M  V30 5 1 5 6
M  V30 6 1 5 7
M  V30 7 1 3 8
M  V30 8 1 8 9
M  V30 9 2 9 10
M  V30 10 1 10 11
M  V30 11 1 11 12
M  V30 12 1 12 13
M  V30 13 2 13 14
M  V30 14 1 14 15
M  V30 15 2 15 16
M  V30 16 1 16 17
M  V30 17 1 17 18
M  V30 18 2 17 19
M  V30 19 2 12 20
M  V30 20 1 20 21
M  V30 21 2 21 22
M  V30 22 1 22 23
M  V30 23 2 23 24
M  V30 24 1 24 25
M  V30 25 1 24 26
M  V30 26 2 26 27
M  V30 27 1 20 28
M  V30 28 2 28 29
M  V30 29 1 29 30
M  V30 30 2 30 8
M  V30 31 1 29 11
M  V30 32 1 19 13
M  V30 33 1 27 21
M  V30 34 1 1 31
M  V30 35 1 1 32
M  V30 36 1 1 33
M  V30 37 1 2 34
M  V30 38 1 2 35
M  V30 39 1 3 36
M  V30 40 1 4 37
M  V30 41 1 4 38
M  V30 42 1 6 39
M  V30 43 1 6 40
M  V30 44 1 6 41
M  V30 45 1 7 42
M  V30 46 1 7 43
M  V30 47 1 7 44
M  V30 48 1 9 45
M  V30 49 1 10 46
M  V30 50 1 14 47
M  V30 51 1 15 48
M  V30 52 1 18 49
M  V30 53 1 18 50
M  V30 54 1 22 51
M  V30 55 1 23 52
M  V30 56 1 26 53
M  V30 57 1 27 54
M  V30 58 1 30 55
M  V30 END BOND
M  V30 END CTAB
M  END
>  <Dataset>  (853) 
ChEMBL_Kinases

>  <Ligand_Instance>  (853) 
nan

>  <PDB_ID>  (853) 
nan

>  <Standardized_SMILES>  (853) 
CCC(CN(C)C)c1ccn2c(-c3ccnc(N)n3)c(-c3ccc(F)cc3)nc2c1

>  <Name>  (853) 
nan

>  <Pocket>  (853) 
nan

>  <ATP_Site>  (853) 
nan

>  <Peripheral>  (853) 
nan

>  <Num_H_Atoms_ProtBoundConf>  (853) 
nan

>  <Num_Resolved_Atoms>  (853) 
nan

>  <Num_Not_Resolved_Atoms>  (853) 
nan

$$$$
CHEMBL526468
     RDKit          3D

  0  0  0  0  0  0  0  0  0  0999 V3000
M  V30 BEGIN CTAB
M  V30 COUNTS 35 36 0 0 0
M  V30 BEGIN ATOM
M  V30 1 C 1.456838 -1.200006 4.725047 0
M  V30 2 C 1.449466 -1.527938 3.265065 0
M  V30 3 C 0.443346 -2.363419 2.849920 0
M  V30 4 C 0.389024 -2.697747 1.513579 0
M  V30 5 C -0.697119 -3.612019 1.013747 0
M  V30 6 N 1.280314 -2.238815 0.603874 0
M  V30 7 C 2.258717 -1.411642 1.073868 0
M  V30 8 S 3.414659 -0.821373 -0.127731 0
M  V30 9 C 2.916624 0.717069 -0.902947 0
M  V30 10 C 1.714761 0.629261 -1.736657 0
M  V30 11 O 1.728557 0.356800 -2.959744 0
M  V30 12 C 0.408739 0.875409 -1.105271 0
M  V30 13 C 0.290090 1.184366 0.238526 0
M  V30 14 C -0.929634 1.415498 0.841865 0
M  V30 15 C -2.088246 1.341676 0.097626 0
M  V30 16 F -3.294398 1.558401 0.643222 0
M  V30 17 C -2.011806 1.038635 -1.234278 0
M  V30 18 C -3.236007 0.947784 -2.081093 0
M  V30 19 C -0.776288 0.810389 -1.818507 0
M  V30 20 N 2.355239 -1.051863 2.385184 0
M  V30 21 H 2.254277 -0.479765 4.940060 0
M  V30 22 H 1.577316 -2.096723 5.359940 0
M  V30 23 H 0.469610 -0.727432 5.002492 0
M  V30 24 H -0.292713 -2.758627 3.533367 0
M  V30 25 H -0.187277 -4.286897 0.296290 0
M  V30 26 H -1.003962 -4.225903 1.866624 0
M  V30 27 H -1.514118 -3.046293 0.537186 0
M  V30 28 H 3.759633 0.991443 -1.603380 0
M  V30 29 H 2.858873 1.578601 -0.203740 0
M  V30 30 H 1.151780 1.256799 0.859815 0
M  V30 31 H -0.985178 1.653917 1.892669 0
M  V30 32 H -3.196129 1.693916 -2.901180 0
M  V30 33 H -3.255187 -0.065544 -2.520933 0
M  V30 34 H -4.117152 1.124693 -1.433039 0
M  V30 35 H -0.698484 0.565892 -2.882176 0
M  V30 END ATOM
M  V30 BEGIN BOND
M  V30 1 1 1 2
M  V30 2 2 2 3
M  V30 3 1 3 4
M  V30 4 1 4 5
M  V30 5 2 4 6
M  V30 6 1 6 7
M  V30 7 1 7 8
M  V30 8 1 8 9
M  V30 9 1 9 10
M  V30 10 2 10 11
M  V30 11 1 10 12
M  V30 12 2 12 13
M  V30 13 1 13 14
M  V30 14 2 14 15
M  V30 15 1 15 16
M  V30 16 1 15 17
M  V30 17 1 17 18
M  V30 18 2 17 19
M  V30 19 2 7 20
M  V30 20 1 20 2
M  V30 21 1 19 12
M  V30 22 1 1 21
M  V30 23 1 1 22
M  V30 24 1 1 23
M  V30 25 1 3 24
M  V30 26 1 5 25
M  V30 27 1 5 26
M  V30 28 1 5 27
M  V30 29 1 9 28
M  V30 30 1 9 29
M  V30 31 1 13 30
M  V30 32 1 14 31
M  V30 33 1 18 32
M  V30 34 1 18 33
M  V30 35 1 18 34
M  V30 36 1 19 35
M  V30 END BOND
M  V30 END CTAB
M  END
>  <Dataset>  (854) 
ChEMBL_Kinases

>  <Ligand_Instance>  (854) 
nan

>  <PDB_ID>  (854) 
nan

>  <Standardized_SMILES>  (854) 
Cc1cc(C)nc(SCC(=O)c2ccc(F)c(C)c2)n1

>  <Name>  (854) 
nan

>  <Pocket>  (854) 
nan

>  <ATP_Site>  (854) 
nan

>  <Peripheral>  (854) 
nan

>  <Num_H_Atoms_ProtBoundConf>  (854) 
nan

>  <Num_Resolved_Atoms>  (854) 
nan

>  <Num_Not_Resolved_Atoms>  (854) 
nan

$$$$
CHEMBL526470
     RDKit          3D

  0  0  0  0  0  0  0  0  0  0999 V3000
M  V30 BEGIN CTAB
M  V30 COUNTS 49 52 0 0 0
M  V30 BEGIN ATOM
M  V30 1 C 1.797399 -2.707348 5.306453 0
M  V30 2 N 2.617818 -2.101767 4.297453 0
M  V30 3 C 3.429267 -1.032709 4.771953 0
M  V30 4 C 3.206459 -2.985691 3.345351 0
M  V30 5 C 3.872471 -2.291041 2.193883 0
M  V30 6 F 4.380902 -3.280729 1.359381 0
M  V30 7 C 2.909654 -1.472941 1.405897 0
M  V30 8 C 2.971024 -0.162783 0.973704 0
M  V30 9 C 1.914047 0.369695 0.262377 0
M  V30 10 N 0.814950 -0.355451 -0.025826 0
M  V30 11 C -0.324107 -0.061329 -0.683819 0
M  V30 12 C -0.708507 1.201787 -1.304374 0
M  V30 13 C -0.279200 1.800553 -2.457664 0
M  V30 14 C -0.827225 3.043490 -2.814210 0
M  V30 15 N -1.745763 3.587477 -2.007630 0
M  V30 16 C -2.180363 3.003177 -0.858930 0
M  V30 17 N -3.164139 3.692576 -0.085598 0
M  V30 18 N -1.636473 1.828570 -0.560480 0
M  V30 19 C -1.174131 -1.168118 -0.710046 0
M  V30 20 C -2.502607 -1.340565 -1.295370 0
M  V30 21 C -3.455770 -1.139851 -0.293604 0
M  V30 22 C -4.830228 -1.243120 -0.579530 0
M  V30 23 C -5.188183 -1.548710 -1.870689 0
M  V30 24 F -6.468942 -1.685822 -2.288776 0
M  V30 25 C -4.261135 -1.750163 -2.872400 0
M  V30 26 C -2.898656 -1.643017 -2.575813 0
M  V30 27 N -0.505699 -2.140066 -0.043985 0
M  V30 28 C 0.696055 -1.639746 0.367712 0
M  V30 29 C 1.754790 -2.188513 1.085637 0
M  V30 30 H 2.429719 -2.987569 6.163247 0
M  V30 31 H 1.079484 -1.924336 5.684287 0
M  V30 32 H 1.273944 -3.616652 4.957215 0
M  V30 33 H 4.491316 -1.234209 4.493714 0
M  V30 34 H 3.393551 -1.065310 5.900042 0
M  V30 35 H 3.132640 -0.027657 4.483470 0
M  V30 36 H 2.477604 -3.756093 3.055379 0
M  V30 37 H 4.026088 -3.528043 3.904311 0
M  V30 38 H 4.688623 -1.673814 2.532999 0
M  V30 39 H 3.890151 0.315018 1.260058 0
M  V30 40 H 2.015695 1.396889 -0.052117 0
M  V30 41 H 0.471189 1.194892 -2.971515 0
M  V30 42 H -0.431577 3.426259 -3.726613 0
M  V30 43 H -2.590502 3.880788 0.784679 0
M  V30 44 H -4.138036 3.878443 -0.442697 0
M  V30 45 H -3.289350 -0.889967 0.763190 0
M  V30 46 H -5.614021 -1.095083 0.173941 0
M  V30 47 H -4.452372 -1.992032 -3.892661 0
M  V30 48 H -2.047333 -1.766333 -3.223955 0
M  V30 49 H 1.572381 -3.230488 1.357566 0
M  V30 END ATOM
M  V30 BEGIN BOND
M  V30 1 1 1 2
M  V30 2 1 2 3
M  V30 3 1 2 4
M  V30 4 1 4 5
M  V30 5 1 5 6
M  V30 6 1 5 7
M  V30 7 1 7 8
M  V30 8 2 8 9
M  V30 9 1 9 10
M  V30 10 1 10 11
M  V30 11 1 11 12
M  V30 12 2 12 13
M  V30 13 1 13 14
M  V30 14 2 14 15
M  V30 15 1 15 16
M  V30 16 1 16 17
M  V30 17 2 16 18
M  V30 18 2 11 19
M  V30 19 1 19 20
M  V30 20 2 20 21
M  V30 21 1 21 22
M  V30 22 2 22 23
M  V30 23 1 23 24
M  V30 24 1 23 25
M  V30 25 2 25 26
M  V30 26 1 19 27
M  V30 27 2 27 28
M  V30 28 1 28 29
M  V30 29 2 29 7
M  V30 30 1 28 10
M  V30 31 1 18 12
M  V30 32 1 26 20
M  V30 33 1 1 30
M  V30 34 1 1 31
M  V30 35 1 1 32
M  V30 36 1 3 33
M  V30 37 1 3 34
M  V30 38 1 3 35
M  V30 39 1 4 36
M  V30 40 1 4 37
M  V30 41 1 5 38
M  V30 42 1 8 39
M  V30 43 1 9 40
M  V30 44 1 13 41
M  V30 45 1 14 42
M  V30 46 1 17 43
M  V30 47 1 17 44
M  V30 48 1 21 45
M  V30 49 1 22 46
M  V30 50 1 25 47
M  V30 51 1 26 48
M  V30 52 1 29 49
M  V30 END BOND
M  V30 END CTAB
M  END
>  <Dataset>  (855) 
ChEMBL_Kinases

>  <Ligand_Instance>  (855) 
nan

>  <PDB_ID>  (855) 
nan

>  <Standardized_SMILES>  (855) 
CN(C)CC(F)c1ccn2c(-c3ccnc(N)n3)c(-c3ccc(F)cc3)nc2c1

>  <Name>  (855) 
nan

>  <Pocket>  (855) 
nan

>  <ATP_Site>  (855) 
nan

>  <Peripheral>  (855) 
nan

>  <Num_H_Atoms_ProtBoundConf>  (855) 
nan

>  <Num_Resolved_Atoms>  (855) 
nan

>  <Num_Not_Resolved_Atoms>  (855) 
nan

$$$$
CHEMBL526487
     RDKit          3D

  0  0  0  0  0  0  0  0  0  0999 V3000
M  V30 BEGIN CTAB
M  V30 COUNTS 33 36 0 0 0
M  V30 BEGIN ATOM
M  V30 1 C -2.581007 -4.581031 2.316037 0
M  V30 2 C -1.432306 -3.846831 1.742044 0
M  V30 3 C -0.814540 -4.136839 0.536716 0
M  V30 4 C 0.266268 -3.365233 0.102014 0
M  V30 5 C 0.762142 -2.292054 0.843891 0
M  V30 6 O 1.809736 -1.729924 0.180846 0
M  V30 7 C 1.785280 -0.784123 -0.817200 0
M  V30 8 C 2.352621 -1.211064 -2.001440 0
M  V30 9 N 2.477054 -0.506471 -3.164175 0
M  V30 10 C 1.999696 0.749685 -3.182378 0
M  V30 11 C 1.425921 1.183720 -1.987082 0
M  V30 12 S 0.639443 2.844859 -1.551874 0
M  V30 13 C 0.250148 2.402414 0.093886 0
M  V30 14 C -0.424978 3.380134 0.974502 0
M  V30 15 N -1.700234 3.829380 0.874876 0
M  V30 16 N -1.875021 4.685624 1.863688 0
M  V30 17 N -0.764142 4.806079 2.596099 0
M  V30 18 N 0.146406 3.993113 2.046328 0
M  V30 19 C 0.680974 1.155146 0.236908 0
M  V30 20 C 1.280921 0.494754 -0.781522 0
M  V30 21 C 0.127484 -2.027909 2.038760 0
M  V30 22 C -0.939064 -2.786012 2.471686 0
M  V30 23 H -3.297946 -4.934782 1.519907 0
M  V30 24 H -3.171407 -3.919461 2.959278 0
M  V30 25 H -2.271411 -5.477342 2.881932 0
M  V30 26 H -1.236747 -4.970172 0.010303 0
M  V30 27 H 0.620910 -3.741114 -0.864008 0
M  V30 28 H 2.782466 -2.220204 -2.123000 0
M  V30 29 H 2.010013 1.439063 -3.992633 0
M  V30 30 H -0.749493 5.450492 3.416671 0
M  V30 31 H 0.503699 0.750267 1.219064 0
M  V30 32 H 0.580072 -1.189366 2.548043 0
M  V30 33 H -1.301978 -2.426870 3.426941 0
M  V30 END ATOM
M  V30 BEGIN BOND
M  V30 1 1 1 2
M  V30 2 2 2 3
M  V30 3 1 3 4
M  V30 4 2 4 5
M  V30 5 1 5 6
M  V30 6 1 6 7
M  V30 7 2 7 8
M  V30 8 1 8 9
M  V30 9 2 9 10
M  V30 10 1 10 11
M  V30 11 1 11 12
M  V30 12 1 12 13
M  V30 13 1 13 14
M  V30 14 1 14 15
M  V30 15 2 15 16
M  V30 16 1 16 17
M  V30 17 1 17 18
M  V30 18 2 13 19
M  V30 19 1 19 20
M  V30 20 1 5 21
M  V30 21 2 21 22
M  V30 22 1 22 2
M  V30 23 1 20 7
M  V30 24 2 20 11
M  V30 25 2 18 14
M  V30 26 1 1 23
M  V30 27 1 1 24
M  V30 28 1 1 25
M  V30 29 1 3 26
M  V30 30 1 4 27
M  V30 31 1 8 28
M  V30 32 1 10 29
M  V30 33 1 17 30
M  V30 34 1 19 31
M  V30 35 1 21 32
M  V30 36 1 22 33
M  V30 END BOND
M  V30 END CTAB
M  END
>  <Dataset>  (856) 
ChEMBL_Kinases

>  <Ligand_Instance>  (856) 
nan

>  <PDB_ID>  (856) 
nan

>  <Standardized_SMILES>  (856) 
Cc1ccc(Oc2cncc3sc(-c4nn[nH]n4)cc23)cc1

>  <Name>  (856) 
nan

>  <Pocket>  (856) 
nan

>  <ATP_Site>  (856) 
nan

>  <Peripheral>  (856) 
nan

>  <Num_H_Atoms_ProtBoundConf>  (856) 
nan

>  <Num_Resolved_Atoms>  (856) 
nan

>  <Num_Not_Resolved_Atoms>  (856) 
nan

$$$$
CHEMBL525548
     RDKit          3D

  0  0  0  0  0  0  0  0  0  0999 V3000
M  V30 BEGIN CTAB
M  V30 COUNTS 46 48 0 0 0
M  V30 BEGIN ATOM
M  V30 1 C -0.357819 -4.200640 2.967407 0
M  V30 2 C 0.944888 -3.528463 3.384371 0
M  V30 3 C 2.001031 -4.615381 3.543477 0
M  V30 4 C 1.311847 -2.558132 2.319968 0 CFG=1
M  V30 5 C 1.485577 -3.241735 0.977785 0
M  V30 6 O 2.388775 -4.276878 1.016899 0
M  V30 7 N 0.384610 -1.475891 2.237304 0
M  V30 8 C 0.091379 -0.182730 2.744846 0
M  V30 9 C 0.057632 0.415939 3.974861 0
M  V30 10 C -0.236908 1.748053 4.104434 0
M  V30 11 C -0.504830 2.493167 2.961901 0
M  V30 12 N -0.837282 3.774882 2.746655 0
M  V30 13 C -1.009784 3.987073 1.425969 0
M  V30 14 C -0.777844 2.798243 0.752191 0
M  V30 15 C -0.802377 2.339863 -0.658881 0
M  V30 16 C 0.349299 1.618345 -1.001514 0
M  V30 17 C 0.555878 1.060004 -2.261755 0
M  V30 18 C -0.474477 1.280414 -3.131696 0
M  V30 19 C -0.305307 0.665997 -4.505865 0
M  V30 20 O 0.247764 1.513889 -5.423179 0
M  V30 21 C -1.639565 1.977024 -2.883540 0
M  V30 22 C -1.791483 2.515663 -1.603886 0
M  V30 23 N -0.473377 1.916051 1.769702 0
M  V30 24 N -0.184359 0.632286 1.704827 0
M  V30 25 H -1.072314 -4.159127 3.805625 0
M  V30 26 H -0.830800 -3.734532 2.090165 0
M  V30 27 H -0.172879 -5.263622 2.683961 0
M  V30 28 H 0.797179 -3.041611 4.360863 0
M  V30 29 H 1.889012 -5.032912 4.564620 0
M  V30 30 H 3.010659 -4.213088 3.425765 0
M  V30 31 H 1.782258 -5.482262 2.848806 0
M  V30 32 H 2.371464 -2.146588 2.531262 0
M  V30 33 H 0.537620 -3.600193 0.546925 0
M  V30 34 H 1.895134 -2.493754 0.231439 0
M  V30 35 H 3.270384 -4.036651 0.593104 0
M  V30 36 H -0.355535 -1.851147 1.557018 0
M  V30 37 H 0.291778 -0.311302 4.754932 0
M  V30 38 H -0.250017 2.176498 5.079443 0
M  V30 39 H -1.274152 4.850744 0.843940 0
M  V30 40 H 1.173955 1.444946 -0.289054 0
M  V30 41 H 1.447225 0.516440 -2.473274 0
M  V30 42 H 0.398053 -0.207586 -4.405129 0
M  V30 43 H -1.257827 0.263361 -4.879871 0
M  V30 44 H -0.114863 1.393131 -6.328745 0
M  V30 45 H -2.440566 2.143012 -3.575288 0
M  V30 46 H -2.630742 3.082731 -1.240885 0
M  V30 END ATOM
M  V30 BEGIN BOND
M  V30 1 1 1 2
M  V30 2 1 2 3
M  V30 3 1 2 4
M  V30 4 1 4 5
M  V30 5 1 5 6
M  V30 6 1 4 7
M  V30 7 1 7 8
M  V30 8 1 8 9
M  V30 9 2 9 10
M  V30 10 1 10 11
M  V30 11 2 11 12
M  V30 12 1 12 13
M  V30 13 2 13 14
M  V30 14 1 14 15
M  V30 15 2 15 16
M  V30 16 1 16 17
M  V30 17 2 17 18
M  V30 18 1 18 19
M  V30 19 1 19 20
M  V30 20 1 18 21
M  V30 21 2 21 22
M  V30 22 1 14 23
M  V30 23 1 23 24
M  V30 24 2 24 8
M  V30 25 1 23 11
M  V30 26 1 22 15
M  V30 27 1 1 25
M  V30 28 1 1 26
M  V30 29 1 1 27
M  V30 30 1 2 28
M  V30 31 1 3 29
M  V30 32 1 3 30
M  V30 33 1 3 31
M  V30 34 1 4 32 CFG=1
M  V30 35 1 5 33
M  V30 36 1 5 34
M  V30 37 1 6 35
M  V30 38 1 7 36
M  V30 39 1 9 37
M  V30 40 1 10 38
M  V30 41 1 13 39
M  V30 42 1 16 40
M  V30 43 1 17 41
M  V30 44 1 19 42
M  V30 45 1 19 43
M  V30 46 1 20 44
M  V30 47 1 21 45
M  V30 48 1 22 46
M  V30 END BOND
M  V30 END CTAB
M  END
>  <Dataset>  (857) 
ChEMBL_Kinases

>  <Ligand_Instance>  (857) 
nan

>  <PDB_ID>  (857) 
nan

>  <Standardized_SMILES>  (857) 
CC(C)[C@@H](CO)Nc1ccc2ncc(-c3ccc(CO)cc3)n2n1

>  <Name>  (857) 
nan

>  <Pocket>  (857) 
nan

>  <ATP_Site>  (857) 
nan

>  <Peripheral>  (857) 
nan

>  <Num_H_Atoms_ProtBoundConf>  (857) 
nan

>  <Num_Resolved_Atoms>  (857) 
nan

>  <Num_Not_Resolved_Atoms>  (857) 
nan

$$$$
CHEMBL3706779
     RDKit          3D

  0  0  0  0  0  0  0  0  0  0999 V3000
M  V30 BEGIN CTAB
M  V30 COUNTS 31 33 0 0 0
M  V30 BEGIN ATOM
M  V30 1 N 2.619092 -5.448866 2.676464 0
M  V30 2 C 2.110154 -4.435318 2.446862 0
M  V30 3 C 1.487139 -3.168588 2.147476 0
M  V30 4 C 1.174998 -2.370905 3.249243 0
M  V30 5 N 1.421877 -2.711187 4.609462 0
M  V30 6 C 0.578959 -1.159408 2.959504 0
M  V30 7 C 0.279104 -0.696706 1.686610 0
M  V30 8 C 0.607998 -1.523204 0.633179 0
M  V30 9 C 1.203046 -2.739864 0.867328 0
M  V30 10 N 1.579990 -3.662060 -0.147639 0
M  V30 11 C 0.334194 -1.129522 -0.750343 0
M  V30 12 C -0.302315 0.189065 -0.869270 0
M  V30 13 C -0.614703 0.682532 -2.107738 0
M  V30 14 C -1.218953 1.927915 -2.269596 0
M  V30 15 C -1.514333 2.692339 -1.153452 0
M  V30 16 O -2.119564 3.933778 -1.361354 0
M  V30 17 C -1.206126 2.212365 0.121351 0
M  V30 18 O -1.508506 2.990882 1.233055 0
M  V30 19 C -0.605650 0.967559 0.226812 0
M  V30 20 O -0.318633 0.533006 1.509358 0
M  V30 21 H 2.385491 -2.308662 4.685336 0
M  V30 22 H 0.782992 -3.212577 5.268291 0
M  V30 23 H 0.313374 -0.496551 3.775267 0
M  V30 24 H 2.389061 -3.965145 -0.753029 0
M  V30 25 H 0.660531 -4.174923 -0.264189 0
M  V30 26 H -0.314614 -1.914174 -1.223103 0
M  V30 27 H 1.275713 -1.080641 -1.357852 0
M  V30 28 H -0.424898 0.164445 -3.031290 0
M  V30 29 H -1.471020 2.326826 -3.263552 0
M  V30 30 H -2.278302 4.494848 -0.524647 0
M  V30 31 H -2.151461 2.558425 1.896919 0
M  V30 END ATOM
M  V30 BEGIN BOND
M  V30 1 3 1 2
M  V30 2 1 2 3
M  V30 3 2 3 4
M  V30 4 1 4 5
M  V30 5 1 4 6
M  V30 6 2 6 7
M  V30 7 1 7 8
M  V30 8 2 8 9
M  V30 9 1 9 10
M  V30 10 1 8 11
M  V30 11 1 11 12
M  V30 12 2 12 13
M  V30 13 1 13 14
M  V30 14 2 14 15
M  V30 15 1 15 16
M  V30 16 1 15 17
M  V30 17 1 17 18
M  V30 18 2 17 19
M  V30 19 1 19 20
M  V30 20 1 9 3
M  V30 21 1 19 12
M  V30 22 1 20 7
M  V30 23 1 5 21
M  V30 24 1 5 22
M  V30 25 1 6 23
M  V30 26 1 10 24
M  V30 27 1 10 25
M  V30 28 1 11 26
M  V30 29 1 11 27
M  V30 30 1 13 28
M  V30 31 1 14 29
M  V30 32 1 16 30
M  V30 33 1 18 31
M  V30 END BOND
M  V30 END CTAB
M  END
>  <Dataset>  (858) 
ChEMBL_Kinases

>  <Ligand_Instance>  (858) 
nan

>  <PDB_ID>  (858) 
nan

>  <Standardized_SMILES>  (858) 
N#Cc1c(N)cc2c(c1N)Cc1ccc(O)c(O)c1O2

>  <Name>  (858) 
nan

>  <Pocket>  (858) 
nan

>  <ATP_Site>  (858) 
nan

>  <Peripheral>  (858) 
nan

>  <Num_H_Atoms_ProtBoundConf>  (858) 
nan

>  <Num_Resolved_Atoms>  (858) 
nan

>  <Num_Not_Resolved_Atoms>  (858) 
nan

$$$$
CHEMBL57376
     RDKit          3D

  0  0  0  0  0  0  0  0  0  0999 V3000
M  V30 BEGIN CTAB
M  V30 COUNTS 14 14 0 0 0
M  V30 BEGIN ATOM
M  V30 1 N -0.639952 0.231321 -0.405864 0
M  V30 2 C 0.592022 0.145596 0.328305 0
M  V30 3 C 0.713507 -1.049905 1.007962 0
M  V30 4 C 1.851263 -1.278352 1.762314 0
M  V30 5 C 2.804679 -0.277098 1.784289 0
M  V30 6 Br 4.396875 -0.548671 2.815331 0
M  V30 7 C 2.700886 0.924192 1.111580 0
M  V30 8 C 1.555238 1.128558 0.365134 0
M  V30 9 H -1.615930 0.541041 -0.157740 0
M  V30 10 H -0.327907 -0.119520 -1.349263 0
M  V30 11 H -0.014330 -1.844847 1.006843 0
M  V30 12 H 2.010983 -2.180278 2.313230 0
M  V30 13 H 3.428167 1.697011 1.123668 0
M  V30 14 H 1.372355 2.030209 -0.198598 0
M  V30 END ATOM
M  V30 BEGIN BOND
M  V30 1 1 1 2
M  V30 2 2 2 3
M  V30 3 1 3 4
M  V30 4 2 4 5
M  V30 5 1 5 6
M  V30 6 1 5 7
M  V30 7 2 7 8
M  V30 8 1 8 2
M  V30 9 1 1 9
M  V30 10 1 1 10
M  V30 11 1 3 11
M  V30 12 1 4 12
M  V30 13 1 7 13
M  V30 14 1 8 14
M  V30 END BOND
M  V30 END CTAB
M  END
>  <Dataset>  (859) 
ChEMBL_Kinases

>  <Ligand_Instance>  (859) 
nan

>  <PDB_ID>  (859) 
nan

>  <Standardized_SMILES>  (859) 
Nc1ccc(Br)cc1

>  <Name>  (859) 
4-BROMOANILINE

>  <Pocket>  (859) 
nan

>  <ATP_Site>  (859) 
nan

>  <Peripheral>  (859) 
nan

>  <Num_H_Atoms_ProtBoundConf>  (859) 
nan

>  <Num_Resolved_Atoms>  (859) 
nan

>  <Num_Not_Resolved_Atoms>  (859) 
nan

$$$$
CHEMBL3706781
     RDKit          3D

  0  0  0  0  0  0  0  0  0  0999 V3000
M  V30 BEGIN CTAB
M  V30 COUNTS 31 33 0 0 0
M  V30 BEGIN ATOM
M  V30 1 N 2.432681 -5.684698 2.361528 0
M  V30 2 C 1.889881 -4.665295 2.279234 0
M  V30 3 C 1.188449 -3.397138 2.173539 0
M  V30 4 C 0.475237 -2.861947 3.227611 0
M  V30 5 N 0.416119 -3.561387 4.460130 0
M  V30 6 C -0.189299 -1.645375 3.104353 0
M  V30 7 C -0.110964 -0.983527 1.878995 0
M  V30 8 C 0.598783 -1.509541 0.819911 0
M  V30 9 C 1.246623 -2.717810 0.974355 0
M  V30 10 N 1.996838 -3.300618 -0.103779 0
M  V30 11 C 0.715359 -0.857626 -0.490948 0
M  V30 12 C -0.015836 0.434712 -0.555337 0
M  V30 13 C 0.034111 1.125557 -1.750652 0
M  V30 14 C -0.655090 2.321183 -1.776707 0
M  V30 15 O -0.598084 3.017504 -2.999037 0
M  V30 16 C -1.373724 2.874067 -0.735539 0
M  V30 17 O -2.029575 4.088516 -0.878400 0
M  V30 18 C -1.404182 2.148881 0.461330 0
M  V30 19 C -0.716952 0.932370 0.524738 0
M  V30 20 O -0.763226 0.232453 1.724335 0
M  V30 21 H 1.092508 -3.149942 5.150430 0
M  V30 22 H -0.113371 -4.365730 4.859489 0
M  V30 23 H -0.748390 -1.223188 3.926573 0
M  V30 24 H 1.740556 -4.169572 -0.641067 0
M  V30 25 H 2.904735 -2.963615 -0.524746 0
M  V30 26 H 0.289333 -1.566040 -1.253150 0
M  V30 27 H 1.774611 -0.663422 -0.800307 0
M  V30 28 H 0.569598 0.764985 -2.605633 0
M  V30 29 H -0.773568 4.016313 -3.019227 0
M  V30 30 H -2.767584 4.271306 -0.184262 0
M  V30 31 H -1.950941 2.534312 1.307704 0
M  V30 END ATOM
M  V30 BEGIN BOND
M  V30 1 3 1 2
M  V30 2 1 2 3
M  V30 3 2 3 4
M  V30 4 1 4 5
M  V30 5 1 4 6
M  V30 6 2 6 7
M  V30 7 1 7 8
M  V30 8 2 8 9
M  V30 9 1 9 10
M  V30 10 1 8 11
M  V30 11 1 11 12
M  V30 12 2 12 13
M  V30 13 1 13 14
M  V30 14 1 14 15
M  V30 15 2 14 16
M  V30 16 1 16 17
M  V30 17 1 16 18
M  V30 18 2 18 19
M  V30 19 1 19 20
M  V30 20 1 9 3
M  V30 21 1 19 12
M  V30 22 1 20 7
M  V30 23 1 5 21
M  V30 24 1 5 22
M  V30 25 1 6 23
M  V30 26 1 10 24
M  V30 27 1 10 25
M  V30 28 1 11 26
M  V30 29 1 11 27
M  V30 30 1 13 28
M  V30 31 1 15 29
M  V30 32 1 17 30
M  V30 33 1 18 31
M  V30 END BOND
M  V30 END CTAB
M  END
>  <Dataset>  (860) 
ChEMBL_Kinases

>  <Ligand_Instance>  (860) 
nan

>  <PDB_ID>  (860) 
nan

>  <Standardized_SMILES>  (860) 
N#Cc1c(N)cc2c(c1N)Cc1cc(O)c(O)cc1O2

>  <Name>  (860) 
nan

>  <Pocket>  (860) 
nan

>  <ATP_Site>  (860) 
nan

>  <Peripheral>  (860) 
nan

>  <Num_H_Atoms_ProtBoundConf>  (860) 
nan

>  <Num_Resolved_Atoms>  (860) 
nan

>  <Num_Not_Resolved_Atoms>  (860) 
nan

$$$$
CHEMBL3706782
     RDKit          3D

  0  0  0  0  0  0  0  0  0  0999 V3000
M  V30 BEGIN CTAB
M  V30 COUNTS 45 48 0 0 0
M  V30 BEGIN ATOM
M  V30 1 N 4.739307 -5.628367 -3.864545 0
M  V30 2 C 3.845168 -5.106371 -3.304499 0
M  V30 3 C 2.760169 -4.475916 -2.601804 0
M  V30 4 C 1.571737 -5.160167 -2.374967 0
M  V30 5 N 1.388311 -6.489687 -2.822675 0
M  V30 6 C 0.541443 -4.537760 -1.698612 0
M  V30 7 C 0.653746 -3.229042 -1.229139 0
M  V30 8 C 1.830895 -2.529834 -1.445270 0
M  V30 9 C 2.842596 -3.180552 -2.125030 0
M  V30 10 N 4.075971 -2.510672 -2.376360 0
M  V30 11 C 2.057091 -1.149228 -0.995015 0
M  V30 12 C 0.873166 -0.608367 -0.286588 0
M  V30 13 C 0.962032 0.685151 0.186812 0
M  V30 14 C -0.073547 1.300063 0.862651 0
M  V30 15 C -1.247082 0.604810 1.078971 0
M  V30 16 O -2.403642 1.022446 1.727791 0
M  V30 17 C -2.421210 2.327788 2.251072 0
M  V30 18 N -1.409536 2.573427 3.229192 0
M  V30 19 C -1.501471 1.716444 4.367048 0
M  V30 20 C -1.697072 2.542036 5.600273 0
M  V30 21 C -1.253481 3.907081 5.179961 0
M  V30 22 C -1.549785 3.937204 3.695751 0
M  V30 23 C -1.363236 -0.705515 0.610197 0
M  V30 24 C -0.312316 -1.303762 -0.065402 0
M  V30 25 O -0.384750 -2.604706 -0.548576 0
M  V30 26 H 1.934500 -6.870410 -3.613433 0
M  V30 27 H 0.684197 -7.113791 -2.349042 0
M  V30 28 H -0.374087 -5.088763 -1.533312 0
M  V30 29 H 4.688089 -2.240867 -1.563290 0
M  V30 30 H 4.423180 -2.263479 -3.321822 0
M  V30 31 H 2.227068 -0.515441 -1.889347 0
M  V30 32 H 2.984788 -1.065982 -0.395472 0
M  V30 33 H 1.844983 1.309980 0.064109 0
M  V30 34 H -0.084624 2.300454 1.262239 0
M  V30 35 H -3.424394 2.437305 2.757855 0
M  V30 36 H -2.407937 3.096683 1.459168 0
M  V30 37 H -0.518300 1.186314 4.484095 0
M  V30 38 H -2.286895 0.933165 4.265119 0
M  V30 39 H -1.057588 2.193642 6.453085 0
M  V30 40 H -2.742251 2.531489 5.998185 0
M  V30 41 H -0.174731 4.014125 5.412540 0
M  V30 42 H -1.837564 4.720544 5.693353 0
M  V30 43 H -2.545281 4.374470 3.501372 0
M  V30 44 H -0.795923 4.633041 3.260942 0
M  V30 45 H -2.232901 -1.341986 0.722564 0
M  V30 END ATOM
M  V30 BEGIN BOND
M  V30 1 3 1 2
M  V30 2 1 2 3
M  V30 3 2 3 4
M  V30 4 1 4 5
M  V30 5 1 4 6
M  V30 6 2 6 7
M  V30 7 1 7 8
M  V30 8 2 8 9
M  V30 9 1 9 10
M  V30 10 1 8 11
M  V30 11 1 11 12
M  V30 12 2 12 13
M  V30 13 1 13 14
M  V30 14 2 14 15
M  V30 15 1 15 16
M  V30 16 1 16 17
M  V30 17 1 17 18
M  V30 18 1 18 19
M  V30 19 1 19 20
M  V30 20 1 20 21
M  V30 21 1 21 22
M  V30 22 1 15 23
M  V30 23 2 23 24
M  V30 24 1 24 25
M  V30 25 1 9 3
M  V30 26 1 24 12
M  V30 27 1 25 7
M  V30 28 1 22 18
M  V30 29 1 5 26
M  V30 30 1 5 27
M  V30 31 1 6 28
M  V30 32 1 10 29
M  V30 33 1 10 30
M  V30 34 1 11 31
M  V30 35 1 11 32
M  V30 36 1 13 33
M  V30 37 1 14 34
M  V30 38 1 17 35
M  V30 39 1 17 36
M  V30 40 1 19 37
M  V30 41 1 19 38
M  V30 42 1 20 39
M  V30 43 1 20 40
M  V30 44 1 21 41
M  V30 45 1 21 42
M  V30 46 1 22 43
M  V30 47 1 22 44
M  V30 48 1 23 45
M  V30 END BOND
M  V30 END CTAB
M  END
>  <Dataset>  (861) 
ChEMBL_Kinases

>  <Ligand_Instance>  (861) 
nan

>  <PDB_ID>  (861) 
nan

>  <Standardized_SMILES>  (861) 
N#Cc1c(N)cc2c(c1N)Cc1ccc(OCN3CCCC3)cc1O2

>  <Name>  (861) 
nan

>  <Pocket>  (861) 
nan

>  <ATP_Site>  (861) 
nan

>  <Peripheral>  (861) 
nan

>  <Num_H_Atoms_ProtBoundConf>  (861) 
nan

>  <Num_Resolved_Atoms>  (861) 
nan

>  <Num_Not_Resolved_Atoms>  (861) 
nan

$$$$
CHEMBL3706783
     RDKit          3D

  0  0  0  0  0  0  0  0  0  0999 V3000
M  V30 BEGIN CTAB
M  V30 COUNTS 38 40 0 0 0
M  V30 BEGIN ATOM
M  V30 1 N 3.335617 -2.174997 -3.033244 0
M  V30 2 C 2.491320 -2.099301 -2.217498 0
M  V30 3 C 1.459376 -2.027692 -1.202373 0
M  V30 4 C 0.485725 -2.997616 -1.087232 0
M  V30 5 N 0.575942 -4.056759 -2.031898 0
M  V30 6 C -0.520534 -2.987375 -0.144778 0
M  V30 7 C -0.522860 -1.923743 0.722330 0
M  V30 8 C 0.424680 -0.923563 0.655973 0
M  V30 9 C 1.419563 -0.961418 -0.298433 0
M  V30 10 N 2.402712 0.054077 -0.385764 0
M  V30 11 C 2.371498 1.294246 -1.159666 0
M  V30 12 C 2.234192 1.070533 -2.632077 0
M  V30 13 O 2.220669 2.356011 -3.220517 0
M  V30 14 C 0.408143 0.221356 1.602530 0
M  V30 15 C -0.708607 0.124926 2.561296 0
M  V30 16 C -0.805462 1.147146 3.482797 0
M  V30 17 C -1.824724 1.152011 4.433220 0
M  V30 18 O -1.992263 2.151560 5.401963 0
M  V30 19 C -2.767503 0.140306 4.485658 0
M  V30 20 O -3.794999 0.131842 5.432864 0
M  V30 21 C -2.662548 -0.891471 3.548873 0
M  V30 22 C -1.649240 -0.882415 2.615300 0
M  V30 23 O -1.533708 -1.901057 1.679429 0
M  V30 24 H 0.259375 -5.048785 -2.087583 0
M  V30 25 H 0.126039 -4.981449 -1.764072 0
M  V30 26 H -1.261323 -3.751323 -0.078360 0
M  V30 27 H 3.151369 -0.304804 0.238869 0
M  V30 28 H 3.397624 1.733669 -1.002617 0
M  V30 29 H 1.674956 2.038870 -0.765025 0
M  V30 30 H 1.370169 0.476881 -2.931620 0
M  V30 31 H 3.186323 0.619399 -2.981394 0
M  V30 32 H 2.059753 2.296066 -4.194068 0
M  V30 33 H 0.388141 1.213980 1.082656 0
M  V30 34 H 1.347199 0.247616 2.209647 0
M  V30 35 H -0.140346 2.018721 3.574205 0
M  V30 36 H -1.552523 2.060372 6.324688 0
M  V30 37 H -4.188139 -0.773208 5.667427 0
M  V30 38 H -3.390886 -1.683748 3.580678 0
M  V30 END ATOM
M  V30 BEGIN BOND
M  V30 1 3 1 2
M  V30 2 1 2 3
M  V30 3 2 3 4
M  V30 4 1 4 5
M  V30 5 1 4 6
M  V30 6 2 6 7
M  V30 7 1 7 8
M  V30 8 2 8 9
M  V30 9 1 9 10
M  V30 10 1 10 11
M  V30 11 1 11 12
M  V30 12 1 12 13
M  V30 13 1 8 14
M  V30 14 1 14 15
M  V30 15 2 15 16
M  V30 16 1 16 17
M  V30 17 1 17 18
M  V30 18 2 17 19
M  V30 19 1 19 20
M  V30 20 1 19 21
M  V30 21 2 21 22
M  V30 22 1 22 23
M  V30 23 1 9 3
M  V30 24 1 22 15
M  V30 25 1 23 7
M  V30 26 1 5 24
M  V30 27 1 5 25
M  V30 28 1 6 26
M  V30 29 1 10 27
M  V30 30 1 11 28
M  V30 31 1 11 29
M  V30 32 1 12 30
M  V30 33 1 12 31
M  V30 34 1 13 32
M  V30 35 1 14 33
M  V30 36 1 14 34
M  V30 37 1 16 35
M  V30 38 1 18 36
M  V30 39 1 20 37
M  V30 40 1 21 38
M  V30 END BOND
M  V30 END CTAB
M  END
>  <Dataset>  (862) 
ChEMBL_Kinases

>  <Ligand_Instance>  (862) 
nan

>  <PDB_ID>  (862) 
nan

>  <Standardized_SMILES>  (862) 
N#Cc1c(N)cc2c(c1NCCO)Cc1cc(O)c(O)cc1O2

>  <Name>  (862) 
nan

>  <Pocket>  (862) 
nan

>  <ATP_Site>  (862) 
nan

>  <Peripheral>  (862) 
nan

>  <Num_H_Atoms_ProtBoundConf>  (862) 
nan

>  <Num_Resolved_Atoms>  (862) 
nan

>  <Num_Not_Resolved_Atoms>  (862) 
nan

$$$$
CHEMBL3706784
     RDKit          3D

  0  0  0  0  0  0  0  0  0  0999 V3000
M  V30 BEGIN CTAB
M  V30 COUNTS 38 40 0 0 0
M  V30 BEGIN ATOM
M  V30 1 C 0.535356 -4.305787 -2.178410 0
M  V30 2 O 1.693499 -3.476881 -2.397860 0
M  V30 3 C 1.823069 -2.283015 -1.947917 0
M  V30 4 C 2.987968 -1.399831 -2.092146 0
M  V30 5 C 3.047825 -0.095705 -1.551584 0
M  V30 6 C 1.802220 0.048472 -0.935633 0
M  V30 7 C 0.774492 0.166925 -0.427642 0
M  V30 8 C 1.018956 -1.341598 -1.192265 0
M  V30 9 C -0.693304 0.141512 0.064827 0
M  V30 10 C -1.200495 1.455267 -0.598331 0
M  V30 11 C -2.608800 1.721187 -0.424908 0
M  V30 12 N -3.699240 1.947167 -0.283522 0
M  V30 13 C -0.419733 2.577114 -0.121469 0
M  V30 14 N 0.217395 3.497049 0.249850 0
M  V30 15 C -0.566344 0.142457 1.462646 0
M  V30 16 C 0.895579 -0.041187 1.449232 0
M  V30 17 C 1.522980 -0.243796 2.768151 0
M  V30 18 C 0.742045 -0.221070 3.848796 0
M  V30 19 N 1.317385 -0.547408 5.097912 0
M  V30 20 C -0.594096 -0.011456 3.818997 0
M  V30 21 C -1.495506 -0.033032 4.913498 0
M  V30 22 N -2.243464 -0.063401 5.855246 0
M  V30 23 C -1.219261 0.166508 2.626375 0
M  V30 24 N -2.635867 0.419279 2.273932 0
M  V30 25 O 0.687835 0.132376 -0.033389 0
M  V30 26 H -0.297897 -3.872534 -1.714752 0
M  V30 27 H 0.368019 -4.979997 -3.031459 0
M  V30 28 H 0.958695 -5.067498 -1.395692 0
M  V30 29 H 3.828989 -1.729587 -2.585431 0
M  V30 30 H 3.621795 0.763676 -1.410671 0
M  V30 31 H 0.139051 -2.275700 -1.289401 0
M  V30 32 H -1.210428 -0.642766 -0.495663 0
M  V30 33 H -1.062453 1.258579 -1.728243 0
M  V30 34 H 2.596417 -0.378525 2.684006 0
M  V30 35 H 1.720110 0.347534 5.318051 0
M  V30 36 H 1.047707 -1.569017 5.186853 0
M  V30 37 H -3.038445 0.983773 3.095435 0
M  V30 38 H -2.887333 0.989782 3.204761 0
M  V30 END ATOM
M  V30 BEGIN BOND
M  V30 1 1 1 2
M  V30 2 1 2 3
M  V30 3 2 3 4
M  V30 4 1 4 5
M  V30 5 2 5 6
M  V30 6 1 6 7
M  V30 7 2 7 8
M  V30 8 1 7 9
M  V30 9 1 9 10
M  V30 10 1 10 11
M  V30 11 3 11 12
M  V30 12 1 10 13
M  V30 13 3 13 14
M  V30 14 1 9 15
M  V30 15 2 15 16
M  V30 16 1 16 17
M  V30 17 2 17 18
M  V30 18 1 18 19
M  V30 19 1 18 20
M  V30 20 1 20 21
M  V30 21 3 21 22
M  V30 22 2 20 23
M  V30 23 1 23 24
M  V30 24 1 16 25
M  V30 25 1 8 3
M  V30 26 1 23 15
M  V30 27 1 25 6
M  V30 28 1 1 26
M  V30 29 1 1 27
M  V30 30 1 1 28
M  V30 31 1 4 29
M  V30 32 1 5 30
M  V30 33 1 8 31
M  V30 34 1 9 32
M  V30 35 1 10 33
M  V30 36 1 17 34
M  V30 37 1 19 35
M  V30 38 1 19 36
M  V30 39 1 24 37
M  V30 40 1 24 38
M  V30 END BOND
M  V30 END CTAB
M  END
>  <Dataset>  (863) 
ChEMBL_Kinases

>  <Ligand_Instance>  (863) 
nan

>  <PDB_ID>  (863) 
nan

>  <Standardized_SMILES>  (863) 
COc1ccc2c(c1)C(C(C#N)C#N)c1c(cc(N)c(C#N)c1N)O2

>  <Name>  (863) 
nan

>  <Pocket>  (863) 
nan

>  <ATP_Site>  (863) 
nan

>  <Peripheral>  (863) 
nan

>  <Num_H_Atoms_ProtBoundConf>  (863) 
nan

>  <Num_Resolved_Atoms>  (863) 
nan

>  <Num_Not_Resolved_Atoms>  (863) 
nan

$$$$
CHEMBL3706785
     RDKit          3D

  0  0  0  0  0  0  0  0  0  0999 V3000
M  V30 BEGIN CTAB
M  V30 COUNTS 34 36 0 0 0
M  V30 BEGIN ATOM
M  V30 1 N 2.981160 -2.849029 4.482997 0
M  V30 2 C 2.172352 -2.560665 3.710632 0
M  V30 3 C 1.170759 -2.206870 2.750567 0
M  V30 4 C -0.047676 -2.844302 2.860691 0
M  V30 5 N -0.291896 -3.798368 3.881120 0
M  V30 6 C -1.028787 -2.526701 1.946499 0
M  V30 7 C -0.769190 -1.583463 0.952290 0
M  V30 8 C 0.420318 -0.901933 0.794394 0
M  V30 9 C 1.338507 -1.288180 1.741794 0
M  V30 10 N 2.675818 -0.814263 1.690505 0
M  V30 11 C 0.613856 0.215956 -0.163563 0
M  V30 12 C 0.553085 1.549056 0.510614 0
M  V30 13 C 0.751222 2.673744 -0.440313 0
M  V30 14 N 0.912619 3.580926 -1.180333 0
M  V30 15 C 1.561867 1.762041 1.505485 0
M  V30 16 N 2.391065 1.958777 2.331294 0
M  V30 17 C -0.543911 0.121233 -1.133882 0
M  V30 18 C -0.540649 0.914857 -2.260613 0
M  V30 19 C -1.589432 1.045412 -3.144723 0
M  V30 20 Br -1.567059 2.151699 -4.699520 0
M  V30 21 C -2.749675 0.339238 -2.915961 0
M  V30 22 C -2.804129 -0.462035 -1.823683 0
M  V30 23 C -1.726465 -0.563394 -0.967922 0
M  V30 24 O -1.851948 -1.432421 0.102040 0
M  V30 25 H -0.027768 -4.775861 3.613215 0
M  V30 26 H -0.693830 -3.531924 4.796774 0
M  V30 27 H -1.964244 -3.045027 2.063416 0
M  V30 28 H 3.317727 -0.677469 2.501360 0
M  V30 29 H 3.318546 -0.677094 2.500542 0
M  V30 30 H 1.518577 0.090625 -0.712252 0
M  V30 31 H -0.487111 1.741185 0.925592 0
M  V30 32 H 0.295127 1.495238 -2.595638 0
M  V30 33 H -3.611690 0.385779 -3.550050 0
M  V30 34 H -3.698748 -1.030253 -1.615125 0
M  V30 END ATOM
M  V30 BEGIN BOND
M  V30 1 3 1 2
M  V30 2 1 2 3
M  V30 3 2 3 4
M  V30 4 1 4 5
M  V30 5 1 4 6
M  V30 6 2 6 7
M  V30 7 1 7 8
M  V30 8 2 8 9
M  V30 9 1 9 10
M  V30 10 1 8 11
M  V30 11 1 11 12
M  V30 12 1 12 13
M  V30 13 3 13 14
M  V30 14 1 12 15
M  V30 15 3 15 16
M  V30 16 1 11 17
M  V30 17 2 17 18
M  V30 18 1 18 19
M  V30 19 1 19 20
M  V30 20 2 19 21
M  V30 21 1 21 22
M  V30 22 2 22 23
M  V30 23 1 23 24
M  V30 24 1 9 3
M  V30 25 1 23 17
M  V30 26 1 24 7
M  V30 27 1 5 25
M  V30 28 1 5 26
M  V30 29 1 6 27
M  V30 30 1 10 28
M  V30 31 1 10 29
M  V30 32 1 11 30
M  V30 33 1 12 31
M  V30 34 1 18 32
M  V30 35 1 21 33
M  V30 36 1 22 34
M  V30 END BOND
M  V30 END CTAB
M  END
>  <Dataset>  (864) 
ChEMBL_Kinases

>  <Ligand_Instance>  (864) 
nan

>  <PDB_ID>  (864) 
nan

>  <Standardized_SMILES>  (864) 
N#Cc1c(N)cc2c(c1N)C(C(C#N)C#N)c1cc(Br)ccc1O2

>  <Name>  (864) 
nan

>  <Pocket>  (864) 
nan

>  <ATP_Site>  (864) 
nan

>  <Peripheral>  (864) 
nan

>  <Num_H_Atoms_ProtBoundConf>  (864) 
nan

>  <Num_Resolved_Atoms>  (864) 
nan

>  <Num_Not_Resolved_Atoms>  (864) 
nan

$$$$
CHEMBL3706786
     RDKit          3D

  0  0  0  0  0  0  0  0  0  0999 V3000
M  V30 BEGIN CTAB
M  V30 COUNTS 35 37 0 0 0
M  V30 BEGIN ATOM
M  V30 1 N 4.544478 -2.715546 3.126535 0
M  V30 2 C 3.510388 -2.523265 2.642466 0
M  V30 3 C 2.239448 -2.271005 2.024679 0
M  V30 4 C 1.283129 -3.253409 2.160578 0
M  V30 5 N 1.538682 -4.451307 2.873815 0
M  V30 6 C 0.056708 -3.033744 1.575555 0
M  V30 7 C -0.180513 -1.842174 0.872855 0
M  V30 8 C 0.762876 -0.810011 0.708595 0
M  V30 9 C 1.926281 -1.132093 1.320641 0
M  V30 10 N 3.015188 -0.229970 1.270896 0
M  V30 11 C 0.423347 0.408932 -0.003567 0
M  V30 12 C 0.792955 1.720371 0.560234 0
M  V30 13 C 0.285254 2.010103 1.901601 0
M  V30 14 N -0.102805 2.226636 2.970888 0
M  V30 15 C 2.104576 2.163622 0.257598 0
M  V30 16 N 3.188689 2.551281 0.000803 0
M  V30 17 C -0.952455 0.295281 -0.538751 0
M  V30 18 C -1.446452 1.355338 -1.301142 0
M  V30 19 C -2.718368 1.386937 -1.830738 0
M  V30 20 O -3.256263 2.419020 -2.594984 0
M  V30 21 C -3.586815 0.346453 -1.629065 0
M  V30 22 C -3.157515 -0.728040 -0.887643 0
M  V30 23 C -1.876670 -0.712214 -0.380480 0
M  V30 24 O -1.465502 -1.811530 0.353140 0
M  V30 25 H 1.720317 -5.177335 2.174173 0
M  V30 26 H 1.543090 -4.577382 3.900663 0
M  V30 27 H -0.673430 -3.819227 1.697386 0
M  V30 28 H 3.268486 0.304228 2.155282 0
M  V30 29 H 3.248036 0.289988 2.163680 0
M  V30 30 H 1.051600 0.334175 -0.959875 0
M  V30 31 H 0.136124 2.468970 -0.051058 0
M  V30 32 H -0.924482 2.244810 -1.584573 0
M  V30 33 H -4.026555 2.967924 -2.221273 0
M  V30 34 H -4.588661 0.290971 -2.002470 0
M  V30 35 H -3.789003 -1.568241 -0.697156 0
M  V30 END ATOM
M  V30 BEGIN BOND
M  V30 1 3 1 2
M  V30 2 1 2 3
M  V30 3 2 3 4
M  V30 4 1 4 5
M  V30 5 1 4 6
M  V30 6 2 6 7
M  V30 7 1 7 8
M  V30 8 2 8 9
M  V30 9 1 9 10
M  V30 10 1 8 11
M  V30 11 1 11 12
M  V30 12 1 12 13
M  V30 13 3 13 14
M  V30 14 1 12 15
M  V30 15 3 15 16
M  V30 16 1 11 17
M  V30 17 2 17 18
M  V30 18 1 18 19
M  V30 19 1 19 20
M  V30 20 2 19 21
M  V30 21 1 21 22
M  V30 22 2 22 23
M  V30 23 1 23 24
M  V30 24 1 9 3
M  V30 25 1 23 17
M  V30 26 1 24 7
M  V30 27 1 5 25
M  V30 28 1 5 26
M  V30 29 1 6 27
M  V30 30 1 10 28
M  V30 31 1 10 29
M  V30 32 1 11 30
M  V30 33 1 12 31
M  V30 34 1 18 32
M  V30 35 1 20 33
M  V30 36 1 21 34
M  V30 37 1 22 35
M  V30 END BOND
M  V30 END CTAB
M  END
>  <Dataset>  (865) 
ChEMBL_Kinases

>  <Ligand_Instance>  (865) 
nan

>  <PDB_ID>  (865) 
nan

>  <Standardized_SMILES>  (865) 
N#Cc1c(N)cc2c(c1N)C(C(C#N)C#N)c1cc(O)ccc1O2

>  <Name>  (865) 
nan

>  <Pocket>  (865) 
nan

>  <ATP_Site>  (865) 
nan

>  <Peripheral>  (865) 
nan

>  <Num_H_Atoms_ProtBoundConf>  (865) 
nan

>  <Num_Resolved_Atoms>  (865) 
nan

>  <Num_Not_Resolved_Atoms>  (865) 
nan

$$$$
CHEMBL3706788
     RDKit          3D

  0  0  0  0  0  0  0  0  0  0999 V3000
M  V30 BEGIN CTAB
M  V30 COUNTS 38 40 0 0 0
M  V30 BEGIN ATOM
M  V30 1 C -0.265896 -6.456414 1.180339 0
M  V30 2 O -0.572076 -5.430601 0.252367 0
M  V30 3 C -0.194182 -4.133951 0.562890 0
M  V30 4 C 0.460050 -3.857209 1.741606 0
M  V30 5 C 0.812393 -2.555499 2.004951 0
M  V30 6 C 0.581977 -1.461546 1.207757 0
M  V30 7 C -0.071643 -1.792818 0.039171 0
M  V30 8 C -0.463740 -3.094697 -0.298429 0
M  V30 9 O -0.406755 -0.880971 -0.943378 0
M  V30 10 C -0.072640 0.447385 -0.769184 0
M  V30 11 C -0.401929 1.339831 -1.765568 0
M  V30 12 C -0.079047 2.672440 -1.646504 0
M  V30 13 N -0.449468 3.524467 -2.707035 0
M  V30 14 C 0.579807 3.064043 -0.500265 0
M  V30 15 C 0.888850 4.470800 -0.441109 0
M  V30 16 N 1.144844 5.595478 -0.375516 0
M  V30 17 C 0.895836 2.146815 0.481985 0
M  V30 18 N 1.596308 2.773836 1.559100 0
M  V30 19 C 0.576588 0.791015 0.384862 0
M  V30 20 C 0.931638 -0.065324 1.560926 0
M  V30 21 C 0.107305 0.384471 2.764192 0
M  V30 22 C -1.318276 0.284390 2.447483 0
M  V30 23 N -2.443683 0.212305 2.215690 0
M  V30 24 C 0.437731 -0.313475 3.968983 0
M  V30 25 N 0.699566 -0.865258 4.960031 0
M  V30 26 H -0.665223 -7.405421 0.747557 0
M  V30 27 H -0.742851 -6.261770 2.169951 0
M  V30 28 H 0.841783 -6.583923 1.287227 0
M  V30 29 H 0.663342 -4.686398 2.402886 0
M  V30 30 H 1.335921 -2.458920 2.939608 0
M  V30 31 H -0.973642 -3.357870 -1.202549 0
M  V30 32 H -0.913297 0.979952 -2.634418 0
M  V30 33 H -0.746602 4.509802 -2.449222 0
M  V30 34 H -0.453361 3.266585 -3.698028 0
M  V30 35 H 2.531895 2.323284 1.677468 0
M  V30 36 H 1.255375 3.562107 2.155682 0
M  V30 37 H 1.997025 0.020342 1.843487 0
M  V30 38 H 0.370795 1.471583 2.957186 0
M  V30 END ATOM
M  V30 BEGIN BOND
M  V30 1 1 1 2
M  V30 2 1 2 3
M  V30 3 2 3 4
M  V30 4 1 4 5
M  V30 5 2 5 6
M  V30 6 1 6 7
M  V30 7 2 7 8
M  V30 8 1 7 9
M  V30 9 1 9 10
M  V30 10 2 10 11
M  V30 11 1 11 12
M  V30 12 1 12 13
M  V30 13 2 12 14
M  V30 14 1 14 15
M  V30 15 3 15 16
M  V30 16 1 14 17
M  V30 17 1 17 18
M  V30 18 2 17 19
M  V30 19 1 19 20
M  V30 20 1 20 21
M  V30 21 1 21 22
M  V30 22 3 22 23
M  V30 23 1 21 24
M  V30 24 3 24 25
M  V30 25 1 8 3
M  V30 26 1 19 10
M  V30 27 1 20 6
M  V30 28 1 1 26
M  V30 29 1 1 27
M  V30 30 1 1 28
M  V30 31 1 4 29
M  V30 32 1 5 30
M  V30 33 1 8 31
M  V30 34 1 11 32
M  V30 35 1 13 33
M  V30 36 1 13 34
M  V30 37 1 18 35
M  V30 38 1 18 36
M  V30 39 1 20 37
M  V30 40 1 21 38
M  V30 END BOND
M  V30 END CTAB
M  END
>  <Dataset>  (866) 
ChEMBL_Kinases

>  <Ligand_Instance>  (866) 
nan

>  <PDB_ID>  (866) 
nan

>  <Standardized_SMILES>  (866) 
COc1ccc2c(c1)Oc1cc(N)c(C#N)c(N)c1C2C(C#N)C#N

>  <Name>  (866) 
nan

>  <Pocket>  (866) 
nan

>  <ATP_Site>  (866) 
nan

>  <Peripheral>  (866) 
nan

>  <Num_H_Atoms_ProtBoundConf>  (866) 
nan

>  <Num_Resolved_Atoms>  (866) 
nan

>  <Num_Not_Resolved_Atoms>  (866) 
nan

$$$$
CHEMBL370698
     RDKit          3D

  0  0  0  0  0  0  0  0  0  0999 V3000
M  V30 BEGIN CTAB
M  V30 COUNTS 41 43 0 0 0
M  V30 BEGIN ATOM
M  V30 1 N -1.039545 -1.232500 5.063801 0
M  V30 2 C -0.028436 -1.078849 4.107132 0
M  V30 3 N 1.130884 -0.411968 4.324653 0
M  V30 4 C 1.852812 -0.481215 3.182226 0
M  V30 5 N 3.040261 -0.159937 2.397956 0
M  V30 6 C 2.889217 0.797102 1.323478 0
M  V30 7 C 1.807153 1.666258 1.404108 0
M  V30 8 C 1.518331 2.570251 0.396006 0
M  V30 9 C 2.383718 2.543083 -0.690448 0
M  V30 10 S 2.105224 3.633763 -2.030330 0
M  V30 11 N 3.216896 4.949697 -1.911616 0
M  V30 12 O 0.710634 4.205113 -1.924571 0
M  V30 13 O 2.239537 2.862089 -3.311196 0
M  V30 14 C 3.454435 1.678965 -0.756771 0
M  V30 15 C 3.730170 0.784286 0.254220 0
M  V30 16 N 1.077737 -1.201138 2.321730 0
M  V30 17 N -0.052309 -1.563096 2.864252 0
M  V30 18 C -1.063976 -2.322039 2.165214 0
M  V30 19 O -0.630470 -2.570414 0.956436 0
M  V30 20 N -2.375746 -2.872245 2.387104 0
M  V30 21 C -2.486568 -3.427748 1.049762 0
M  V30 22 C -2.984928 -2.614083 0.055007 0
M  V30 23 F -3.374726 -1.320421 0.236637 0
M  V30 24 C -3.084763 -3.179697 -1.209554 0
M  V30 25 C -2.680590 -4.486217 -1.343695 0
M  V30 26 C -2.176914 -5.307016 -0.331495 0
M  V30 27 C -2.080931 -4.735973 0.917412 0
M  V30 28 F -1.606399 -5.468931 1.948145 0
M  V30 29 H -1.499265 -0.336255 5.409693 0
M  V30 30 H -1.429048 -2.109938 5.508589 0
M  V30 31 H 3.933102 -0.639612 2.651977 0
M  V30 32 H 1.144920 1.669098 2.267238 0
M  V30 33 H 0.696188 3.248590 0.424215 0
M  V30 34 H 2.849397 5.807431 -2.417232 0
M  V30 35 H 4.178606 4.716001 -2.240597 0
M  V30 36 H 4.156828 1.630703 -1.592077 0
M  V30 37 H 4.522423 0.054648 0.344393 0
M  V30 38 H -2.372038 -2.510151 3.345439 0
M  V30 39 H -3.460604 -2.639315 -2.086451 0
M  V30 40 H -2.760955 -4.920928 -2.330618 0
M  V30 41 H -1.897424 -6.323444 -0.575092 0
M  V30 END ATOM
M  V30 BEGIN BOND
M  V30 1 1 1 2
M  V30 2 2 2 3
M  V30 3 1 3 4
M  V30 4 1 4 5
M  V30 5 1 5 6
M  V30 6 2 6 7
M  V30 7 1 7 8
M  V30 8 2 8 9
M  V30 9 1 9 10
M  V30 10 1 10 11
M  V30 11 2 10 12
M  V30 12 2 10 13
M  V30 13 1 9 14
M  V30 14 2 14 15
M  V30 15 2 4 16
M  V30 16 1 16 17
M  V30 17 1 17 18
M  V30 18 2 18 19
M  V30 19 1 18 20
M  V30 20 1 20 21
M  V30 21 2 21 22
M  V30 22 1 22 23
M  V30 23 1 22 24
M  V30 24 2 24 25
M  V30 25 1 25 26
M  V30 26 2 26 27
M  V30 27 1 27 28
M  V30 28 1 17 2
M  V30 29 1 27 21
M  V30 30 1 15 6
M  V30 31 1 1 29
M  V30 32 1 1 30
M  V30 33 1 5 31
M  V30 34 1 7 32
M  V30 35 1 8 33
M  V30 36 1 11 34
M  V30 37 1 11 35
M  V30 38 1 14 36
M  V30 39 1 15 37
M  V30 40 1 20 38
M  V30 41 1 24 39
M  V30 42 1 25 40
M  V30 43 1 26 41
M  V30 END BOND
M  V30 END CTAB
M  END
>  <Dataset>  (867) 
ChEMBL_Kinases

>  <Ligand_Instance>  (867) 
nan

>  <PDB_ID>  (867) 
nan

>  <Standardized_SMILES>  (867) 
Nc1nc(Nc2ccc(S(N)(=O)=O)cc2)nn1C(=O)Nc1c(F)cccc1F

>  <Name>  (867) 
nan

>  <Pocket>  (867) 
nan

>  <ATP_Site>  (867) 
nan

>  <Peripheral>  (867) 
nan

>  <Num_H_Atoms_ProtBoundConf>  (867) 
nan

>  <Num_Resolved_Atoms>  (867) 
nan

>  <Num_Not_Resolved_Atoms>  (867) 
nan

$$$$
CHEMBL370728
     RDKit          3D

  0  0  0  0  0  0  0  0  0  0999 V3000
M  V30 BEGIN CTAB
M  V30 COUNTS 37 40 0 0 0
M  V30 BEGIN ATOM
M  V30 1 Cl 0.945545 -4.825839 4.898094 0
M  V30 2 C 1.153725 -4.174131 3.302281 0
M  V30 3 C 0.558029 -4.736748 2.188743 0
M  V30 4 C 0.712784 -4.223716 0.905025 0
M  V30 5 C 1.498481 -3.101742 0.752520 0
M  V30 6 C 2.118230 -2.498925 1.829249 0
M  V30 7 N 2.922188 -1.337268 1.646876 0
M  V30 8 C 3.073424 -0.815175 0.336710 0
M  V30 9 N 4.062166 -0.883806 -0.589757 0
M  V30 10 C 3.922092 -0.286893 -1.801275 0
M  V30 11 C 2.764935 0.390885 -2.084833 0
M  V30 12 Br 2.632157 1.214568 -3.809228 0
M  V30 13 C 1.749998 0.477747 -1.167962 0
M  V30 14 N 0.547214 1.193173 -1.479483 0
M  V30 15 C -0.639785 1.344078 -0.713384 0
M  V30 16 C -1.633373 2.206053 -1.072630 0
M  V30 17 C -2.799070 2.377412 -0.380443 0
M  V30 18 C -2.985293 1.631318 0.757578 0
M  V30 19 N -4.057339 1.638762 1.597319 0
M  V30 20 C -3.735302 0.727610 2.559694 0
M  V30 21 N -2.541467 0.199838 2.314280 0
M  V30 22 C -2.037736 0.745291 1.187210 0
M  V30 23 C -0.864150 0.611998 0.435571 0
M  V30 24 N 1.954202 -0.137353 0.012507 0
M  V30 25 C 1.929638 -3.053194 3.082278 0
M  V30 26 H -0.045106 -5.611758 2.373217 0
M  V30 27 H 0.224268 -4.692746 0.049426 0
M  V30 28 H 1.654415 -2.661213 -0.224198 0
M  V30 29 H 3.370303 -0.907161 2.493386 0
M  V30 30 H 4.761435 -0.396860 -2.467873 0
M  V30 31 H 0.536374 1.679139 -2.410892 0
M  V30 32 H -1.486393 2.796279 -1.963235 0
M  V30 33 H -3.539777 3.088862 -0.728634 0
M  V30 34 H -4.926224 2.232485 1.489650 0
M  V30 35 H -4.423519 0.533779 3.367012 0
M  V30 36 H -0.191672 -0.101002 0.850296 0
M  V30 37 H 2.412250 -2.600169 3.907877 0
M  V30 END ATOM
M  V30 BEGIN BOND
M  V30 1 1 1 2
M  V30 2 2 2 3
M  V30 3 1 3 4
M  V30 4 2 4 5
M  V30 5 1 5 6
M  V30 6 1 6 7
M  V30 7 1 7 8
M  V30 8 2 8 9
M  V30 9 1 9 10
M  V30 10 2 10 11
M  V30 11 1 11 12
M  V30 12 1 11 13
M  V30 13 1 13 14
M  V30 14 1 14 15
M  V30 15 2 15 16
M  V30 16 1 16 17
M  V30 17 2 17 18
M  V30 18 1 18 19
M  V30 19 1 19 20
M  V30 20 2 20 21
M  V30 21 1 21 22
M  V30 22 2 22 23
M  V30 23 2 13 24
M  V30 24 2 6 25
M  V30 25 1 25 2
M  V30 26 1 24 8
M  V30 27 1 23 15
M  V30 28 1 22 18
M  V30 29 1 3 26
M  V30 30 1 4 27
M  V30 31 1 5 28
M  V30 32 1 7 29
M  V30 33 1 10 30
M  V30 34 1 14 31
M  V30 35 1 16 32
M  V30 36 1 17 33
M  V30 37 1 19 34
M  V30 38 1 20 35
M  V30 39 1 23 36
M  V30 40 1 25 37
M  V30 END BOND
M  V30 END CTAB
M  END
>  <Dataset>  (868) 
ChEMBL_Kinases

>  <Ligand_Instance>  (868) 
nan

>  <PDB_ID>  (868) 
nan

>  <Standardized_SMILES>  (868) 
Clc1cccc(Nc2ncc(Br)c(Nc3ccc4[nH]cnc4c3)n2)c1

>  <Name>  (868) 
nan

>  <Pocket>  (868) 
nan

>  <ATP_Site>  (868) 
nan

>  <Peripheral>  (868) 
nan

>  <Num_H_Atoms_ProtBoundConf>  (868) 
nan

>  <Num_Resolved_Atoms>  (868) 
nan

>  <Num_Not_Resolved_Atoms>  (868) 
nan

$$$$
CHEMBL573480
     RDKit          3D

  0  0  0  0  0  0  0  0  0  0999 V3000
M  V30 BEGIN CTAB
M  V30 COUNTS 41 44 0 0 0
M  V30 BEGIN ATOM
M  V30 1 C 1.961904 -7.095743 1.430160 0
M  V30 2 O 1.789247 -5.749060 0.980598 0
M  V30 3 C 2.879514 -4.884399 0.855033 0
M  V30 4 O 4.004983 -5.358186 1.157750 0
M  V30 5 C 2.633771 -3.520943 0.390258 0
M  V30 6 C 1.369809 -3.064973 0.074358 0
M  V30 7 C 1.199044 -1.769675 -0.358655 0
M  V30 8 C 2.236096 -0.870098 -0.502452 0
M  V30 9 C 2.020953 0.498307 -0.964606 0
M  V30 10 C 2.738844 1.223593 -1.903765 0
M  V30 11 O 2.216744 2.427038 -2.032458 0
M  V30 12 C 1.185251 2.562097 -1.235071 0
M  V30 13 C 0.312783 3.604579 -0.995918 0
M  V30 14 C -0.728735 3.511966 -0.083398 0
M  V30 15 C -0.893697 2.325311 0.610736 0
M  V30 16 C -1.957898 2.119304 1.595311 0
M  V30 17 C -2.892562 3.105473 1.912626 0
M  V30 18 C -3.740180 2.551267 2.879796 0
M  V30 19 C -3.262713 1.263813 3.085267 0
M  V30 20 C -3.877031 0.289929 4.054616 0
M  V30 21 O -2.223972 1.043737 2.321793 0
M  V30 22 C -0.007341 1.268273 0.366821 0
M  V30 23 C 1.026185 1.358201 -0.537773 0
M  V30 24 C 3.512110 -1.345253 -0.178847 0
M  V30 25 C 3.698779 -2.642943 0.257080 0
M  V30 26 H 0.957258 -7.558463 1.452773 0
M  V30 27 H 2.644838 -7.632508 0.766336 0
M  V30 28 H 2.336119 -7.099114 2.471377 0
M  V30 29 H 0.547873 -3.748453 0.178999 0
M  V30 30 H 0.180919 -1.481623 -0.588068 0
M  V30 31 H 3.586753 0.764863 -2.396173 0
M  V30 32 H 0.399157 4.558912 -1.515528 0
M  V30 33 H -1.414410 4.330503 0.104907 0
M  V30 34 H -3.020035 4.114033 1.545921 0
M  V30 35 H -4.588785 3.018491 3.368704 0
M  V30 36 H -4.751142 -0.197712 3.572609 0
M  V30 37 H -4.251064 0.804159 4.969671 0
M  V30 38 H -3.143928 -0.513041 4.308088 0
M  V30 39 H -0.152387 0.360430 0.913610 0
M  V30 40 H 4.332006 -0.657221 -0.285202 0
M  V30 41 H 4.687775 -3.010919 0.507799 0
M  V30 END ATOM
M  V30 BEGIN BOND
M  V30 1 1 1 2
M  V30 2 1 2 3
M  V30 3 2 3 4
M  V30 4 1 3 5
M  V30 5 2 5 6
M  V30 6 1 6 7
M  V30 7 2 7 8
M  V30 8 1 8 9
M  V30 9 2 9 10
M  V30 10 1 10 11
M  V30 11 1 11 12
M  V30 12 2 12 13
M  V30 13 1 13 14
M  V30 14 2 14 15
M  V30 15 1 15 16
M  V30 16 2 16 17
M  V30 17 1 17 18
M  V30 18 2 18 19
M  V30 19 1 19 20
M  V30 20 1 19 21
M  V30 21 1 15 22
M  V30 22 2 22 23
M  V30 23 1 8 24
M  V30 24 2 24 25
M  V30 25 1 25 5
M  V30 26 1 23 9
M  V30 27 1 23 12
M  V30 28 1 21 16
M  V30 29 1 1 26
M  V30 30 1 1 27
M  V30 31 1 1 28
M  V30 32 1 6 29
M  V30 33 1 7 30
M  V30 34 1 10 31
M  V30 35 1 13 32
M  V30 36 1 14 33
M  V30 37 1 17 34
M  V30 38 1 18 35
M  V30 39 1 20 36
M  V30 40 1 20 37
M  V30 41 1 20 38
M  V30 42 1 22 39
M  V30 43 1 24 40
M  V30 44 1 25 41
M  V30 END BOND
M  V30 END CTAB
M  END
>  <Dataset>  (869) 
ChEMBL_Kinases

>  <Ligand_Instance>  (869) 
nan

>  <PDB_ID>  (869) 
nan

>  <Standardized_SMILES>  (869) 
COC(=O)c1ccc(-c2coc3ccc(-c4ccc(C)o4)cc23)cc1

>  <Name>  (869) 
nan

>  <Pocket>  (869) 
nan

>  <ATP_Site>  (869) 
nan

>  <Peripheral>  (869) 
nan

>  <Num_H_Atoms_ProtBoundConf>  (869) 
nan

>  <Num_Resolved_Atoms>  (869) 
nan

>  <Num_Not_Resolved_Atoms>  (869) 
nan

$$$$
CHEMBL3728734
     RDKit          3D

  0  0  0  0  0  0  0  0  0  0999 V3000
M  V30 BEGIN CTAB
M  V30 COUNTS 36 39 0 0 0
M  V30 BEGIN ATOM
M  V30 1 Cl -1.417784 -3.127895 2.124200 0
M  V30 2 C 0.013877 -4.136382 2.260646 0
M  V30 3 C -0.041439 -5.404019 2.802441 0
M  V30 4 N 1.063608 -6.190658 2.911201 0
M  V30 5 C 2.230583 -5.688285 2.467896 0
M  V30 6 C 2.330822 -4.425825 1.919300 0
M  V30 7 C 1.213939 -3.636134 1.811625 0
M  V30 8 C 1.310334 -2.302170 1.233930 0
M  V30 9 N 0.179186 -1.588348 1.160542 0
M  V30 10 C 0.267315 -0.337101 0.619001 0
M  V30 11 N -0.875006 0.487301 0.522480 0
M  V30 12 C -1.237584 1.777721 0.012749 0 CFG=2
M  V30 13 C -2.638960 2.226989 0.417729 0
M  V30 14 C -2.827010 3.356779 -0.573960 0
M  V30 15 N -2.425952 2.744350 -1.828295 0
M  V30 16 C -1.410481 1.768506 -1.495243 0
M  V30 17 C 1.475426 0.162752 0.169395 0
M  V30 18 S 2.016945 1.639396 -0.543483 0
M  V30 19 C 3.839762 1.135802 -0.691493 0
M  V30 20 C 3.817945 -0.121747 -0.169678 0
M  V30 21 C 2.624392 -0.613819 0.265553 0
M  V30 22 N 2.497581 -1.847021 0.806789 0
M  V30 23 H -1.011922 -5.718034 3.127655 0
M  V30 24 H 3.155662 -6.280930 2.531358 0
M  V30 25 H 3.269307 -4.056066 1.577132 0
M  V30 26 H -1.736312 0.046545 0.942034 0
M  V30 27 H -0.543580 2.575210 0.295600 0
M  V30 28 H -2.666110 2.607429 1.452354 0
M  V30 29 H -3.392285 1.423640 0.232210 0
M  V30 30 H -2.081954 4.129953 -0.297058 0
M  V30 31 H -3.846871 3.736416 -0.600328 0
M  V30 32 H -2.082649 3.462857 -2.520186 0
M  V30 33 H -1.703289 0.746448 -1.866024 0
M  V30 34 H -0.479957 2.069744 -1.999661 0
M  V30 35 H 4.526455 1.814466 -1.104638 0
M  V30 36 H 4.799673 -0.564744 -0.178791 0
M  V30 END ATOM
M  V30 BEGIN BOND
M  V30 1 1 1 2
M  V30 2 2 2 3
M  V30 3 1 3 4
M  V30 4 2 4 5
M  V30 5 1 5 6
M  V30 6 2 6 7
M  V30 7 1 7 8
M  V30 8 2 8 9
M  V30 9 1 9 10
M  V30 10 1 10 11
M  V30 11 1 11 12
M  V30 12 1 12 13
M  V30 13 1 13 14
M  V30 14 1 14 15
M  V30 15 1 15 16
M  V30 16 2 10 17
M  V30 17 1 17 18
M  V30 18 1 18 19
M  V30 19 2 19 20
M  V30 20 1 20 21
M  V30 21 2 21 22
M  V30 22 1 7 2
M  V30 23 1 22 8
M  V30 24 1 16 12
M  V30 25 1 21 17
M  V30 26 1 3 23
M  V30 27 1 5 24
M  V30 28 1 6 25
M  V30 29 1 11 26
M  V30 30 1 12 27 CFG=3
M  V30 31 1 13 28
M  V30 32 1 13 29
M  V30 33 1 14 30
M  V30 34 1 14 31
M  V30 35 1 15 32
M  V30 36 1 16 33
M  V30 37 1 16 34
M  V30 38 1 19 35
M  V30 39 1 20 36
M  V30 END BOND
M  V30 END CTAB
M  END
>  <Dataset>  (870) 
ChEMBL_Kinases

>  <Ligand_Instance>  (870) 
nan

>  <PDB_ID>  (870) 
nan

>  <Standardized_SMILES>  (870) 
Clc1cnccc1-c1nc(N[C@@H]2CCNC2)c2sccc2n1

>  <Name>  (870) 
nan

>  <Pocket>  (870) 
nan

>  <ATP_Site>  (870) 
nan

>  <Peripheral>  (870) 
nan

>  <Num_H_Atoms_ProtBoundConf>  (870) 
nan

>  <Num_Resolved_Atoms>  (870) 
nan

>  <Num_Not_Resolved_Atoms>  (870) 
nan

$$$$
CHEMBL3728732
     RDKit          3D

  0  0  0  0  0  0  0  0  0  0999 V3000
M  V30 BEGIN CTAB
M  V30 COUNTS 59 64 0 0 0
M  V30 BEGIN ATOM
M  V30 1 N -1.437225 -2.622640 0.713177 0
M  V30 2 C -0.016377 -2.406158 1.027141 0 CFG=1
M  V30 3 C -0.012061 -1.757570 2.414031 0
M  V30 4 N -0.747619 -0.510304 2.372059 0
M  V30 5 C -0.306321 0.620407 1.640000 0
M  V30 6 N 0.819537 0.421676 0.954914 0
M  V30 7 C 1.439837 1.282297 0.155662 0
M  V30 8 C 2.662959 1.069495 -0.581430 0
M  V30 9 C 3.288403 -0.155700 -0.444061 0
M  V30 10 C 4.456389 -0.328022 -1.158224 0
M  V30 11 N 4.976672 0.616770 -1.945025 0
M  V30 12 C 4.364014 1.792453 -2.068260 0
M  V30 13 C 3.189596 2.054279 -1.390852 0
M  V30 14 N 0.813361 2.463841 0.070398 0
M  V30 15 C -0.327397 2.712505 0.744934 0
M  V30 16 S -1.248047 4.202874 0.711758 0
M  V30 17 C -2.559153 3.538536 1.899218 0
M  V30 18 C -2.136868 2.280865 2.170535 0
M  V30 19 C -0.987398 1.810715 1.591697 0
M  V30 20 C -2.962827 1.517622 3.148300 0
M  V30 21 C -3.922851 2.389628 3.876307 0
M  V30 22 C -4.671178 3.273616 2.941276 0
M  V30 23 C -3.719072 4.290344 2.325898 0
M  V30 24 C 0.636736 -3.767083 1.160486 0
M  V30 25 C 0.539263 -4.581678 -0.072708 0
M  V30 26 C -0.350475 -5.649287 -0.247027 0
M  V30 27 N -0.240717 -6.216660 -1.446856 0
M  V30 28 C 0.726232 -5.548035 -2.116041 0
M  V30 29 C 1.263687 -5.692392 -3.388207 0
M  V30 30 C 2.271298 -4.822538 -3.781934 0
M  V30 31 C 2.751808 -3.827160 -2.955970 0
M  V30 32 C 2.201989 -3.699643 -1.689773 0
M  V30 33 C 1.198973 -4.556617 -1.282382 0
M  V30 34 H -1.809278 -1.682025 0.417606 0
M  V30 35 H -1.903771 -2.931380 1.591899 0
M  V30 36 H 0.414429 -1.778005 0.251513 0
M  V30 37 H 1.062623 -1.567349 2.702484 0
M  V30 38 H -0.378162 -2.480971 3.157421 0
M  V30 39 H -1.590343 -0.693869 2.949165 0
M  V30 40 H 2.849377 -0.904796 0.199666 0
M  V30 41 H 4.980522 -1.281226 -1.077013 0
M  V30 42 H 4.786395 2.562170 -2.708203 0
M  V30 43 H 2.705936 3.015050 -1.503089 0
M  V30 44 H -2.294724 1.113773 3.970337 0
M  V30 45 H -3.475852 0.716854 2.585103 0
M  V30 46 H -4.648677 1.779370 4.429052 0
M  V30 47 H -3.316581 3.040727 4.553305 0
M  V30 48 H -5.495058 3.836113 3.407986 0
M  V30 49 H -5.109405 2.690337 2.092724 0
M  V30 50 H -4.195993 4.817345 1.481089 0
M  V30 51 H -3.490716 5.044055 3.102188 0
M  V30 52 H 1.705489 -3.614219 1.468547 0
M  V30 53 H 0.166292 -4.310941 1.995716 0
M  V30 54 H -1.056020 -5.975455 0.523638 0
M  V30 55 H -0.812589 -7.024555 -1.772693 0
M  V30 56 H 0.855741 -6.487698 -4.002646 0
M  V30 57 H 2.649909 -4.992373 -4.797062 0
M  V30 58 H 3.544576 -3.173781 -3.319125 0
M  V30 59 H 2.569582 -2.928527 -1.039101 0
M  V30 END ATOM
M  V30 BEGIN BOND
M  V30 1 1 1 2
M  V30 2 1 2 3
M  V30 3 1 3 4
M  V30 4 1 4 5
M  V30 5 2 5 6
M  V30 6 1 6 7
M  V30 7 1 7 8
M  V30 8 2 8 9
M  V30 9 1 9 10
M  V30 10 2 10 11
M  V30 11 1 11 12
M  V30 12 2 12 13
M  V30 13 2 7 14
M  V30 14 1 14 15
M  V30 15 1 15 16
M  V30 16 1 16 17
M  V30 17 2 17 18
M  V30 18 1 18 19
M  V30 19 1 18 20
M  V30 20 1 20 21
M  V30 21 1 21 22
M  V30 22 1 22 23
M  V30 23 1 2 24
M  V30 24 1 24 25
M  V30 25 2 25 26
M  V30 26 1 26 27
M  V30 27 1 27 28
M  V30 28 2 28 29
M  V30 29 1 29 30
M  V30 30 2 30 31
M  V30 31 1 31 32
M  V30 32 2 32 33
M  V30 33 1 19 5
M  V30 34 1 33 25
M  V30 35 1 13 8
M  V30 36 2 19 15
M  V30 37 1 33 28
M  V30 38 1 23 17
M  V30 39 1 1 34
M  V30 40 1 1 35
M  V30 41 1 2 36 CFG=3
M  V30 42 1 3 37
M  V30 43 1 3 38
M  V30 44 1 4 39
M  V30 45 1 9 40
M  V30 46 1 10 41
M  V30 47 1 12 42
M  V30 48 1 13 43
M  V30 49 1 20 44
M  V30 50 1 20 45
M  V30 51 1 21 46
M  V30 52 1 21 47
M  V30 53 1 22 48
M  V30 54 1 22 49
M  V30 55 1 23 50
M  V30 56 1 23 51
M  V30 57 1 24 52
M  V30 58 1 24 53
M  V30 59 1 26 54
M  V30 60 1 27 55
M  V30 61 1 29 56
M  V30 62 1 30 57
M  V30 63 1 31 58
M  V30 64 1 32 59
M  V30 END BOND
M  V30 END CTAB
M  END
>  <Dataset>  (871) 
ChEMBL_Kinases

>  <Ligand_Instance>  (871) 
nan

>  <PDB_ID>  (871) 
nan

>  <Standardized_SMILES>  (871) 
N[C@@H](CNc1nc(-c2ccncc2)nc2sc3c(c12)CCCC3)Cc1c[nH]c2ccccc12

>  <Name>  (871) 
nan

>  <Pocket>  (871) 
nan

>  <ATP_Site>  (871) 
nan

>  <Peripheral>  (871) 
nan

>  <Num_H_Atoms_ProtBoundConf>  (871) 
nan

>  <Num_Resolved_Atoms>  (871) 
nan

>  <Num_Not_Resolved_Atoms>  (871) 
nan

$$$$
CHEMBL573735
     RDKit          3D

  0  0  0  0  0  0  0  0  0  0999 V3000
M  V30 BEGIN CTAB
M  V30 COUNTS 48 50 0 0 0
M  V30 BEGIN ATOM
M  V30 1 C -0.278760 -5.549358 3.198852 0
M  V30 2 O -1.343035 -4.598122 3.098147 0
M  V30 3 C -1.158125 -3.531083 2.222322 0
M  V30 4 C 0.027978 -3.456712 1.510162 0
M  V30 5 C 0.228411 -2.408001 0.638504 0
M  V30 6 N 1.408662 -2.249861 -0.101678 0
M  V30 7 C 1.608866 -1.372724 -1.204837 0
M  V30 8 C 1.696569 -0.005309 -1.085555 0
M  V30 9 C 1.900451 0.849478 -2.133539 0
M  V30 10 O 1.975432 2.239200 -1.916986 0
M  V30 11 C 1.850983 2.647339 -0.579165 0
M  V30 12 C 0.633258 2.870075 0.029379 0
M  V30 13 C 0.658883 3.270776 1.359488 0
M  V30 14 C 1.868397 3.429112 2.011826 0
M  V30 15 C 1.935703 3.857727 3.422279 0
M  V30 16 N 3.070645 3.208764 1.409177 0
M  V30 17 C 3.043766 2.814742 0.101853 0
M  V30 18 C 2.024856 0.287579 -3.386426 0
M  V30 19 C 1.939296 -1.096230 -3.531455 0
M  V30 20 N 1.733966 -1.905765 -2.449354 0
M  V30 21 C -0.719730 -1.424668 0.451216 0
M  V30 22 C -1.914426 -1.485414 1.159357 0
M  V30 23 O -2.990968 -0.607258 1.122562 0
M  V30 24 C -3.074838 0.546936 0.338696 0
M  V30 25 C -2.112940 -2.554855 2.044642 0
M  V30 26 O -3.288180 -2.703137 2.804292 0
M  V30 27 C -4.309048 -3.460105 2.154729 0
M  V30 28 H -0.152139 -6.053035 2.195885 0
M  V30 29 H -0.488515 -6.360170 3.899417 0
M  V30 30 H 0.687261 -5.072466 3.476889 0
M  V30 31 H 0.831816 -4.175618 1.585190 0
M  V30 32 H 2.244086 -2.818246 0.151917 0
M  V30 33 H 1.587531 0.356887 -0.067241 0
M  V30 34 H -0.263770 2.728731 -0.529525 0
M  V30 35 H -0.268742 3.453466 1.867673 0
M  V30 36 H 1.751964 3.045993 4.148814 0
M  V30 37 H 2.891491 4.343484 3.677431 0
M  V30 38 H 1.144566 4.618739 3.554267 0
M  V30 39 H 3.996914 2.639865 -0.380294 0
M  V30 40 H 2.190899 0.923676 -4.249187 0
M  V30 41 H 2.035829 -1.559247 -4.505017 0
M  V30 42 H -0.680221 -0.562134 -0.196398 0
M  V30 43 H -4.115474 0.615134 -0.070629 0
M  V30 44 H -2.371460 0.594727 -0.496381 0
M  V30 45 H -2.948042 1.496103 0.915208 0
M  V30 46 H -4.481883 -3.069702 1.118938 0
M  V30 47 H -5.260364 -3.413997 2.687709 0
M  V30 48 H -4.003793 -4.512526 2.021573 0
M  V30 END ATOM
M  V30 BEGIN BOND
M  V30 1 1 1 2
M  V30 2 1 2 3
M  V30 3 2 3 4
M  V30 4 1 4 5
M  V30 5 1 5 6
M  V30 6 1 6 7
M  V30 7 2 7 8
M  V30 8 1 8 9
M  V30 9 1 9 10
M  V30 10 1 10 11
M  V30 11 2 11 12
M  V30 12 1 12 13
M  V30 13 2 13 14
M  V30 14 1 14 15
M  V30 15 1 14 16
M  V30 16 2 16 17
M  V30 17 2 9 18
M  V30 18 1 18 19
M  V30 19 2 19 20
M  V30 20 2 5 21
M  V30 21 1 21 22
M  V30 22 1 22 23
M  V30 23 1 23 24
M  V30 24 2 22 25
M  V30 25 1 25 26
M  V30 26 1 26 27
M  V30 27 1 25 3
M  V30 28 1 20 7
M  V30 29 1 17 11
M  V30 30 1 1 28
M  V30 31 1 1 29
M  V30 32 1 1 30
M  V30 33 1 4 31
M  V30 34 1 6 32
M  V30 35 1 8 33
M  V30 36 1 12 34
M  V30 37 1 13 35
M  V30 38 1 15 36
M  V30 39 1 15 37
M  V30 40 1 15 38
M  V30 41 1 17 39
M  V30 42 1 18 40
M  V30 43 1 19 41
M  V30 44 1 21 42
M  V30 45 1 24 43
M  V30 46 1 24 44
M  V30 47 1 24 45
M  V30 48 1 27 46
M  V30 49 1 27 47
M  V30 50 1 27 48
M  V30 END BOND
M  V30 END CTAB
M  END
>  <Dataset>  (872) 
ChEMBL_Kinases

>  <Ligand_Instance>  (872) 
nan

>  <PDB_ID>  (872) 
nan

>  <Standardized_SMILES>  (872) 
COc1cc(Nc2cc(Oc3ccc(C)nc3)ccn2)cc(OC)c1OC

>  <Name>  (872) 
nan

>  <Pocket>  (872) 
nan

>  <ATP_Site>  (872) 
nan

>  <Peripheral>  (872) 
nan

>  <Num_H_Atoms_ProtBoundConf>  (872) 
nan

>  <Num_Resolved_Atoms>  (872) 
nan

>  <Num_Not_Resolved_Atoms>  (872) 
nan

$$$$
CHEMBL3728703
     RDKit          3D

  0  0  0  0  0  0  0  0  0  0999 V3000
M  V30 BEGIN CTAB
M  V30 COUNTS 58 62 0 0 0
M  V30 BEGIN ATOM
M  V30 1 N 1.972405 -1.701450 0.595860 0
M  V30 2 C 1.166553 -2.492971 1.453312 0 CFG=1
M  V30 3 C 0.171551 -1.756963 2.304201 0
M  V30 4 N -0.798796 -0.991358 1.547345 0
M  V30 5 C -0.409358 0.242862 0.900848 0
M  V30 6 N 0.838950 0.624266 1.163060 0
M  V30 7 C 1.463986 1.726802 0.780236 0
M  V30 8 C 2.841384 2.028997 1.140603 0
M  V30 9 C 3.530190 1.130856 1.927198 0
M  V30 10 C 4.828681 1.487141 2.228424 0
M  V30 11 N 5.413340 2.625258 1.800082 0
M  V30 12 C 4.686243 3.479733 1.023463 0
M  V30 13 C 3.360652 3.218103 0.657286 0
M  V30 14 N 0.702113 2.532955 0.034013 0
M  V30 15 C -0.544605 2.200483 -0.256284 0
M  V30 16 S -1.746159 3.075887 -1.196846 0
M  V30 17 C -3.062750 1.887600 -1.029847 0
M  V30 18 C -2.488338 0.857460 -0.239809 0
M  V30 19 C -1.201293 1.062626 0.133129 0
M  V30 20 C -3.429657 -0.250646 -0.007928 0
M  V30 21 C -4.520481 0.160390 0.960551 0
M  V30 22 C -5.465322 1.164760 0.377956 0
M  V30 23 C -5.447100 1.324562 -1.096291 0
M  V30 24 C -4.362244 2.172966 -1.665612 0
M  V30 25 C 0.401425 -3.604452 0.761193 0
M  V30 26 C 1.382232 -4.497596 0.117745 0
M  V30 27 C 1.906373 -5.557687 0.807371 0
M  V30 28 C 2.830626 -6.487006 0.349555 0
M  V30 29 C 3.242733 -6.277718 -0.964794 0
M  V30 30 C 2.757416 -5.228919 -1.722769 0
M  V30 31 C 1.838939 -4.356157 -1.178391 0
M  V30 32 H 1.540315 -1.616446 -0.348645 0
M  V30 33 H 2.976383 -1.933192 0.601731 0
M  V30 34 H 1.867207 -3.022199 2.156417 0
M  V30 35 H -0.288639 -2.420256 3.024355 0
M  V30 36 H 0.819146 -1.012978 2.900651 0
M  V30 37 H -1.596823 -1.613399 1.707997 0
M  V30 38 H 3.102524 0.211017 2.290624 0
M  V30 39 H 5.480386 0.851220 2.848832 0
M  V30 40 H 5.081003 4.416465 0.636425 0
M  V30 41 H 2.809560 3.913610 0.040894 0
M  V30 42 H -3.898313 -0.533849 -1.006001 0
M  V30 43 H -3.007717 -1.185778 0.328874 0
M  V30 44 H -4.023511 0.539402 1.873433 0
M  V30 45 H -5.061888 -0.762685 1.244439 0
M  V30 46 H -6.521128 0.855935 0.650656 0
M  V30 47 H -5.325035 2.135812 0.879451 0
M  V30 48 H -6.409893 1.876417 -1.347374 0
M  V30 49 H -5.597028 0.348703 -1.622440 0
M  V30 50 H -4.254810 1.891262 -2.754030 0
M  V30 51 H -4.654313 3.239886 -1.565069 0
M  V30 52 H -0.343207 -3.193157 0.057732 0
M  V30 53 H -0.087460 -4.186829 1.597752 0
M  V30 54 H 1.566382 -5.697860 1.834463 0
M  V30 55 H 3.178248 -7.290647 0.987469 0
M  V30 56 H 3.968919 -7.006912 -1.324864 0
M  V30 57 H 3.103921 -5.104900 -2.734425 0
M  V30 58 H 1.460692 -3.537277 -1.776942 0
M  V30 END ATOM
M  V30 BEGIN BOND
M  V30 1 1 1 2
M  V30 2 1 2 3
M  V30 3 1 3 4
M  V30 4 1 4 5
M  V30 5 2 5 6
M  V30 6 1 6 7
M  V30 7 1 7 8
M  V30 8 2 8 9
M  V30 9 1 9 10
M  V30 10 2 10 11
M  V30 11 1 11 12
M  V30 12 2 12 13
M  V30 13 2 7 14
M  V30 14 1 14 15
M  V30 15 1 15 16
M  V30 16 1 16 17
M  V30 17 2 17 18
M  V30 18 1 18 19
M  V30 19 1 18 20
M  V30 20 1 20 21
M  V30 21 1 21 22
M  V30 22 1 22 23
M  V30 23 1 23 24
M  V30 24 1 2 25
M  V30 25 1 25 26
M  V30 26 2 26 27
M  V30 27 1 27 28
M  V30 28 2 28 29
M  V30 29 1 29 30
M  V30 30 2 30 31
M  V30 31 1 19 5
M  V30 32 1 31 26
M  V30 33 1 13 8
M  V30 34 2 19 15
M  V30 35 1 24 17
M  V30 36 1 1 32
M  V30 37 1 1 33
M  V30 38 1 2 34 CFG=1
M  V30 39 1 3 35
M  V30 40 1 3 36
M  V30 41 1 4 37
M  V30 42 1 9 38
M  V30 43 1 10 39
M  V30 44 1 12 40
M  V30 45 1 13 41
M  V30 46 1 20 42
M  V30 47 1 20 43
M  V30 48 1 21 44
M  V30 49 1 21 45
M  V30 50 1 22 46
M  V30 51 1 22 47
M  V30 52 1 23 48
M  V30 53 1 23 49
M  V30 54 1 24 50
M  V30 55 1 24 51
M  V30 56 1 25 52
M  V30 57 1 25 53
M  V30 58 1 27 54
M  V30 59 1 28 55
M  V30 60 1 29 56
M  V30 61 1 30 57
M  V30 62 1 31 58
M  V30 END BOND
M  V30 END CTAB
M  END
>  <Dataset>  (873) 
ChEMBL_Kinases

>  <Ligand_Instance>  (873) 
nan

>  <PDB_ID>  (873) 
nan

>  <Standardized_SMILES>  (873) 
N[C@@H](CNc1nc(-c2ccncc2)nc2sc3c(c12)CCCCC3)Cc1ccccc1

>  <Name>  (873) 
nan

>  <Pocket>  (873) 
nan

>  <ATP_Site>  (873) 
nan

>  <Peripheral>  (873) 
nan

>  <Num_H_Atoms_ProtBoundConf>  (873) 
nan

>  <Num_Resolved_Atoms>  (873) 
nan

>  <Num_Not_Resolved_Atoms>  (873) 
nan

$$$$
CHEMBL524106
     RDKit          3D

  0  0  0  0  0  0  0  0  0  0999 V3000
M  V30 BEGIN CTAB
M  V30 COUNTS 37 40 0 0 0
M  V30 BEGIN ATOM
M  V30 1 C -0.286075 -4.214421 0.309486 0
M  V30 2 C -0.634056 -3.519084 -0.860097 0
M  V30 3 N 0.227190 -2.606987 -1.313129 0
M  V30 4 C 1.399813 -2.267437 -0.781319 0
M  V30 5 C 1.860752 -2.909130 0.412157 0
M  V30 6 C 3.147417 -2.477957 0.917818 0
M  V30 7 N 3.104367 -1.321332 1.815722 0
M  V30 8 C 2.562938 -0.268253 0.982938 0
M  V30 9 C 3.444072 0.436005 0.099507 0
M  V30 10 C 2.673707 1.355523 -0.560440 0
M  V30 11 C 1.334300 1.589687 -0.433738 0
M  V30 12 N 0.663068 2.546018 -1.144105 0
M  V30 13 C -0.646120 2.432865 -0.689733 0
M  V30 14 C -0.625598 1.422677 0.242043 0
M  V30 15 C -1.774728 0.978485 1.016458 0
M  V30 16 C -2.518495 1.991425 1.583966 0
M  V30 17 C -3.623071 1.688279 2.352062 0
M  V30 18 N -4.015745 0.425460 2.575078 0
M  V30 19 C -3.337122 -0.637901 2.049071 0
M  V30 20 C -2.253988 -0.264484 1.301154 0
M  V30 21 N 0.594711 0.880431 0.418958 0
M  V30 22 N 1.254583 -0.010020 1.078741 0
M  V30 23 C 0.916290 -3.810524 0.783567 0
M  V30 24 H -0.914486 -4.962046 0.745147 0
M  V30 25 H -1.561899 -3.702407 -1.383437 0
M  V30 26 H 1.913535 -1.501053 -1.342291 0
M  V30 27 H 3.812834 -2.240340 0.039074 0
M  V30 28 H 3.658388 -3.266256 1.519957 0
M  V30 29 H 3.392425 -1.255315 2.813903 0
M  V30 30 H 4.447560 0.098533 0.166947 0
M  V30 31 H 3.329780 1.918472 -1.253201 0
M  V30 32 H -1.469241 3.032935 -1.027960 0
M  V30 33 H -2.301136 3.060502 1.474071 0
M  V30 34 H -4.208210 2.503484 2.807269 0
M  V30 35 H -3.561163 -1.685628 2.168238 0
M  V30 36 H -1.664562 -1.065597 0.844079 0
M  V30 37 H 1.255611 -4.331033 1.715013 0
M  V30 END ATOM
M  V30 BEGIN BOND
M  V30 1 2 1 2
M  V30 2 1 2 3
M  V30 3 2 3 4
M  V30 4 1 4 5
M  V30 5 1 5 6
M  V30 6 1 6 7
M  V30 7 1 7 8
M  V30 8 1 8 9
M  V30 9 2 9 10
M  V30 10 1 10 11
M  V30 11 2 11 12
M  V30 12 1 12 13
M  V30 13 2 13 14
M  V30 14 1 14 15
M  V30 15 2 15 16
M  V30 16 1 16 17
M  V30 17 2 17 18
M  V30 18 1 18 19
M  V30 19 2 19 20
M  V30 20 1 14 21
M  V30 21 1 21 22
M  V30 22 2 5 23
M  V30 23 1 23 1
M  V30 24 2 22 8
M  V30 25 1 21 11
M  V30 26 1 20 15
M  V30 27 1 1 24
M  V30 28 1 2 25
M  V30 29 1 4 26
M  V30 30 1 6 27
M  V30 31 1 6 28
M  V30 32 1 7 29
M  V30 33 1 9 30
M  V30 34 1 10 31
M  V30 35 1 13 32
M  V30 36 1 16 33
M  V30 37 1 17 34
M  V30 38 1 19 35
M  V30 39 1 20 36
M  V30 40 1 23 37
M  V30 END BOND
M  V30 END CTAB
M  END
>  <Dataset>  (874) 
ChEMBL_Kinases

>  <Ligand_Instance>  (874) 
nan

>  <PDB_ID>  (874) 
nan

>  <Standardized_SMILES>  (874) 
c1cncc(CNc2ccc3ncc(-c4ccncc4)n3n2)c1

>  <Name>  (874) 
nan

>  <Pocket>  (874) 
nan

>  <ATP_Site>  (874) 
nan

>  <Peripheral>  (874) 
nan

>  <Num_H_Atoms_ProtBoundConf>  (874) 
nan

>  <Num_Resolved_Atoms>  (874) 
nan

>  <Num_Not_Resolved_Atoms>  (874) 
nan

$$$$
CHEMBL524266
     RDKit          3D

  0  0  0  0  0  0  0  0  0  0999 V3000
M  V30 BEGIN CTAB
M  V30 COUNTS 34 36 0 0 0
M  V30 BEGIN ATOM
M  V30 1 N 2.585928 -3.337064 4.412203 0
M  V30 2 C 1.936023 -3.620943 3.161298 0
M  V30 3 N 1.958514 -4.890675 2.713978 0
M  V30 4 C 1.363611 -5.228776 1.538954 0
M  V30 5 C 0.727194 -4.219540 0.807578 0
M  V30 6 C 0.706428 -2.919470 1.269562 0
M  V30 7 C 0.045111 -1.856594 0.514938 0
M  V30 8 C -0.598805 -2.035139 -0.684965 0
M  V30 9 C -1.067333 -0.784971 -1.028982 0
M  V30 10 C -0.695000 0.107071 -0.032773 0
M  V30 11 N -0.013354 -0.574191 0.903820 0
M  V30 12 C -1.013915 1.575193 -0.030406 0 CFG=1
M  V30 13 C 0.074977 2.337764 0.638892 0
M  V30 14 C -0.196672 3.834575 0.669679 0
M  V30 15 F -1.357749 4.121080 1.346451 0
M  V30 16 C -1.246659 2.030012 -1.432201 0
M  V30 17 N -2.139368 1.183133 -2.158163 0
M  V30 18 C -1.826039 -0.209585 -2.141528 0
M  V30 19 O -2.158258 -1.035397 -3.041858 0
M  V30 20 N 1.318584 -2.666607 2.442222 0
M  V30 21 H 3.381008 -2.683669 4.629064 0
M  V30 22 H 2.150124 -3.900480 5.174121 0
M  V30 23 H 1.379481 -6.255225 1.173272 0
M  V30 24 H 0.260421 -4.498372 -0.119565 0
M  V30 25 H -0.740922 -2.927635 -1.276833 0
M  V30 26 H 0.407537 -0.208199 1.783684 0
M  V30 27 H -1.967784 1.726968 0.533904 0
M  V30 28 H 0.191312 2.045929 1.702561 0
M  V30 29 H 1.061006 2.137876 0.175205 0
M  V30 30 H 0.608002 4.378067 1.203911 0
M  V30 31 H -0.262593 4.208212 -0.381616 0
M  V30 32 H -0.246684 2.113795 -1.914615 0
M  V30 33 H -1.631864 3.078198 -1.389705 0
M  V30 34 H -2.993869 1.431175 -2.703847 0
M  V30 END ATOM
M  V30 BEGIN BOND
M  V30 1 1 1 2
M  V30 2 2 2 3
M  V30 3 1 3 4
M  V30 4 2 4 5
M  V30 5 1 5 6
M  V30 6 1 6 7
M  V30 7 2 7 8
M  V30 8 1 8 9
M  V30 9 2 9 10
M  V30 10 1 10 11
M  V30 11 1 10 12
M  V30 12 1 12 13
M  V30 13 1 13 14
M  V30 14 1 14 15
M  V30 15 1 12 16
M  V30 16 1 16 17
M  V30 17 1 17 18
M  V30 18 2 18 19
M  V30 19 2 6 20
M  V30 20 1 20 2
M  V30 21 1 11 7
M  V30 22 1 18 9
M  V30 23 1 1 21
M  V30 24 1 1 22
M  V30 25 1 4 23
M  V30 26 1 5 24
M  V30 27 1 8 25
M  V30 28 1 11 26
M  V30 29 1 12 27 CFG=1
M  V30 30 1 13 28
M  V30 31 1 13 29
M  V30 32 1 14 30
M  V30 33 1 14 31
M  V30 34 1 16 32
M  V30 35 1 16 33
M  V30 36 1 17 34
M  V30 END BOND
M  V30 END CTAB
M  END
>  <Dataset>  (875) 
ChEMBL_Kinases

>  <Ligand_Instance>  (875) 
nan

>  <PDB_ID>  (875) 
nan

>  <Standardized_SMILES>  (875) 
Nc1nccc(-c2cc3c([nH]2)[C@@H](CCF)CNC3=O)n1

>  <Name>  (875) 
nan

>  <Pocket>  (875) 
nan

>  <ATP_Site>  (875) 
nan

>  <Peripheral>  (875) 
nan

>  <Num_H_Atoms_ProtBoundConf>  (875) 
nan

>  <Num_Resolved_Atoms>  (875) 
nan

>  <Num_Not_Resolved_Atoms>  (875) 
nan

$$$$
CHEMBL573696
     RDKit          3D

  0  0  0  0  0  0  0  0  0  0999 V3000
M  V30 BEGIN CTAB
M  V30 COUNTS 39 42 0 0 0
M  V30 BEGIN ATOM
M  V30 1 C -2.519285 -5.957170 1.872290 0
M  V30 2 O -2.866455 -4.750743 1.258377 0
M  V30 3 C -1.938859 -3.855700 0.740125 0
M  V30 4 C -0.594157 -4.138607 0.817123 0
M  V30 5 C 0.317184 -3.252532 0.304215 0
M  V30 6 C -0.185385 -2.109427 -0.268443 0
M  V30 7 C -1.513006 -1.765469 -0.377875 0
M  V30 8 N -2.023262 -0.590827 -0.952507 0
M  V30 9 C -1.377155 0.561831 -1.529579 0
M  V30 10 C -0.678291 1.356820 -0.470839 0
M  V30 11 N 0.576374 1.226347 -0.102703 0
M  V30 12 C 1.198201 1.938178 0.844933 0
M  V30 13 C 0.335419 2.848249 1.400205 0
M  V30 14 S 1.345583 3.682311 2.621655 0
M  V30 15 C 2.832227 2.742881 2.284287 0
M  V30 16 C 4.072628 2.843683 2.874386 0
M  V30 17 C 5.091875 2.016361 2.462557 0
M  V30 18 C 4.738627 1.141443 1.460785 0
M  V30 19 Cl 6.026686 0.057232 0.902224 0
M  V30 20 C 3.508092 1.040828 0.874774 0
M  V30 21 C 2.490441 1.872849 1.291863 0
M  V30 22 C -0.994003 3.034164 1.057138 0
M  V30 23 O -1.619462 3.908676 1.671339 0
M  V30 24 N -1.513074 2.257308 0.086091 0
M  V30 25 C -2.379080 -2.693814 0.154533 0
M  V30 26 H -2.347886 -6.790269 1.137679 0
M  V30 27 H -1.644974 -5.851222 2.552596 0
M  V30 28 H -3.381286 -6.238948 2.540915 0
M  V30 29 H -0.270617 -5.048072 1.276787 0
M  V30 30 H 1.374477 -3.457027 0.355339 0
M  V30 31 H 0.561476 -1.441646 -0.670181 0
M  V30 32 H -3.076612 -0.499392 -0.983825 0
M  V30 33 H -0.594637 0.214088 -2.282013 0
M  V30 34 H -2.055574 1.178732 -2.120842 0
M  V30 35 H 4.210680 3.577050 3.651551 0
M  V30 36 H 6.071726 2.075535 2.908554 0
M  V30 37 H 3.379721 0.288835 0.083087 0
M  V30 38 H -2.513088 2.464756 -0.105356 0
M  V30 39 H -3.458303 -2.528100 0.124870 0
M  V30 END ATOM
M  V30 BEGIN BOND
M  V30 1 1 1 2
M  V30 2 1 2 3
M  V30 3 2 3 4
M  V30 4 1 4 5
M  V30 5 2 5 6
M  V30 6 1 6 7
M  V30 7 1 7 8
M  V30 8 1 8 9
M  V30 9 1 9 10
M  V30 10 2 10 11
M  V30 11 1 11 12
M  V30 12 2 12 13
M  V30 13 1 13 14
M  V30 14 1 14 15
M  V30 15 2 15 16
M  V30 16 1 16 17
M  V30 17 2 17 18
M  V30 18 1 18 19
M  V30 19 1 18 20
M  V30 20 2 20 21
M  V30 21 1 13 22
M  V30 22 2 22 23
M  V30 23 1 22 24
M  V30 24 2 7 25
M  V30 25 1 25 3
M  V30 26 1 24 10
M  V30 27 1 21 12
M  V30 28 1 21 15
M  V30 29 1 1 26
M  V30 30 1 1 27
M  V30 31 1 1 28
M  V30 32 1 4 29
M  V30 33 1 5 30
M  V30 34 1 6 31
M  V30 35 1 8 32
M  V30 36 1 9 33
M  V30 37 1 9 34
M  V30 38 1 16 35
M  V30 39 1 17 36
M  V30 40 1 20 37
M  V30 41 1 24 38
M  V30 42 1 25 39
M  V30 END BOND
M  V30 END CTAB
M  END
>  <Dataset>  (876) 
ChEMBL_Kinases

>  <Ligand_Instance>  (876) 
nan

>  <PDB_ID>  (876) 
nan

>  <Standardized_SMILES>  (876) 
COc1cccc(NCc2nc3c(sc4ccc(Cl)cc43)c(=O)[nH]2)c1

>  <Name>  (876) 
nan

>  <Pocket>  (876) 
nan

>  <ATP_Site>  (876) 
nan

>  <Peripheral>  (876) 
nan

>  <Num_H_Atoms_ProtBoundConf>  (876) 
nan

>  <Num_Resolved_Atoms>  (876) 
nan

>  <Num_Not_Resolved_Atoms>  (876) 
nan

$$$$
CHEMBL573487
     RDKit          3D

  0  0  0  0  0  0  0  0  0  0999 V3000
M  V30 BEGIN CTAB
M  V30 COUNTS 40 43 0 0 0
M  V30 BEGIN ATOM
M  V30 1 C 0.980461 -6.649832 0.940904 0
M  V30 2 C 0.854199 -5.160407 0.896416 0
M  V30 3 C 0.700225 -4.344510 2.021337 0
M  V30 4 C 0.627396 -3.065467 1.500692 0
M  V30 5 C 0.734724 -3.135880 0.129205 0
M  V30 6 C 0.707843 -2.024897 -0.816133 0
M  V30 7 C 0.831052 -2.295876 -2.166657 0
M  V30 8 C 0.808095 -1.246894 -3.092922 0
M  V30 9 C 0.659861 0.048166 -2.611209 0
M  V30 10 O 0.605929 1.202277 -3.241542 0
M  V30 11 C 0.456475 2.199196 -2.391508 0
M  V30 12 C 0.403341 1.701288 -1.083813 0
M  V30 13 C 0.246933 2.439959 0.165238 0
M  V30 14 C 0.942033 3.579399 0.443965 0
M  V30 15 C 0.816574 4.305522 1.622094 0
M  V30 16 C -0.085454 3.824899 2.576153 0
M  V30 17 C -0.811125 2.692205 2.360129 0
M  V30 18 S -1.957992 2.060927 3.546629 0 CHG=1 VAL=3
M  V30 19 C -1.117977 0.932927 4.638113 0
M  V30 20 O -3.172530 1.177647 2.776491 0 CHG=-1 VAL=1
M  V30 21 C -0.635288 2.019881 1.164257 0
M  V30 22 C 0.536120 0.326335 -1.261849 0
M  V30 23 C 0.562451 -0.719972 -0.384522 0
M  V30 24 O 0.865270 -4.385718 -0.166711 0
M  V30 25 H 1.456561 -6.950754 1.882604 0
M  V30 26 H -0.003413 -7.147584 0.883951 0
M  V30 27 H 1.615594 -6.941382 0.056870 0
M  V30 28 H 0.656739 -4.708501 3.039779 0
M  V30 29 H 0.503521 -2.166338 2.119506 0
M  V30 30 H 0.946347 -3.340369 -2.497303 0
M  V30 31 H 0.905838 -1.477877 -4.145572 0
M  V30 32 H 0.377006 3.262085 -2.568075 0
M  V30 33 H 1.640232 3.949711 -0.296717 0
M  V30 34 H 1.376829 5.214344 1.834158 0
M  V30 35 H -0.228167 4.349761 3.519315 0
M  V30 36 H -1.243869 -0.112901 4.285390 0
M  V30 37 H -1.556029 0.949635 5.670502 0
M  V30 38 H -0.045569 1.214817 4.659251 0
M  V30 39 H -1.225495 1.120765 1.017718 0
M  V30 40 H 0.468738 -0.545031 0.679692 0
M  V30 END ATOM
M  V30 BEGIN BOND
M  V30 1 1 1 2
M  V30 2 2 2 3
M  V30 3 1 3 4
M  V30 4 2 4 5
M  V30 5 1 5 6
M  V30 6 2 6 7
M  V30 7 1 7 8
M  V30 8 2 8 9
M  V30 9 1 9 10
M  V30 10 1 10 11
M  V30 11 2 11 12
M  V30 12 1 12 13
M  V30 13 2 13 14
M  V30 14 1 14 15
M  V30 15 2 15 16
M  V30 16 1 16 17
M  V30 17 1 17 18
M  V30 18 1 18 19
M  V30 19 1 18 20
M  V30 20 2 17 21
M  V30 21 1 12 22
M  V30 22 2 22 23
M  V30 23 1 5 24
M  V30 24 1 24 2
M  V30 25 1 23 6
M  V30 26 1 22 9
M  V30 27 1 21 13
M  V30 28 1 1 25
M  V30 29 1 1 26
M  V30 30 1 1 27
M  V30 31 1 3 28
M  V30 32 1 4 29
M  V30 33 1 7 30
M  V30 34 1 8 31
M  V30 35 1 11 32
M  V30 36 1 14 33
M  V30 37 1 15 34
M  V30 38 1 16 35
M  V30 39 1 19 36
M  V30 40 1 19 37
M  V30 41 1 19 38
M  V30 42 1 21 39
M  V30 43 1 23 40
M  V30 END BOND
M  V30 END CTAB
M  END
>  <Dataset>  (877) 
ChEMBL_Kinases

>  <Ligand_Instance>  (877) 
nan

>  <PDB_ID>  (877) 
nan

>  <Standardized_SMILES>  (877) 
Cc1ccc(-c2ccc3occ(-c4cccc([S+](C)[O-])c4)c3c2)o1

>  <Name>  (877) 
nan

>  <Pocket>  (877) 
nan

>  <ATP_Site>  (877) 
nan

>  <Peripheral>  (877) 
nan

>  <Num_H_Atoms_ProtBoundConf>  (877) 
nan

>  <Num_Resolved_Atoms>  (877) 
nan

>  <Num_Not_Resolved_Atoms>  (877) 
nan

$$$$
CHEMBL524274
     RDKit          3D

  0  0  0  0  0  0  0  0  0  0999 V3000
M  V30 BEGIN CTAB
M  V30 COUNTS 40 44 0 0 0
M  V30 BEGIN ATOM
M  V30 1 Cl -0.302604 -7.645303 4.514800 0
M  V30 2 C -0.424015 -6.286509 3.426828 0
M  V30 3 C -0.738434 -6.449133 2.086746 0
M  V30 4 C -0.825925 -5.351283 1.255518 0
M  V30 5 C -0.611279 -4.064232 1.698938 0
M  V30 6 C -0.689232 -2.867057 0.869354 0
M  V30 7 C -1.099336 -1.693516 1.471548 0
M  V30 8 C -1.204037 -0.510667 0.770340 0
M  V30 9 C -0.903478 -0.436817 -0.573865 0
M  V30 10 O -0.918410 0.571190 -1.480991 0
M  V30 11 C 0.052358 1.415929 -1.894193 0
M  V30 12 C 0.313312 1.320316 -3.265249 0
M  V30 13 N 1.221188 2.018668 -4.009817 0
M  V30 14 C 1.957926 2.920310 -3.306432 0
M  V30 15 C 1.730801 3.045240 -1.950290 0
M  V30 16 S 2.509668 4.117502 -0.743401 0
M  V30 17 C 1.542370 3.534075 0.675316 0
M  V30 18 C 1.780412 4.099374 1.969833 0
M  V30 19 N 2.989733 4.350797 2.523985 0
M  V30 20 N 2.766635 4.874294 3.730627 0
M  V30 21 N 1.471457 4.952868 3.936157 0
M  V30 22 N 0.840023 4.488116 2.880996 0
M  V30 23 C 0.741043 2.605955 0.116502 0
M  V30 24 C 0.823260 2.342079 -1.225768 0
M  V30 25 C -0.486886 -1.624930 -1.189908 0
M  V30 26 C -0.381680 -2.824501 -0.475144 0
M  V30 27 C -0.298771 -3.936695 3.044650 0
M  V30 28 C -0.206024 -5.008732 3.888878 0
M  V30 29 H -0.910009 -7.455836 1.723428 0
M  V30 30 H -1.070604 -5.471664 0.210670 0
M  V30 31 H -1.361879 -1.636946 2.528638 0
M  V30 32 H -1.519049 0.446989 1.157290 0
M  V30 33 H -0.223877 0.624157 -3.930100 0
M  V30 34 H 2.729351 3.570154 -3.717801 0
M  V30 35 H 1.157971 5.348749 4.851317 0
M  V30 36 H 0.091916 2.159774 0.853209 0
M  V30 37 H -0.204613 -1.769786 -2.245387 0
M  V30 38 H -0.065475 -3.757256 -0.912076 0
M  V30 39 H -0.109698 -2.971482 3.502242 0
M  V30 40 H 0.039367 -4.892642 4.938440 0
M  V30 END ATOM
M  V30 BEGIN BOND
M  V30 1 1 1 2
M  V30 2 2 2 3
M  V30 3 1 3 4
M  V30 4 2 4 5
M  V30 5 1 5 6
M  V30 6 2 6 7
M  V30 7 1 7 8
M  V30 8 2 8 9
M  V30 9 1 9 10
M  V30 10 1 10 11
M  V30 11 2 11 12
M  V30 12 1 12 13
M  V30 13 2 13 14
M  V30 14 1 14 15
M  V30 15 1 15 16
M  V30 16 1 16 17
M  V30 17 1 17 18
M  V30 18 1 18 19
M  V30 19 2 19 20
M  V30 20 1 20 21
M  V30 21 1 21 22
M  V30 22 2 17 23
M  V30 23 1 23 24
M  V30 24 1 9 25
M  V30 25 2 25 26
M  V30 26 1 5 27
M  V30 27 2 27 28
M  V30 28 1 28 2
M  V30 29 1 26 6
M  V30 30 1 24 11
M  V30 31 2 24 15
M  V30 32 2 22 18
M  V30 33 1 3 29
M  V30 34 1 4 30
M  V30 35 1 7 31
M  V30 36 1 8 32
M  V30 37 1 12 33
M  V30 38 1 14 34
M  V30 39 1 21 35
M  V30 40 1 23 36
M  V30 41 1 25 37
M  V30 42 1 26 38
M  V30 43 1 27 39
M  V30 44 1 28 40
M  V30 END BOND
M  V30 END CTAB
M  END
>  <Dataset>  (878) 
ChEMBL_Kinases

>  <Ligand_Instance>  (878) 
nan

>  <PDB_ID>  (878) 
nan

>  <Standardized_SMILES>  (878) 
Clc1ccc(-c2ccc(Oc3cncc4sc(-c5nn[nH]n5)cc34)cc2)cc1

>  <Name>  (878) 
nan

>  <Pocket>  (878) 
nan

>  <ATP_Site>  (878) 
nan

>  <Peripheral>  (878) 
nan

>  <Num_H_Atoms_ProtBoundConf>  (878) 
nan

>  <Num_Resolved_Atoms>  (878) 
nan

>  <Num_Not_Resolved_Atoms>  (878) 
nan

$$$$
CHEMBL524276
     RDKit          3D

  0  0  0  0  0  0  0  0  0  0999 V3000
M  V30 BEGIN CTAB
M  V30 COUNTS 44 47 0 0 0
M  V30 BEGIN ATOM
M  V30 1 N -0.211664 -6.429467 3.548037 0
M  V30 2 C -0.050847 -5.697516 2.655144 0
M  V30 3 C 0.159687 -4.784244 1.573493 0
M  V30 4 C -0.467299 -5.022790 0.364814 0
M  V30 5 C -0.245481 -4.120370 -0.667973 0
M  V30 6 C 0.581352 -3.009981 -0.494765 0
M  V30 7 C 0.698770 -2.168470 -1.691106 0
M  V30 8 C 0.902023 -2.675359 -2.960364 0
M  V30 9 N 0.963312 -1.641223 -3.827903 0
M  V30 10 C 0.799820 -0.517970 -3.099188 0
M  V30 11 C 0.767735 0.823175 -3.414007 0
M  V30 12 C 0.576571 1.736697 -2.398693 0
M  V30 13 C 0.409536 1.403716 -1.049444 0
M  V30 14 N 0.215607 2.384650 -0.048181 0
M  V30 15 C 0.047071 2.033831 1.330725 0 CFG=1
M  V30 16 C 1.282693 1.304687 1.798557 0
M  V30 17 C 0.925207 0.605163 3.085646 0
M  V30 18 C -0.224074 1.225947 3.802585 0 CFG=2
M  V30 19 O -1.416266 0.494088 3.603055 0
M  V30 20 C -0.407222 2.690524 3.611814 0
M  V30 21 C -0.132078 3.206038 2.233597 0
M  V30 22 N 0.455615 0.082785 -0.844560 0
M  V30 23 N 0.637385 -0.816684 -1.797372 0
M  V30 24 C 1.198449 -2.786114 0.714342 0
M  V30 25 C 0.970639 -3.687429 1.729532 0
M  V30 26 H -1.108367 -5.897617 0.255343 0
M  V30 27 H -0.760831 -4.354267 -1.593881 0
M  V30 28 H 1.002245 -3.708499 -3.266326 0
M  V30 29 H 0.890330 1.135815 -4.432171 0
M  V30 30 H 0.559638 2.781519 -2.702529 0
M  V30 31 H 0.200238 3.377651 -0.356017 0
M  V30 32 H -0.857669 1.366587 1.367775 0
M  V30 33 H 1.762485 0.675869 1.048132 0
M  V30 34 H 2.019630 2.111012 2.073482 0
M  V30 35 H 1.836461 0.567208 3.725292 0
M  V30 36 H 0.661814 -0.442351 2.831082 0
M  V30 37 H -0.015061 1.083110 4.903975 0
M  V30 38 H -1.130248 -0.466899 3.524147 0
M  V30 39 H 0.176000 3.278623 4.372399 0
M  V30 40 H -1.500482 2.895136 3.809146 0
M  V30 41 H 0.843870 3.762949 2.272698 0
M  V30 42 H -0.896686 3.925445 1.876619 0
M  V30 43 H 1.819252 -1.899585 0.750074 0
M  V30 44 H 1.458724 -3.496209 2.660564 0
M  V30 END ATOM
M  V30 BEGIN BOND
M  V30 1 3 1 2
M  V30 2 1 2 3
M  V30 3 2 3 4
M  V30 4 1 4 5
M  V30 5 2 5 6
M  V30 6 1 6 7
M  V30 7 2 7 8
M  V30 8 1 8 9
M  V30 9 2 9 10
M  V30 10 1 10 11
M  V30 11 2 11 12
M  V30 12 1 12 13
M  V30 13 1 13 14
M  V30 14 1 14 15
M  V30 15 1 15 16
M  V30 16 1 16 17
M  V30 17 1 17 18
M  V30 18 1 18 19
M  V30 19 1 18 20
M  V30 20 1 20 21
M  V30 21 2 13 22
M  V30 22 1 22 23
M  V30 23 1 6 24
M  V30 24 2 24 25
M  V30 25 1 25 3
M  V30 26 1 23 7
M  V30 27 1 23 10
M  V30 28 1 21 15
M  V30 29 1 4 26
M  V30 30 1 5 27
M  V30 31 1 8 28
M  V30 32 1 11 29
M  V30 33 1 12 30
M  V30 34 1 14 31
M  V30 35 1 15 32 CFG=3
M  V30 36 1 16 33
M  V30 37 1 16 34
M  V30 38 1 17 35
M  V30 39 1 17 36
M  V30 40 1 18 37 CFG=1
M  V30 41 1 19 38
M  V30 42 1 20 39
M  V30 43 1 20 40
M  V30 44 1 21 41
M  V30 45 1 21 42
M  V30 46 1 24 43
M  V30 47 1 25 44
M  V30 END BOND
M  V30 END CTAB
M  END
>  <Dataset>  (879) 
ChEMBL_Kinases

>  <Ligand_Instance>  (879) 
nan

>  <PDB_ID>  (879) 
nan

>  <Standardized_SMILES>  (879) 
N#Cc1ccc(-c2cnc3ccc(N[C@H]4CC[C@H](O)CC4)nn23)cc1

>  <Name>  (879) 
nan

>  <Pocket>  (879) 
nan

>  <ATP_Site>  (879) 
nan

>  <Peripheral>  (879) 
nan

>  <Num_H_Atoms_ProtBoundConf>  (879) 
nan

>  <Num_Resolved_Atoms>  (879) 
nan

>  <Num_Not_Resolved_Atoms>  (879) 
nan

$$$$
CHEMBL573486
     RDKit          3D

  0  0  0  0  0  0  0  0  0  0999 V3000
M  V30 BEGIN CTAB
M  V30 COUNTS 39 42 0 0 0
M  V30 BEGIN ATOM
M  V30 1 C -0.109723 -4.295189 2.118937 0
M  V30 2 O 1.062905 -3.942336 2.781058 0
M  V30 3 C 1.497038 -2.689587 3.116859 0
M  V30 4 C 2.727904 -2.689626 3.781932 0
M  V30 5 C 3.283037 -1.479611 4.179659 0
M  V30 6 C 2.633137 -0.269154 3.926304 0
M  V30 7 C 1.401937 -0.271641 3.260847 0
M  V30 8 C 0.673042 0.956031 2.966206 0
M  V30 9 C 0.447509 2.024705 3.817117 0
M  V30 10 O -0.249593 2.956145 3.203448 0
M  V30 11 C -0.525641 2.604051 1.974433 0
M  V30 12 C -1.198082 3.148977 0.898905 0
M  V30 13 C -1.328618 2.515847 -0.320473 0
M  V30 14 C -0.762637 1.268539 -0.493850 0
M  V30 15 C -0.863955 0.544456 -1.758479 0
M  V30 16 C -1.517014 1.016609 -2.880931 0
M  V30 17 C -1.347882 0.005848 -3.805384 0
M  V30 18 C -0.615266 -1.024953 -3.231561 0
M  V30 19 C -0.140359 -2.342495 -3.747676 0
M  V30 20 O -0.361355 -0.633903 -2.009252 0
M  V30 21 C -0.084593 0.706768 0.573809 0
M  V30 22 C 0.043538 1.340045 1.786878 0
M  V30 23 C 0.875025 -1.486824 2.877952 0
M  V30 24 H -0.842939 -3.481635 2.087491 0
M  V30 25 H 0.191805 -4.609257 1.088126 0
M  V30 26 H -0.624405 -5.189905 2.553239 0
M  V30 27 H 3.297722 -3.601505 4.016138 0
M  V30 28 H 4.232051 -1.471372 4.693101 0
M  V30 29 H 3.068877 0.679547 4.238406 0
M  V30 30 H 0.831735 2.010831 4.838523 0
M  V30 31 H -1.650956 4.125454 1.008131 0
M  V30 32 H -1.868787 2.972019 -1.159208 0
M  V30 33 H -2.049438 1.943793 -3.054439 0
M  V30 34 H -1.692341 -0.060756 -4.829130 0
M  V30 35 H -0.310047 -3.120923 -2.953042 0
M  V30 36 H -0.756267 -2.654554 -4.626837 0
M  V30 37 H 0.936054 -2.281528 -3.946975 0
M  V30 38 H 0.345460 -0.261895 0.413444 0
M  V30 39 H -0.061915 -1.601820 2.362408 0
M  V30 END ATOM
M  V30 BEGIN BOND
M  V30 1 1 1 2
M  V30 2 1 2 3
M  V30 3 2 3 4
M  V30 4 1 4 5
M  V30 5 2 5 6
M  V30 6 1 6 7
M  V30 7 1 7 8
M  V30 8 2 8 9
M  V30 9 1 9 10
M  V30 10 1 10 11
M  V30 11 2 11 12
M  V30 12 1 12 13
M  V30 13 2 13 14
M  V30 14 1 14 15
M  V30 15 2 15 16
M  V30 16 1 16 17
M  V30 17 2 17 18
M  V30 18 1 18 19
M  V30 19 1 18 20
M  V30 20 1 14 21
M  V30 21 2 21 22
M  V30 22 2 7 23
M  V30 23 1 23 3
M  V30 24 1 22 8
M  V30 25 1 22 11
M  V30 26 1 20 15
M  V30 27 1 1 24
M  V30 28 1 1 25
M  V30 29 1 1 26
M  V30 30 1 4 27
M  V30 31 1 5 28
M  V30 32 1 6 29
M  V30 33 1 9 30
M  V30 34 1 12 31
M  V30 35 1 13 32
M  V30 36 1 16 33
M  V30 37 1 17 34
M  V30 38 1 19 35
M  V30 39 1 19 36
M  V30 40 1 19 37
M  V30 41 1 21 38
M  V30 42 1 23 39
M  V30 END BOND
M  V30 END CTAB
M  END
>  <Dataset>  (880) 
ChEMBL_Kinases

>  <Ligand_Instance>  (880) 
nan

>  <PDB_ID>  (880) 
nan

>  <Standardized_SMILES>  (880) 
COc1cccc(-c2coc3ccc(-c4ccc(C)o4)cc23)c1

>  <Name>  (880) 
nan

>  <Pocket>  (880) 
nan

>  <ATP_Site>  (880) 
nan

>  <Peripheral>  (880) 
nan

>  <Num_H_Atoms_ProtBoundConf>  (880) 
nan

>  <Num_Resolved_Atoms>  (880) 
nan

>  <Num_Not_Resolved_Atoms>  (880) 
nan

$$$$
CHEMBL3728737
     RDKit          3D

  0  0  0  0  0  0  0  0  0  0999 V3000
M  V30 BEGIN CTAB
M  V30 COUNTS 58 63 0 0 0
M  V30 BEGIN ATOM
M  V30 1 C -1.003071 -3.454396 4.783950 0
M  V30 2 C 0.276078 -3.057272 4.441281 0
M  V30 3 C 0.978574 -3.560381 3.362507 0
M  V30 4 C 2.342469 -3.155374 2.978160 0
M  V30 5 N 2.446332 -2.068810 2.077907 0
M  V30 6 C 1.914314 -0.822051 2.470262 0
M  V30 7 C 0.707549 -0.380166 1.719983 0
M  V30 8 N 0.958667 -0.356059 0.270087 0
M  V30 9 C 0.170844 0.379761 -0.656870 0
M  V30 10 N 0.820331 1.520597 -0.933903 0
M  V30 11 C 0.369837 2.504996 -1.728976 0
M  V30 12 C 1.034246 3.758074 -2.058806 0
M  V30 13 C 2.289795 3.954232 -1.474090 0
M  V30 14 C 2.920328 5.138136 -1.782601 0
M  V30 15 N 2.390486 6.057175 -2.585196 0
M  V30 16 C 1.179379 5.851965 -3.140429 0
M  V30 17 C 0.451650 4.690530 -2.898089 0
M  V30 18 N -0.839241 2.267083 -2.261771 0
M  V30 19 C -1.520617 1.148236 -2.015900 0
M  V30 20 S -3.066277 0.571963 -2.555358 0
M  V30 21 C -3.037298 -1.001060 -1.672857 0
M  V30 22 C -1.792687 -0.974633 -0.997939 0
M  V30 23 C -1.065582 0.145270 -1.209116 0
M  V30 24 C -1.656277 -2.253258 -0.262373 0
M  V30 25 C -2.833126 -2.336017 0.693406 0
M  V30 26 C -4.125002 -2.553834 -0.073323 0
M  V30 27 C -3.969224 -2.173898 -1.531011 0
M  V30 28 C 2.075321 -1.146901 -0.166548 0
M  V30 29 C 2.332206 -2.345513 0.695843 0
M  V30 30 C 0.283314 -4.517303 2.633832 0
M  V30 31 C -0.992215 -4.903014 2.988304 0
M  V30 32 N -1.638287 -4.385241 4.048382 0
M  V30 33 H -1.517282 -3.035429 5.636034 0
M  V30 34 H 0.754994 -2.309514 5.053365 0
M  V30 35 H 2.844275 -2.826251 3.937386 0
M  V30 36 H 2.897988 -4.053380 2.675102 0
M  V30 37 H 2.714702 -0.051940 2.256183 0
M  V30 38 H 1.727661 -0.712766 3.552698 0
M  V30 39 H 0.560954 0.718156 1.979666 0
M  V30 40 H -0.237812 -0.842796 1.979735 0
M  V30 41 H 2.713740 3.212474 -0.828387 0
M  V30 42 H 3.892112 5.299995 -1.335353 0
M  V30 43 H 0.745269 6.594889 -3.792219 0
M  V30 44 H -0.525379 4.471957 -3.316513 0
M  V30 45 H -0.738467 -2.381470 0.298681 0
M  V30 46 H -1.798904 -3.069980 -1.025417 0
M  V30 47 H -2.693186 -3.107007 1.477713 0
M  V30 48 H -2.891121 -1.357262 1.211488 0
M  V30 49 H -4.948501 -2.034531 0.437618 0
M  V30 50 H -4.335782 -3.640751 -0.041658 0
M  V30 51 H -3.678476 -3.023803 -2.178888 0
M  V30 52 H -4.961335 -1.824625 -1.882855 0
M  V30 53 H 2.969332 -0.497663 -0.248111 0
M  V30 54 H 1.869126 -1.535584 -1.193309 0
M  V30 55 H 1.553961 -3.120005 0.538199 0
M  V30 56 H 3.295243 -2.802562 0.328284 0
M  V30 57 H 0.700821 -4.994710 1.772034 0
M  V30 58 H -1.572140 -5.656133 2.437038 0
M  V30 END ATOM
M  V30 BEGIN BOND
M  V30 1 2 1 2
M  V30 2 1 2 3
M  V30 3 1 3 4
M  V30 4 1 4 5
M  V30 5 1 5 6
M  V30 6 1 6 7
M  V30 7 1 7 8
M  V30 8 1 8 9
M  V30 9 2 9 10
M  V30 10 1 10 11
M  V30 11 1 11 12
M  V30 12 2 12 13
M  V30 13 1 13 14
M  V30 14 2 14 15
M  V30 15 1 15 16
M  V30 16 2 16 17
M  V30 17 2 11 18
M  V30 18 1 18 19
M  V30 19 1 19 20
M  V30 20 1 20 21
M  V30 21 2 21 22
M  V30 22 1 22 23
M  V30 23 1 22 24
M  V30 24 1 24 25
M  V30 25 1 25 26
M  V30 26 1 26 27
M  V30 27 1 8 28
M  V30 28 1 28 29
M  V30 29 2 3 30
M  V30 30 1 30 31
M  V30 31 2 31 32
M  V30 32 1 32 1
M  V30 33 1 29 5
M  V30 34 1 23 9
M  V30 35 1 17 12
M  V30 36 2 23 19
M  V30 37 1 27 21
M  V30 38 1 1 33
M  V30 39 1 2 34
M  V30 40 1 4 35
M  V30 41 1 4 36
M  V30 42 1 6 37
M  V30 43 1 6 38
M  V30 44 1 7 39
M  V30 45 1 7 40
M  V30 46 1 13 41
M  V30 47 1 14 42
M  V30 48 1 16 43
M  V30 49 1 17 44
M  V30 50 1 24 45
M  V30 51 1 24 46
M  V30 52 1 25 47
M  V30 53 1 25 48
M  V30 54 1 26 49
M  V30 55 1 26 50
M  V30 56 1 27 51
M  V30 57 1 27 52
M  V30 58 1 28 53
M  V30 59 1 28 54
M  V30 60 1 29 55
M  V30 61 1 29 56
M  V30 62 1 30 57
M  V30 63 1 31 58
M  V30 END BOND
M  V30 END CTAB
M  END
>  <Dataset>  (881) 
ChEMBL_Kinases

>  <Ligand_Instance>  (881) 
nan

>  <PDB_ID>  (881) 
nan

>  <Standardized_SMILES>  (881) 
c1cc(CN2CCN(c3nc(-c4ccncc4)nc4sc5c(c34)CCCC5)CC2)ccn1

>  <Name>  (881) 
nan

>  <Pocket>  (881) 
nan

>  <ATP_Site>  (881) 
nan

>  <Peripheral>  (881) 
nan

>  <Num_H_Atoms_ProtBoundConf>  (881) 
nan

>  <Num_Resolved_Atoms>  (881) 
nan

>  <Num_Not_Resolved_Atoms>  (881) 
nan

$$$$
CHEMBL3729541
     RDKit          3D

  0  0  0  0  0  0  0  0  0  0999 V3000
M  V30 BEGIN CTAB
M  V30 COUNTS 58 63 0 0 0
M  V30 BEGIN ATOM
M  V30 1 N -0.271145 -3.359620 3.448386 0
M  V30 2 C 0.507813 -3.430112 2.206740 0 CFG=2
M  V30 3 C 0.919093 -2.063993 1.832241 0
M  V30 4 N -0.158007 -1.161180 1.646040 0
M  V30 5 C 0.018525 0.167362 1.162353 0
M  V30 6 N 1.259300 0.462337 0.788352 0
M  V30 7 C 1.719906 1.564466 0.240283 0
M  V30 8 C 3.068964 1.894133 -0.170622 0
M  V30 9 C 4.017066 0.919178 0.064332 0
M  V30 10 C 5.330297 1.216820 -0.320581 0
M  V30 11 N 5.678403 2.380463 -0.890266 0
M  V30 12 C 4.742068 3.316354 -1.110527 0
M  V30 13 C 3.410137 3.095819 -0.755028 0
M  V30 14 N 0.771690 2.495595 0.050115 0
M  V30 15 C -0.507173 2.250333 0.413078 0
M  V30 16 S -1.981582 3.284632 0.281445 0
M  V30 17 C -3.082651 2.120723 0.988253 0
M  V30 18 C -2.325242 1.047582 1.282999 0
M  V30 19 C -0.985335 1.092502 0.989425 0
M  V30 20 C -3.104370 -0.027529 1.956321 0
M  V30 21 C -4.372861 0.562467 2.577562 0
M  V30 22 C -5.195755 1.130755 1.448190 0
M  V30 23 C -4.508023 2.446726 1.116531 0
M  V30 24 C -0.161242 -4.288116 1.201237 0
M  V30 25 C 0.563063 -4.437307 -0.086721 0
M  V30 26 C 1.455300 -5.542990 -0.114849 0
M  V30 27 S 2.297567 -5.422276 -1.802783 0
M  V30 28 C 1.390755 -3.931191 -2.301859 0
M  V30 29 C 1.444533 -3.236289 -3.427250 0
M  V30 30 C 0.655705 -2.134037 -3.631996 0
M  V30 31 C -0.163880 -1.858256 -2.560598 0
M  V30 32 C -0.232021 -2.558022 -1.399873 0
M  V30 33 C 0.566970 -3.659659 -1.208307 0
M  V30 34 H -1.236617 -3.045718 3.300473 0
M  V30 35 H -0.211098 -4.282382 3.941937 0
M  V30 36 H 1.424510 -4.043182 2.546637 0
M  V30 37 H 1.495267 -2.142138 0.863639 0
M  V30 38 H 1.655753 -1.622442 2.556395 0
M  V30 39 H -1.044946 -1.629381 1.890841 0
M  V30 40 H 3.901344 -0.054863 0.507163 0
M  V30 41 H 6.172839 0.520516 -0.182978 0
M  V30 42 H 4.839726 4.315849 -1.560882 0
M  V30 43 H 2.596555 3.791294 -0.898722 0
M  V30 44 H -3.321503 -0.891849 1.334095 0
M  V30 45 H -2.561773 -0.397479 2.871443 0
M  V30 46 H -4.880020 -0.204453 3.158733 0
M  V30 47 H -3.987382 1.403122 3.223486 0
M  V30 48 H -6.262838 1.260031 1.682213 0
M  V30 49 H -5.140411 0.512225 0.517844 0
M  V30 50 H -4.715919 3.201003 1.914403 0
M  V30 51 H -4.982517 2.834097 0.192958 0
M  V30 52 H -1.218337 -3.934827 0.995301 0
M  V30 53 H -0.321319 -5.295151 1.629274 0
M  V30 54 H 1.687041 -6.346040 0.611333 0
M  V30 55 H 2.142651 -3.584698 -4.172745 0
M  V30 56 H 0.708927 -1.583741 -4.540291 0
M  V30 57 H -0.807261 -0.969220 -2.711977 0
M  V30 58 H -0.955935 -2.186093 -0.695934 0
M  V30 END ATOM
M  V30 BEGIN BOND
M  V30 1 1 1 2
M  V30 2 1 2 3
M  V30 3 1 3 4
M  V30 4 1 4 5
M  V30 5 2 5 6
M  V30 6 1 6 7
M  V30 7 1 7 8
M  V30 8 2 8 9
M  V30 9 1 9 10
M  V30 10 2 10 11
M  V30 11 1 11 12
M  V30 12 2 12 13
M  V30 13 2 7 14
M  V30 14 1 14 15
M  V30 15 1 15 16
M  V30 16 1 16 17
M  V30 17 2 17 18
M  V30 18 1 18 19
M  V30 19 1 18 20
M  V30 20 1 20 21
M  V30 21 1 21 22
M  V30 22 1 22 23
M  V30 23 1 2 24
M  V30 24 1 24 25
M  V30 25 2 25 26
M  V30 26 1 26 27
M  V30 27 1 27 28
M  V30 28 2 28 29
M  V30 29 1 29 30
M  V30 30 2 30 31
M  V30 31 1 31 32
M  V30 32 2 32 33
M  V30 33 1 19 5
M  V30 34 1 33 25
M  V30 35 1 13 8
M  V30 36 2 19 15
M  V30 37 1 33 28
M  V30 38 1 23 17
M  V30 39 1 1 34
M  V30 40 1 1 35
M  V30 41 1 2 36 CFG=1
M  V30 42 1 3 37
M  V30 43 1 3 38
M  V30 44 1 4 39
M  V30 45 1 9 40
M  V30 46 1 10 41
M  V30 47 1 12 42
M  V30 48 1 13 43
M  V30 49 1 20 44
M  V30 50 1 20 45
M  V30 51 1 21 46
M  V30 52 1 21 47
M  V30 53 1 22 48
M  V30 54 1 22 49
M  V30 55 1 23 50
M  V30 56 1 23 51
M  V30 57 1 24 52
M  V30 58 1 24 53
M  V30 59 1 26 54
M  V30 60 1 29 55
M  V30 61 1 30 56
M  V30 62 1 31 57
M  V30 63 1 32 58
M  V30 END BOND
M  V30 END CTAB
M  END
>  <Dataset>  (882) 
ChEMBL_Kinases

>  <Ligand_Instance>  (882) 
nan

>  <PDB_ID>  (882) 
nan

>  <Standardized_SMILES>  (882) 
N[C@H](CNc1nc(-c2ccncc2)nc2sc3c(c12)CCCC3)Cc1csc2ccccc12

>  <Name>  (882) 
nan

>  <Pocket>  (882) 
nan

>  <ATP_Site>  (882) 
nan

>  <Peripheral>  (882) 
nan

>  <Num_H_Atoms_ProtBoundConf>  (882) 
nan

>  <Num_Resolved_Atoms>  (882) 
nan

>  <Num_Not_Resolved_Atoms>  (882) 
nan

$$$$
CHEMBL3729527
     RDKit          3D

  0  0  0  0  0  0  0  0  0  0999 V3000
M  V30 BEGIN CTAB
M  V30 COUNTS 47 50 0 0 0
M  V30 BEGIN ATOM
M  V30 1 N 0.089212 -6.579007 0.946536 0
M  V30 2 C 0.657646 -5.499615 0.223000 0
M  V30 3 C 1.804241 -5.809051 -0.601662 0
M  V30 4 S 2.265306 -4.154558 -1.387398 0
M  V30 5 C 0.982817 -3.284194 -0.598829 0
M  V30 6 C 0.625611 -1.942310 -0.659922 0
M  V30 7 N 1.423545 -1.127452 -1.499516 0
M  V30 8 C 1.077130 0.272314 -1.582454 0
M  V30 9 C 1.153006 1.010258 -0.288250 0 CFG=1
M  V30 10 N 2.511336 0.960402 0.261744 0
M  V30 11 C 0.871534 2.485481 -0.526467 0
M  V30 12 C 0.960622 3.170082 0.796099 0
M  V30 13 C 2.233887 3.644748 1.126114 0
M  V30 14 C 2.396018 4.293671 2.342088 0
M  V30 15 C 1.307155 4.446570 3.174649 0
M  V30 16 C 0.062141 3.972330 2.831796 0
M  V30 17 C -0.143713 3.320855 1.631915 0
M  V30 18 N -0.421086 -1.476099 0.045946 0
M  V30 19 C -1.088224 -2.400625 0.807756 0
M  V30 20 C -2.256126 -1.981204 1.621103 0
M  V30 21 C -2.609365 -0.651883 1.560202 0
M  V30 22 C -3.698646 -0.308573 2.331038 0
M  V30 23 N -4.423424 -1.142565 3.115099 0
M  V30 24 C -4.033548 -2.448450 3.141143 0
M  V30 25 C -2.950609 -2.884507 2.398977 0
M  V30 26 N -0.732810 -3.689554 0.856735 0
M  V30 27 C 0.308853 -4.184055 0.162056 0
M  V30 28 H -0.213619 -7.424680 0.381630 0
M  V30 29 H 0.064190 -6.341091 1.980679 0
M  V30 30 H 2.265305 -6.877653 -0.692244 0
M  V30 31 H 2.221922 -1.465817 -2.045208 0
M  V30 32 H 1.696554 0.816604 -2.320686 0
M  V30 33 H 0.029189 0.377594 -1.958580 0
M  V30 34 H 0.463671 0.674636 0.493511 0
M  V30 35 H 2.527658 0.432210 1.173909 0
M  V30 36 H 3.110689 0.388454 -0.382972 0
M  V30 37 H -0.143607 2.641074 -0.942157 0
M  V30 38 H 1.607863 2.891477 -1.238660 0
M  V30 39 H 3.079303 3.526038 0.479711 0
M  V30 40 H 3.379568 4.676676 2.629618 0
M  V30 41 H 1.413844 4.954573 4.136362 0
M  V30 42 H -0.829048 4.073296 3.464986 0
M  V30 43 H -1.070813 2.904328 1.250171 0
M  V30 44 H -2.113092 0.114664 0.973440 0
M  V30 45 H -4.016128 0.733950 2.315162 0
M  V30 46 H -4.607794 -3.137608 3.769598 0
M  V30 47 H -2.648076 -3.916005 2.423830 0
M  V30 END ATOM
M  V30 BEGIN BOND
M  V30 1 1 1 2
M  V30 2 2 2 3
M  V30 3 1 3 4
M  V30 4 1 4 5
M  V30 5 2 5 6
M  V30 6 1 6 7
M  V30 7 1 7 8
M  V30 8 1 8 9
M  V30 9 1 9 10
M  V30 10 1 9 11
M  V30 11 1 11 12
M  V30 12 2 12 13
M  V30 13 1 13 14
M  V30 14 2 14 15
M  V30 15 1 15 16
M  V30 16 2 16 17
M  V30 17 1 6 18
M  V30 18 2 18 19
M  V30 19 1 19 20
M  V30 20 2 20 21
M  V30 21 1 21 22
M  V30 22 2 22 23
M  V30 23 1 23 24
M  V30 24 2 24 25
M  V30 25 1 19 26
M  V30 26 2 26 27
M  V30 27 1 27 2
M  V30 28 1 27 5
M  V30 29 1 17 12
M  V30 30 1 25 20
M  V30 31 1 1 28
M  V30 32 1 1 29
M  V30 33 1 3 30
M  V30 34 1 7 31
M  V30 35 1 8 32
M  V30 36 1 8 33
M  V30 37 1 9 34 CFG=1
M  V30 38 1 10 35
M  V30 39 1 10 36
M  V30 40 1 11 37
M  V30 41 1 11 38
M  V30 42 1 13 39
M  V30 43 1 14 40
M  V30 44 1 15 41
M  V30 45 1 16 42
M  V30 46 1 17 43
M  V30 47 1 21 44
M  V30 48 1 22 45
M  V30 49 1 24 46
M  V30 50 1 25 47
M  V30 END BOND
M  V30 END CTAB
M  END
>  <Dataset>  (883) 
ChEMBL_Kinases

>  <Ligand_Instance>  (883) 
nan

>  <PDB_ID>  (883) 
nan

>  <Standardized_SMILES>  (883) 
Nc1csc2c(NC[C@@H](N)Cc3ccccc3)nc(-c3ccncc3)nc12

>  <Name>  (883) 
nan

>  <Pocket>  (883) 
nan

>  <ATP_Site>  (883) 
nan

>  <Peripheral>  (883) 
nan

>  <Num_H_Atoms_ProtBoundConf>  (883) 
nan

>  <Num_Resolved_Atoms>  (883) 
nan

>  <Num_Not_Resolved_Atoms>  (883) 
nan

$$$$
CHEMBL3729519
     RDKit          3D

  0  0  0  0  0  0  0  0  0  0999 V3000
M  V30 BEGIN CTAB
M  V30 COUNTS 33 34 0 0 0
M  V30 BEGIN ATOM
M  V30 1 O -0.370109 0.330847 3.112026 0
M  V30 2 C 0.580771 0.149832 2.273587 0
M  V30 3 C 1.729077 -0.366405 3.012038 0
M  V30 4 N 2.903685 -0.650472 2.256468 0
M  V30 5 C 2.959732 -1.636660 1.246732 0
M  V30 6 C 1.918798 -2.452530 0.862353 0
M  V30 7 C 1.979797 -3.405366 -0.116039 0
M  V30 8 C 3.169038 -3.571387 -0.775331 0
M  V30 9 C 4.266626 -2.814458 -0.473407 0
M  V30 10 I 6.117198 -3.039289 -1.465740 0
M  V30 11 C 4.115813 -1.876915 0.526947 0
M  V30 12 N 0.337982 0.462566 0.923252 0
M  V30 13 N -0.914090 0.953886 0.527367 0
M  V30 14 C -1.879019 0.164963 0.171181 0
M  V30 15 C -3.177723 0.715732 -0.237645 0
M  V30 16 C -4.216645 -0.117819 -0.620384 0
M  V30 17 C -5.412496 0.455348 -0.993953 0
M  V30 18 N -5.622887 1.772604 -1.006506 0
M  V30 19 C -4.596686 2.577669 -0.629245 0
M  V30 20 C -3.357259 2.079174 -0.237891 0
M  V30 21 H 1.416875 -1.349768 3.475620 0
M  V30 22 H 1.977683 0.259457 3.918818 0
M  V30 23 H 3.767935 -0.107619 2.453097 0
M  V30 24 H 0.959756 -2.326504 1.386183 0
M  V30 25 H 1.122246 -4.018741 -0.373924 0
M  V30 26 H 3.287288 -4.317173 -1.570331 0
M  V30 27 H 5.010540 -1.279059 0.753856 0
M  V30 28 H 1.187615 0.277887 0.343341 0
M  V30 29 H -1.719205 -0.905760 0.177593 0
M  V30 30 H -4.101990 -1.188918 -0.628980 0
M  V30 31 H -6.272328 -0.147601 -1.306928 0
M  V30 32 H -4.676292 3.668739 -0.608079 0
M  V30 33 H -2.550749 2.721666 0.059034 0
M  V30 END ATOM
M  V30 BEGIN BOND
M  V30 1 2 1 2
M  V30 2 1 2 3
M  V30 3 1 3 4
M  V30 4 1 4 5
M  V30 5 2 5 6
M  V30 6 1 6 7
M  V30 7 2 7 8
M  V30 8 1 8 9
M  V30 9 1 9 10
M  V30 10 2 9 11
M  V30 11 1 2 12
M  V30 12 1 12 13
M  V30 13 2 13 14
M  V30 14 1 14 15
M  V30 15 2 15 16
M  V30 16 1 16 17
M  V30 17 2 17 18
M  V30 18 1 18 19
M  V30 19 2 19 20
M  V30 20 1 11 5
M  V30 21 1 20 15
M  V30 22 1 3 21
M  V30 23 1 3 22
M  V30 24 1 4 23
M  V30 25 1 6 24
M  V30 26 1 7 25
M  V30 27 1 8 26
M  V30 28 1 11 27
M  V30 29 1 12 28
M  V30 30 1 14 29
M  V30 31 1 16 30
M  V30 32 1 17 31
M  V30 33 1 19 32
M  V30 34 1 20 33
M  V30 END BOND
M  V30 END CTAB
M  END
>  <Dataset>  (884) 
ChEMBL_Kinases

>  <Ligand_Instance>  (884) 
nan

>  <PDB_ID>  (884) 
nan

>  <Standardized_SMILES>  (884) 
O=C(CNc1cccc(I)c1)N/N=C/c1ccncc1

>  <Name>  (884) 
nan

>  <Pocket>  (884) 
nan

>  <ATP_Site>  (884) 
nan

>  <Peripheral>  (884) 
nan

>  <Num_H_Atoms_ProtBoundConf>  (884) 
nan

>  <Num_Resolved_Atoms>  (884) 
nan

>  <Num_Not_Resolved_Atoms>  (884) 
nan

$$$$
CHEMBL3729516
     RDKit          3D

  0  0  0  0  0  0  0  0  0  0999 V3000
M  V30 BEGIN CTAB
M  V30 COUNTS 42 45 0 0 0
M  V30 BEGIN ATOM
M  V30 1 N -0.054499 -2.341192 4.797529 0
M  V30 2 C 1.246529 -1.848136 4.460785 0
M  V30 3 C 1.254981 -0.899505 3.314635 0
M  V30 4 N 0.768001 -1.385829 2.065207 0
M  V30 5 C 0.752899 -0.521326 0.936052 0
M  V30 6 N 1.212477 0.723068 1.122261 0
M  V30 7 C 1.305324 1.701351 0.245536 0
M  V30 8 C 1.834545 3.003187 0.625024 0
M  V30 9 C 1.923646 4.014906 -0.308850 0
M  V30 10 C 2.436075 5.248733 0.092062 0
M  V30 11 N 2.838783 5.446109 1.379321 0
M  V30 12 C 2.727268 4.419774 2.246122 0
M  V30 13 C 2.229133 3.155164 1.938486 0
M  V30 14 N 0.875365 1.375207 -0.982923 0
M  V30 15 C 0.398786 0.138790 -1.243716 0
M  V30 16 S -0.213216 -0.521664 -2.748351 0
M  V30 17 C -0.571923 -2.148279 -2.069893 0
M  V30 18 C -0.185738 -2.066206 -0.698033 0
M  V30 19 C 0.310984 -0.860044 -0.321529 0
M  V30 20 C -0.526006 -3.428506 -0.261997 0
M  V30 21 C -2.000132 -3.740574 -0.516829 0
M  V30 22 C -2.300231 -3.940073 -1.960838 0
M  V30 23 C -1.148881 -3.370243 -2.755531 0
M  V30 24 H -0.833157 -1.696249 4.546371 0
M  V30 25 H -0.215322 -3.332684 4.506630 0
M  V30 26 H 1.915272 -2.714624 4.177784 0
M  V30 27 H 1.651944 -1.370031 5.373808 0
M  V30 28 H 2.296745 -0.491629 3.155045 0
M  V30 29 H 0.632555 -0.017661 3.600441 0
M  V30 30 H 0.519822 -2.340572 2.300508 0
M  V30 31 H 1.591394 3.816752 -1.326474 0
M  V30 32 H 2.513730 6.055973 -0.627988 0
M  V30 33 H 3.061855 4.619259 3.270945 0
M  V30 34 H 2.178946 2.397643 2.700797 0
M  V30 35 H 0.040563 -4.221554 -0.820911 0
M  V30 36 H -0.353040 -3.608703 0.794620 0
M  V30 37 H -2.213971 -4.669320 0.088348 0
M  V30 38 H -2.608085 -2.957312 -0.019796 0
M  V30 39 H -3.182959 -3.280661 -2.192409 0
M  V30 40 H -2.467481 -4.979531 -2.259704 0
M  V30 41 H -0.303629 -4.083162 -2.816098 0
M  V30 42 H -1.474461 -3.073193 -3.774732 0
M  V30 END ATOM
M  V30 BEGIN BOND
M  V30 1 1 1 2
M  V30 2 1 2 3
M  V30 3 1 3 4
M  V30 4 1 4 5
M  V30 5 2 5 6
M  V30 6 1 6 7
M  V30 7 1 7 8
M  V30 8 2 8 9
M  V30 9 1 9 10
M  V30 10 2 10 11
M  V30 11 1 11 12
M  V30 12 2 12 13
M  V30 13 2 7 14
M  V30 14 1 14 15
M  V30 15 1 15 16
M  V30 16 1 16 17
M  V30 17 2 17 18
M  V30 18 1 18 19
M  V30 19 1 18 20
M  V30 20 1 20 21
M  V30 21 1 21 22
M  V30 22 1 22 23
M  V30 23 1 19 5
M  V30 24 1 13 8
M  V30 25 2 19 15
M  V30 26 1 23 17
M  V30 27 1 1 24
M  V30 28 1 1 25
M  V30 29 1 2 26
M  V30 30 1 2 27
M  V30 31 1 3 28
M  V30 32 1 3 29
M  V30 33 1 4 30
M  V30 34 1 9 31
M  V30 35 1 10 32
M  V30 36 1 12 33
M  V30 37 1 13 34
M  V30 38 1 20 35
M  V30 39 1 20 36
M  V30 40 1 21 37
M  V30 41 1 21 38
M  V30 42 1 22 39
M  V30 43 1 22 40
M  V30 44 1 23 41
M  V30 45 1 23 42
M  V30 END BOND
M  V30 END CTAB
M  END
>  <Dataset>  (885) 
ChEMBL_Kinases

>  <Ligand_Instance>  (885) 
nan

>  <PDB_ID>  (885) 
nan

>  <Standardized_SMILES>  (885) 
NCCNc1nc(-c2ccncc2)nc2sc3c(c12)CCCC3

>  <Name>  (885) 
nan

>  <Pocket>  (885) 
nan

>  <ATP_Site>  (885) 
nan

>  <Peripheral>  (885) 
nan

>  <Num_H_Atoms_ProtBoundConf>  (885) 
nan

>  <Num_Resolved_Atoms>  (885) 
nan

>  <Num_Not_Resolved_Atoms>  (885) 
nan

$$$$
CHEMBL3704650
     RDKit          3D

  0  0  0  0  0  0  0  0  0  0999 V3000
M  V30 BEGIN CTAB
M  V30 COUNTS 39 42 0 0 0
M  V30 BEGIN ATOM
M  V30 1 C 3.303508 -4.427220 2.856800 0
M  V30 2 C 3.576686 -2.945583 3.097131 0
M  V30 3 C 2.545634 -2.107377 2.429007 0
M  V30 4 C 2.587309 -1.608405 1.152598 0
M  V30 5 C 1.439622 -0.884739 0.920965 0
M  V30 6 C 1.065020 -0.214514 -0.216300 0
M  V30 7 C -0.004564 0.574125 -0.711424 0
M  V30 8 C 0.070651 1.054951 -1.988458 0
M  V30 9 C -0.898870 1.828613 -2.581094 0
M  V30 10 N -0.744503 2.256491 -3.834718 0
M  V30 11 C 0.318052 1.988424 -4.603599 0
M  V30 12 C 1.322425 1.217098 -4.063403 0
M  V30 13 C 1.195965 0.753840 -2.760636 0
M  V30 14 S 2.229510 -0.242089 -1.710124 0
M  V30 15 N 0.724746 -0.954836 2.050755 0
M  V30 16 C -0.538377 -0.367284 2.306798 0
M  V30 17 C -0.467239 0.907256 2.880793 0
M  V30 18 C -1.654043 1.574402 3.178411 0
M  V30 19 C -2.853145 0.923780 2.882706 0
M  V30 20 C -2.896137 -0.333158 2.316706 0
M  V30 21 C -4.149798 -1.048929 1.991478 0
M  V30 22 N -1.734491 -0.968417 2.033388 0
M  V30 23 N 1.373037 -1.683244 2.963450 0
M  V30 24 H 2.463149 -4.539738 2.116808 0
M  V30 25 H 3.072954 -4.978041 3.789297 0
M  V30 26 H 4.233774 -4.869652 2.446088 0
M  V30 27 H 4.593846 -2.650634 2.799822 0
M  V30 28 H 3.447145 -2.791868 4.202826 0
M  V30 29 H 3.425213 -1.799176 0.495955 0
M  V30 30 H -0.779335 0.698900 0.022136 0
M  V30 31 H -1.819191 2.142728 -2.115564 0
M  V30 32 H 0.468838 2.322233 -5.622333 0
M  V30 33 H 2.237426 0.908465 -4.535237 0
M  V30 34 H 0.462512 1.394295 3.102242 0
M  V30 35 H -1.714750 2.552425 3.618583 0
M  V30 36 H -3.812446 1.363031 3.078234 0
M  V30 37 H -4.328694 -1.873456 2.709113 0
M  V30 38 H -5.030356 -0.367689 2.097672 0
M  V30 39 H -4.144117 -1.445816 0.949242 0
M  V30 END ATOM
M  V30 BEGIN BOND
M  V30 1 1 1 2
M  V30 2 1 2 3
M  V30 3 1 3 4
M  V30 4 2 4 5
M  V30 5 1 5 6
M  V30 6 2 6 7
M  V30 7 1 7 8
M  V30 8 2 8 9
M  V30 9 1 9 10
M  V30 10 2 10 11
M  V30 11 1 11 12
M  V30 12 2 12 13
M  V30 13 1 13 14
M  V30 14 1 5 15
M  V30 15 1 15 16
M  V30 16 2 16 17
M  V30 17 1 17 18
M  V30 18 2 18 19
M  V30 19 1 19 20
M  V30 20 1 20 21
M  V30 21 2 20 22
M  V30 22 1 15 23
M  V30 23 2 23 3
M  V30 24 1 14 6
M  V30 25 1 22 16
M  V30 26 1 13 8
M  V30 27 1 1 24
M  V30 28 1 1 25
M  V30 29 1 1 26
M  V30 30 1 2 27
M  V30 31 1 2 28
M  V30 32 1 4 29
M  V30 33 1 7 30
M  V30 34 1 9 31
M  V30 35 1 11 32
M  V30 36 1 12 33
M  V30 37 1 17 34
M  V30 38 1 18 35
M  V30 39 1 19 36
M  V30 40 1 21 37
M  V30 41 1 21 38
M  V30 42 1 21 39
M  V30 END BOND
M  V30 END CTAB
M  END
>  <Dataset>  (886) 
ChEMBL_Kinases

>  <Ligand_Instance>  (886) 
nan

>  <PDB_ID>  (886) 
nan

>  <Standardized_SMILES>  (886) 
CCc1cc(-c2cc3cnccc3s2)n(-c2cccc(C)n2)n1

>  <Name>  (886) 
nan

>  <Pocket>  (886) 
nan

>  <ATP_Site>  (886) 
nan

>  <Peripheral>  (886) 
nan

>  <Num_H_Atoms_ProtBoundConf>  (886) 
nan

>  <Num_Resolved_Atoms>  (886) 
nan

>  <Num_Not_Resolved_Atoms>  (886) 
nan

$$$$
CHEMBL3704651
     RDKit          3D

  0  0  0  0  0  0  0  0  0  0999 V3000
M  V30 BEGIN CTAB
M  V30 COUNTS 39 42 0 0 0
M  V30 BEGIN ATOM
M  V30 1 C 1.548442 -4.358562 2.180884 0
M  V30 2 C 2.297859 -3.125472 2.626492 0
M  V30 3 C 2.489479 -2.123099 1.553539 0
M  V30 4 C 3.671748 -1.920003 0.847108 0
M  V30 5 N 3.353243 -0.933814 -0.004759 0
M  V30 6 N 2.115444 -0.558417 0.146739 0
M  V30 7 C 1.603726 0.479064 -0.676665 0
M  V30 8 C 0.972152 -0.018669 -1.816311 0
M  V30 9 C 0.404369 0.838584 -2.740787 0
M  V30 10 C 0.465294 2.220308 -2.528402 0
M  V30 11 C 1.103592 2.665393 -1.381261 0
M  V30 12 C 1.185358 4.125073 -1.124250 0
M  V30 13 N 1.647183 1.810002 -0.499350 0
M  V30 14 C 1.500953 -1.270837 1.121256 0
M  V30 15 C 0.114869 -1.059084 1.504430 0
M  V30 16 C -0.706036 -1.647161 2.439181 0
M  V30 17 C -1.989615 -1.218872 2.566532 0
M  V30 18 C -3.018649 -1.606322 3.389368 0
M  V30 19 N -4.213298 -1.034581 3.334825 0
M  V30 20 C -4.616239 -0.050302 2.534153 0
M  V30 21 C -3.665455 0.422915 1.659065 0
M  V30 22 C -2.461863 -0.176764 1.737242 0
M  V30 23 S -0.913020 0.172407 0.726652 0
M  V30 24 H 0.906208 -4.200829 1.295651 0
M  V30 25 H 0.956728 -4.739500 3.029496 0
M  V30 26 H 2.237911 -5.196791 1.876435 0
M  V30 27 H 3.327836 -3.513508 2.904813 0
M  V30 28 H 1.935021 -2.694638 3.582009 0
M  V30 29 H 4.594512 -2.463046 0.996134 0
M  V30 30 H 0.864967 -1.072118 -2.083460 0
M  V30 31 H -0.100861 0.526355 -3.644464 0
M  V30 32 H 0.028566 2.926327 -3.233423 0
M  V30 33 H 0.188317 4.567039 -1.367765 0
M  V30 34 H 1.472869 4.291311 -0.069240 0
M  V30 35 H 1.929500 4.576378 -1.825468 0
M  V30 36 H -0.341866 -2.440471 3.068739 0
M  V30 37 H -2.903600 -2.404431 4.127355 0
M  V30 38 H -5.591875 0.364396 2.542797 0
M  V30 39 H -3.806803 1.200933 0.950826 0
M  V30 END ATOM
M  V30 BEGIN BOND
M  V30 1 1 1 2
M  V30 2 1 2 3
M  V30 3 1 3 4
M  V30 4 2 4 5
M  V30 5 1 5 6
M  V30 6 1 6 7
M  V30 7 2 7 8
M  V30 8 1 8 9
M  V30 9 2 9 10
M  V30 10 1 10 11
M  V30 11 1 11 12
M  V30 12 2 11 13
M  V30 13 1 6 14
M  V30 14 1 14 15
M  V30 15 2 15 16
M  V30 16 1 16 17
M  V30 17 2 17 18
M  V30 18 1 18 19
M  V30 19 2 19 20
M  V30 20 1 20 21
M  V30 21 2 21 22
M  V30 22 1 22 23
M  V30 23 2 14 3
M  V30 24 1 23 15
M  V30 25 1 13 7
M  V30 26 1 22 17
M  V30 27 1 1 24
M  V30 28 1 1 25
M  V30 29 1 1 26
M  V30 30 1 2 27
M  V30 31 1 2 28
M  V30 32 1 4 29
M  V30 33 1 8 30
M  V30 34 1 9 31
M  V30 35 1 10 32
M  V30 36 1 12 33
M  V30 37 1 12 34
M  V30 38 1 12 35
M  V30 39 1 16 36
M  V30 40 1 18 37
M  V30 41 1 20 38
M  V30 42 1 21 39
M  V30 END BOND
M  V30 END CTAB
M  END
>  <Dataset>  (887) 
ChEMBL_Kinases

>  <Ligand_Instance>  (887) 
nan

>  <PDB_ID>  (887) 
nan

>  <Standardized_SMILES>  (887) 
CCc1cnn(-c2cccc(C)n2)c1-c1cc2cnccc2s1

>  <Name>  (887) 
nan

>  <Pocket>  (887) 
nan

>  <ATP_Site>  (887) 
nan

>  <Peripheral>  (887) 
nan

>  <Num_H_Atoms_ProtBoundConf>  (887) 
nan

>  <Num_Resolved_Atoms>  (887) 
nan

>  <Num_Not_Resolved_Atoms>  (887) 
nan

$$$$
CHEMBL3704652
     RDKit          3D

  0  0  0  0  0  0  0  0  0  0999 V3000
M  V30 BEGIN CTAB
M  V30 COUNTS 40 44 0 0 0
M  V30 BEGIN ATOM
M  V30 1 C -1.007346 -4.807610 2.244685 0
M  V30 2 C 0.175635 -4.087174 1.727107 0
M  V30 3 C 1.143461 -4.845205 1.085902 0
M  V30 4 C 2.266615 -4.219413 0.585087 0
M  V30 5 C 2.336116 -2.843450 0.770207 0
M  V30 6 C 1.338967 -2.118594 1.421766 0
M  V30 7 N 1.644710 -0.727985 1.482627 0
M  V30 8 N 2.747830 -0.269651 2.076741 0
M  V30 9 C 2.805490 1.072083 1.999565 0
M  V30 10 C 1.687945 1.508111 1.323734 0
M  V30 11 C 1.005001 0.363719 1.026602 0
M  V30 12 C -0.283244 0.268770 0.296671 0
M  V30 13 C -1.015038 1.279964 -0.205047 0
M  V30 14 C -2.189632 1.009155 -0.855484 0
M  V30 15 C -3.120158 1.830368 -1.455450 0
M  V30 16 N -4.196667 1.335622 -2.031400 0
M  V30 17 C -4.556385 0.052824 -2.132481 0
M  V30 18 C -3.684687 -0.846481 -1.559812 0
M  V30 19 C -2.553448 -0.312413 -0.955737 0
M  V30 20 S -1.165180 -1.177042 -0.090094 0
M  V30 21 C 1.720780 2.980924 1.221566 0
M  V30 22 C 3.083362 3.376375 1.721408 0
M  V30 23 C 3.686183 2.189060 2.412185 0
M  V30 24 N 0.254387 -2.756925 1.899878 0
M  V30 25 H -0.944033 -4.946246 3.362126 0
M  V30 26 H -1.908311 -4.211536 2.036693 0
M  V30 27 H -1.134659 -5.805320 1.771101 0
M  V30 28 H 1.033523 -5.925958 0.970171 0
M  V30 29 H 3.032504 -4.782384 0.083622 0
M  V30 30 H 3.255306 -2.406385 0.348211 0
M  V30 31 H -0.659782 2.317464 -0.086464 0
M  V30 32 H -3.018501 2.920346 -1.486363 0
M  V30 33 H -5.439498 -0.344880 -2.605626 0
M  V30 34 H -3.818323 -1.907113 -1.549607 0
M  V30 35 H 0.896841 3.471332 1.783694 0
M  V30 36 H 1.643820 3.325349 0.157163 0
M  V30 37 H 3.767762 3.722331 0.924011 0
M  V30 38 H 2.996829 4.221441 2.440608 0
M  V30 39 H 4.711541 1.942788 2.041067 0
M  V30 40 H 3.663763 2.305295 3.505198 0
M  V30 END ATOM
M  V30 BEGIN BOND
M  V30 1 1 1 2
M  V30 2 2 2 3
M  V30 3 1 3 4
M  V30 4 2 4 5
M  V30 5 1 5 6
M  V30 6 1 6 7
M  V30 7 1 7 8
M  V30 8 2 8 9
M  V30 9 1 9 10
M  V30 10 2 10 11
M  V30 11 1 11 12
M  V30 12 2 12 13
M  V30 13 1 13 14
M  V30 14 2 14 15
M  V30 15 1 15 16
M  V30 16 2 16 17
M  V30 17 1 17 18
M  V30 18 2 18 19
M  V30 19 1 19 20
M  V30 20 1 10 21
M  V30 21 1 21 22
M  V30 22 1 22 23
M  V30 23 2 6 24
M  V30 24 1 24 2
M  V30 25 1 11 7
M  V30 26 1 20 12
M  V30 27 1 23 9
M  V30 28 1 19 14
M  V30 29 1 1 25
M  V30 30 1 1 26
M  V30 31 1 1 27
M  V30 32 1 3 28
M  V30 33 1 4 29
M  V30 34 1 5 30
M  V30 35 1 13 31
M  V30 36 1 15 32
M  V30 37 1 17 33
M  V30 38 1 18 34
M  V30 39 1 21 35
M  V30 40 1 21 36
M  V30 41 1 22 37
M  V30 42 1 22 38
M  V30 43 1 23 39
M  V30 44 1 23 40
M  V30 END BOND
M  V30 END CTAB
M  END
>  <Dataset>  (888) 
ChEMBL_Kinases

>  <Ligand_Instance>  (888) 
nan

>  <PDB_ID>  (888) 
nan

>  <Standardized_SMILES>  (888) 
Cc1cccc(-n2nc3c(c2-c2cc4cnccc4s2)CCC3)n1

>  <Name>  (888) 
nan

>  <Pocket>  (888) 
nan

>  <ATP_Site>  (888) 
nan

>  <Peripheral>  (888) 
nan

>  <Num_H_Atoms_ProtBoundConf>  (888) 
nan

>  <Num_Resolved_Atoms>  (888) 
nan

>  <Num_Not_Resolved_Atoms>  (888) 
nan

$$$$
CHEMBL3704653
     RDKit          3D

  0  0  0  0  0  0  0  0  0  0999 V3000
M  V30 BEGIN CTAB
M  V30 COUNTS 39 42 0 0 0
M  V30 BEGIN ATOM
M  V30 1 C 0.543177 -5.114381 0.619488 0
M  V30 2 C 1.348802 -3.875472 0.754523 0
M  V30 3 C 2.457090 -3.786044 1.570250 0
M  V30 4 C 3.203384 -2.619469 1.687957 0
M  V30 5 C 2.852994 -1.488146 0.977709 0
M  V30 6 C 1.728185 -1.648663 0.177035 0
M  V30 7 N 1.289865 -0.544404 -0.593309 0
M  V30 8 N 1.763668 -0.302813 -1.812562 0
M  V30 9 C 1.181223 0.800521 -2.315814 0
M  V30 10 C 1.394230 1.459827 -3.651296 0
M  V30 11 C 0.295676 1.260649 -1.340438 0
M  V30 12 C -0.548669 2.449733 -1.483173 0
M  V30 13 C 0.387706 0.395365 -0.273057 0
M  V30 14 C -0.353698 0.484077 0.967258 0
M  V30 15 C -0.414099 -0.223817 2.091144 0
M  V30 16 C -1.258232 0.160519 3.098095 0
M  V30 17 C -1.473643 -0.421569 4.327901 0
M  V30 18 N -2.343947 0.092615 5.197402 0
M  V30 19 C -3.089569 1.188090 5.005551 0
M  V30 20 C -2.925042 1.822262 3.795080 0
M  V30 21 C -2.023608 1.303799 2.874296 0
M  V30 22 S -1.513826 1.796184 1.229948 0
M  V30 23 N 0.973517 -2.777806 0.038301 0
M  V30 24 H -0.087911 -5.249735 1.532296 0
M  V30 25 H 1.173820 -6.027919 0.492440 0
M  V30 26 H -0.085117 -5.056204 -0.277527 0
M  V30 27 H 2.749065 -4.664770 2.137122 0
M  V30 28 H 4.079479 -2.538819 2.328896 0
M  V30 29 H 3.345318 -0.536834 0.984467 0
M  V30 30 H 0.468254 1.238385 -4.229701 0
M  V30 31 H 1.384785 2.562688 -3.512682 0
M  V30 32 H 2.314463 1.093298 -4.108943 0
M  V30 33 H -0.357629 3.119366 -0.617433 0
M  V30 34 H -1.609119 2.105758 -1.515188 0
M  V30 35 H -0.308680 3.006699 -2.396976 0
M  V30 36 H 0.233088 -1.088592 2.134530 0
M  V30 37 H -0.954484 -1.326339 4.664602 0
M  V30 38 H -3.795220 1.608050 5.706166 0
M  V30 39 H -3.438334 2.703109 3.481756 0
M  V30 END ATOM
M  V30 BEGIN BOND
M  V30 1 1 1 2
M  V30 2 2 2 3
M  V30 3 1 3 4
M  V30 4 2 4 5
M  V30 5 1 5 6
M  V30 6 1 6 7
M  V30 7 1 7 8
M  V30 8 2 8 9
M  V30 9 1 9 10
M  V30 10 1 9 11
M  V30 11 1 11 12
M  V30 12 2 11 13
M  V30 13 1 13 14
M  V30 14 2 14 15
M  V30 15 1 15 16
M  V30 16 2 16 17
M  V30 17 1 17 18
M  V30 18 2 18 19
M  V30 19 1 19 20
M  V30 20 2 20 21
M  V30 21 1 21 22
M  V30 22 2 6 23
M  V30 23 1 23 2
M  V30 24 1 13 7
M  V30 25 1 22 14
M  V30 26 1 21 16
M  V30 27 1 1 24
M  V30 28 1 1 25
M  V30 29 1 1 26
M  V30 30 1 3 27
M  V30 31 1 4 28
M  V30 32 1 5 29
M  V30 33 1 10 30
M  V30 34 1 10 31
M  V30 35 1 10 32
M  V30 36 1 12 33
M  V30 37 1 12 34
M  V30 38 1 12 35
M  V30 39 1 15 36
M  V30 40 1 17 37
M  V30 41 1 19 38
M  V30 42 1 20 39
M  V30 END BOND
M  V30 END CTAB
M  END
>  <Dataset>  (889) 
ChEMBL_Kinases

>  <Ligand_Instance>  (889) 
nan

>  <PDB_ID>  (889) 
nan

>  <Standardized_SMILES>  (889) 
Cc1cccc(-n2nc(C)c(C)c2-c2cc3cnccc3s2)n1

>  <Name>  (889) 
nan

>  <Pocket>  (889) 
nan

>  <ATP_Site>  (889) 
nan

>  <Peripheral>  (889) 
nan

>  <Num_H_Atoms_ProtBoundConf>  (889) 
nan

>  <Num_Resolved_Atoms>  (889) 
nan

>  <Num_Not_Resolved_Atoms>  (889) 
nan

$$$$
CHEMBL3729503
     RDKit          3D

  0  0  0  0  0  0  0  0  0  0999 V3000
M  V30 BEGIN CTAB
M  V30 COUNTS 42 46 0 0 0
M  V30 BEGIN ATOM
M  V30 1 C 1.766968 -5.168962 3.730728 0
M  V30 2 C 1.483324 -4.068063 2.949379 0
M  V30 3 C 1.219735 -2.875454 3.633916 0
M  V30 4 C 0.921267 -1.718937 2.795941 0
M  V30 5 N 0.890714 -1.751352 1.454339 0
M  V30 6 C 0.620430 -0.709145 0.652762 0
M  V30 7 O 0.636389 -0.940908 -0.717315 0
M  V30 8 C 0.930915 -2.238988 -1.194623 0
M  V30 9 C 0.012622 -2.785827 -2.245832 0
M  V30 10 N 0.929636 -2.352195 -3.267460 0
M  V30 11 C 1.976731 -2.246501 -2.286642 0
M  V30 12 C 0.341676 0.531727 1.208425 0
M  V30 13 C 0.056044 1.653065 0.533730 0
M  V30 14 C -0.190958 2.777318 1.237434 0
M  V30 15 S -0.011846 2.225898 2.924852 0
M  V30 16 C 0.366947 0.583596 2.526734 0
M  V30 17 N 0.652393 -0.520766 3.342485 0
M  V30 18 C -0.523327 4.091795 0.555250 0
M  V30 19 C -1.512313 3.910704 -0.544046 0
M  V30 20 C -1.531350 2.461898 -1.040568 0
M  V30 21 C -0.071966 2.012403 -0.926906 0
M  V30 22 C 1.240145 -2.797220 5.000166 0
M  V30 23 C 1.535440 -3.954233 5.723013 0
M  V30 24 N 1.794446 -5.122450 5.080740 0
M  V30 25 H 1.977189 -6.115159 3.226092 0
M  V30 26 H 1.466751 -4.128715 1.864072 0
M  V30 27 H 1.131152 -2.986267 -0.390081 0
M  V30 28 H -1.008069 -2.368392 -2.282716 0
M  V30 29 H -0.046585 -3.899618 -2.215193 0
M  V30 30 H 0.722157 -1.475782 -3.757628 0
M  V30 31 H 2.583507 -1.323252 -2.308585 0
M  V30 32 H 2.567022 -3.191115 -2.255927 0
M  V30 33 H -1.016032 4.772855 1.299499 0
M  V30 34 H 0.419856 4.598519 0.267127 0
M  V30 35 H -2.542175 4.241384 -0.289007 0
M  V30 36 H -1.182286 4.522449 -1.409447 0
M  V30 37 H -2.178916 1.908641 -0.329037 0
M  V30 38 H -1.908894 2.426786 -2.070325 0
M  V30 39 H 0.123543 1.151738 -1.591165 0
M  V30 40 H 0.645584 2.801539 -1.151956 0
M  V30 41 H 1.031554 -1.858930 5.495959 0
M  V30 42 H 1.545472 -3.866631 6.803527 0
M  V30 END ATOM
M  V30 BEGIN BOND
M  V30 1 2 1 2
M  V30 2 1 2 3
M  V30 3 1 3 4
M  V30 4 2 4 5
M  V30 5 1 5 6
M  V30 6 1 6 7
M  V30 7 1 7 8
M  V30 8 1 8 9
M  V30 9 1 9 10
M  V30 10 1 10 11
M  V30 11 2 6 12
M  V30 12 1 12 13
M  V30 13 2 13 14
M  V30 14 1 14 15
M  V30 15 1 15 16
M  V30 16 2 16 17
M  V30 17 1 14 18
M  V30 18 1 18 19
M  V30 19 1 19 20
M  V30 20 1 20 21
M  V30 21 2 3 22
M  V30 22 1 22 23
M  V30 23 2 23 24
M  V30 24 1 24 1
M  V30 25 1 17 4
M  V30 26 1 11 8
M  V30 27 1 16 12
M  V30 28 1 21 13
M  V30 29 1 1 25
M  V30 30 1 2 26
M  V30 31 1 8 27
M  V30 32 1 9 28
M  V30 33 1 9 29
M  V30 34 1 10 30
M  V30 35 1 11 31
M  V30 36 1 11 32
M  V30 37 1 18 33
M  V30 38 1 18 34
M  V30 39 1 19 35
M  V30 40 1 19 36
M  V30 41 1 20 37
M  V30 42 1 20 38
M  V30 43 1 21 39
M  V30 44 1 21 40
M  V30 45 1 22 41
M  V30 46 1 23 42
M  V30 END BOND
M  V30 END CTAB
M  END
>  <Dataset>  (890) 
ChEMBL_Kinases

>  <Ligand_Instance>  (890) 
nan

>  <PDB_ID>  (890) 
nan

>  <Standardized_SMILES>  (890) 
c1cc(-c2nc(OC3CNC3)c3c4c(sc3n2)CCCC4)ccn1

>  <Name>  (890) 
nan

>  <Pocket>  (890) 
nan

>  <ATP_Site>  (890) 
nan

>  <Peripheral>  (890) 
nan

>  <Num_H_Atoms_ProtBoundConf>  (890) 
nan

>  <Num_Resolved_Atoms>  (890) 
nan

>  <Num_Not_Resolved_Atoms>  (890) 
nan

$$$$
CHEMBL3729502
     RDKit          3D

  0  0  0  0  0  0  0  0  0  0999 V3000
M  V30 BEGIN CTAB
M  V30 COUNTS 57 60 0 0 0
M  V30 BEGIN ATOM
M  V30 1 C 3.221950 -2.167758 3.457473 0
M  V30 2 O 2.630804 -1.421022 2.427892 0
M  V30 3 C 2.944361 -0.125366 2.079932 0
M  V30 4 C 3.892695 0.674399 2.676114 0
M  V30 5 C 4.096497 1.964930 2.212025 0
M  V30 6 C 3.319971 2.411852 1.140532 0
M  V30 7 N 3.675077 3.767729 0.802875 0
M  V30 8 C 4.716450 3.695405 -0.166575 0
M  V30 9 C 5.471345 4.741062 -0.875955 0
M  V30 10 O 5.133685 2.548417 -0.548416 0
M  V30 11 C 2.368736 1.624435 0.535095 0
M  V30 12 C 2.173318 0.334913 1.007690 0
M  V30 13 C 1.135952 -0.470134 0.327041 0 CFG=1
M  V30 14 C -0.218792 -0.204256 1.013004 0
M  V30 15 N -1.283033 -0.891988 0.350567 0
M  V30 16 C -2.313456 -1.824070 0.650988 0
M  V30 17 N -3.007029 -2.328502 -0.381097 0
M  V30 18 C -4.008428 -3.203031 -0.298630 0
M  V30 19 C -4.621262 -3.621342 -1.547574 0
M  V30 20 C -4.144950 -3.127274 -2.735051 0
M  V30 21 C -4.663417 -3.464692 -3.965922 0
M  V30 22 N -5.705890 -4.334617 -4.029083 0
M  V30 23 C -6.200158 -4.838663 -2.903029 0
M  V30 24 C -5.668437 -4.489029 -1.687009 0
M  V30 25 F -6.213570 -5.031752 -0.601725 0
M  V30 26 C -4.336599 -3.604206 0.962447 0
M  V30 27 C -3.677000 -3.135764 2.071313 0
M  V30 28 O -3.988694 -3.511382 3.208646 0
M  V30 29 N -2.689996 -2.260855 1.854349 0
M  V30 30 C -2.014185 -1.757778 3.029896 0
M  V30 31 C -1.229540 -0.406809 -1.040739 0
M  V30 32 C 0.070796 -0.929835 -1.604034 0
M  V30 33 O 1.099928 -0.187311 -1.017678 0
M  V30 34 H 4.214219 -1.753542 3.679686 0
M  V30 35 H 2.513830 -2.157703 4.323437 0
M  V30 36 H 3.316006 -3.212039 3.045623 0
M  V30 37 H 4.447187 0.256969 3.493495 0
M  V30 38 H 4.850110 2.510748 2.732845 0
M  V30 39 H 3.436490 4.743989 1.019736 0
M  V30 40 H 5.317349 4.655283 -1.989561 0
M  V30 41 H 5.238889 5.773988 -0.579102 0
M  V30 42 H 6.553823 4.584559 -0.668948 0
M  V30 43 H 1.840679 2.097084 -0.281981 0
M  V30 44 H 1.298250 -1.562591 0.479106 0
M  V30 45 H -0.353876 0.914602 0.861083 0
M  V30 46 H -0.061333 -0.426109 2.073576 0
M  V30 47 H -3.330690 -2.439539 -2.802493 0
M  V30 48 H -4.287687 -3.075454 -4.897391 0
M  V30 49 H -7.022813 -5.521047 -3.015031 0
M  V30 50 H -5.122015 -4.299272 1.110223 0
M  V30 51 H -2.560937 -2.107677 3.969094 0
M  V30 52 H -2.076359 -0.667521 3.110259 0
M  V30 53 H -1.013078 -2.210444 3.160914 0
M  V30 54 H -2.107291 -0.783484 -1.612820 0
M  V30 55 H -1.303267 0.697185 -1.029847 0
M  V30 56 H 0.117274 -0.980195 -2.687947 0
M  V30 57 H 0.190124 -1.977250 -1.208228 0
M  V30 END ATOM
M  V30 BEGIN BOND
M  V30 1 1 1 2
M  V30 2 1 2 3
M  V30 3 2 3 4
M  V30 4 1 4 5
M  V30 5 2 5 6
M  V30 6 1 6 7
M  V30 7 1 7 8
M  V30 8 1 8 9
M  V30 9 2 8 10
M  V30 10 1 6 11
M  V30 11 2 11 12
M  V30 12 1 12 13
M  V30 13 1 13 14
M  V30 14 1 14 15
M  V30 15 1 15 16
M  V30 16 2 16 17
M  V30 17 1 17 18
M  V30 18 1 18 19
M  V30 19 2 19 20
M  V30 20 1 20 21
M  V30 21 2 21 22
M  V30 22 1 22 23
M  V30 23 2 23 24
M  V30 24 1 24 25
M  V30 25 2 18 26
M  V30 26 1 26 27
M  V30 27 2 27 28
M  V30 28 1 27 29
M  V30 29 1 29 30
M  V30 30 1 15 31
M  V30 31 1 31 32
M  V30 32 1 32 33
M  V30 33 1 12 3
M  V30 34 1 33 13
M  V30 35 1 29 16
M  V30 36 1 24 19
M  V30 37 1 1 34
M  V30 38 1 1 35
M  V30 39 1 1 36
M  V30 40 1 4 37
M  V30 41 1 5 38
M  V30 42 1 7 39
M  V30 43 1 9 40
M  V30 44 1 9 41
M  V30 45 1 9 42
M  V30 46 1 11 43
M  V30 47 1 13 44 CFG=3
M  V30 48 1 14 45
M  V30 49 1 14 46
M  V30 50 1 20 47
M  V30 51 1 21 48
M  V30 52 1 23 49
M  V30 53 1 26 50
M  V30 54 1 30 51
M  V30 55 1 30 52
M  V30 56 1 30 53
M  V30 57 1 31 54
M  V30 58 1 31 55
M  V30 59 1 32 56
M  V30 60 1 32 57
M  V30 END BOND
M  V30 END CTAB
M  END
>  <Dataset>  (891) 
ChEMBL_Kinases

>  <Ligand_Instance>  (891) 
nan

>  <PDB_ID>  (891) 
nan

>  <Standardized_SMILES>  (891) 
COc1ccc(NC(C)=O)cc1[C@H]1CN(c2nc(-c3ccncc3F)cc(=O)n2C)CCO1

>  <Name>  (891) 
nan

>  <Pocket>  (891) 
nan

>  <ATP_Site>  (891) 
nan

>  <Peripheral>  (891) 
nan

>  <Num_H_Atoms_ProtBoundConf>  (891) 
nan

>  <Num_Resolved_Atoms>  (891) 
nan

>  <Num_Not_Resolved_Atoms>  (891) 
nan

$$$$
CHEMBL574006
     RDKit          3D

  0  0  0  0  0  0  0  0  0  0999 V3000
M  V30 BEGIN CTAB
M  V30 COUNTS 43 46 0 0 0
M  V30 BEGIN ATOM
M  V30 1 C 3.030198 -5.332839 -2.455317 0
M  V30 2 O 2.492555 -4.172223 -3.013706 0
M  V30 3 C 2.049943 -3.085005 -2.268547 0
M  V30 4 C 2.145671 -3.151925 -0.891346 0
M  V30 5 C 1.697239 -2.055127 -0.179577 0
M  V30 6 C 1.175492 -0.937575 -0.801409 0
M  V30 7 C 1.103838 -0.925600 -2.180817 0
M  V30 8 C 1.537419 -1.993978 -2.941312 0
M  V30 9 O 1.482897 -2.019595 -4.308430 0
M  V30 10 C 0.996222 -1.003360 -5.127800 0
M  V30 11 C 0.776912 0.075206 0.178464 0
M  V30 12 N 0.251055 1.294104 0.398557 0
M  V30 13 N 0.231793 1.479995 1.698888 0
M  V30 14 C 0.724738 0.435001 2.385667 0
M  V30 15 N 0.804191 0.412663 3.806625 0
M  V30 16 C 0.403488 1.425797 4.763275 0
M  V30 17 C -1.032081 1.744870 4.693995 0
M  V30 18 C -1.938746 0.994560 5.453589 0
M  V30 19 C -3.305469 1.165477 5.506844 0
M  V30 20 C -3.833928 2.182382 4.730110 0
M  V30 21 C -2.997739 2.947957 3.967981 0
M  V30 22 Cl -3.676322 4.235985 2.985516 0
M  V30 23 C -1.645756 2.742981 3.945532 0
M  V30 24 C 1.085842 -0.493341 1.398918 0
M  V30 25 C 1.679179 -1.852118 1.301471 0
M  V30 26 H 2.381679 -5.727342 -1.652377 0
M  V30 27 H 3.150818 -6.077297 -3.278913 0
M  V30 28 H 4.047076 -5.108538 -2.035860 0
M  V30 29 H 2.553893 -4.025740 -0.399486 0
M  V30 30 H 0.697279 -0.060458 -2.717248 0
M  V30 31 H 1.558019 -1.081057 -6.096108 0
M  V30 32 H -0.102151 -1.134624 -5.341577 0
M  V30 33 H 1.113727 0.001224 -4.721249 0
M  V30 34 H -0.076306 1.956765 -0.343969 0
M  V30 35 H 1.223031 -0.499170 4.130889 0
M  V30 36 H 0.585006 1.005406 5.773940 0
M  V30 37 H 1.046959 2.329115 4.705040 0
M  V30 38 H -1.516092 0.193758 6.064314 0
M  V30 39 H -3.893527 0.519847 6.132830 0
M  V30 40 H -4.898009 2.315706 4.771255 0
M  V30 41 H -0.990297 3.348228 3.349252 0
M  V30 42 H 2.740244 -1.820855 1.684557 0
M  V30 43 H 1.114987 -2.628641 1.816330 0
M  V30 END ATOM
M  V30 BEGIN BOND
M  V30 1 1 1 2
M  V30 2 1 2 3
M  V30 3 2 3 4
M  V30 4 1 4 5
M  V30 5 2 5 6
M  V30 6 1 6 7
M  V30 7 2 7 8
M  V30 8 1 8 9
M  V30 9 1 9 10
M  V30 10 1 6 11
M  V30 11 1 11 12
M  V30 12 1 12 13
M  V30 13 2 13 14
M  V30 14 1 14 15
M  V30 15 1 15 16
M  V30 16 1 16 17
M  V30 17 2 17 18
M  V30 18 1 18 19
M  V30 19 2 19 20
M  V30 20 1 20 21
M  V30 21 1 21 22
M  V30 22 2 21 23
M  V30 23 1 14 24
M  V30 24 1 24 25
M  V30 25 1 8 3
M  V30 26 2 24 11
M  V30 27 1 25 5
M  V30 28 1 23 17
M  V30 29 1 1 26
M  V30 30 1 1 27
M  V30 31 1 1 28
M  V30 32 1 4 29
M  V30 33 1 7 30
M  V30 34 1 10 31
M  V30 35 1 10 32
M  V30 36 1 10 33
M  V30 37 1 12 34
M  V30 38 1 15 35
M  V30 39 1 16 36
M  V30 40 1 16 37
M  V30 41 1 18 38
M  V30 42 1 19 39
M  V30 43 1 20 40
M  V30 44 1 23 41
M  V30 45 1 25 42
M  V30 46 1 25 43
M  V30 END BOND
M  V30 END CTAB
M  END
>  <Dataset>  (892) 
ChEMBL_Kinases

>  <Ligand_Instance>  (892) 
nan

>  <PDB_ID>  (892) 
nan

>  <Standardized_SMILES>  (892) 
COc1cc2c(cc1OC)-c1[nH]nc(NCc3cccc(Cl)c3)c1C2

>  <Name>  (892) 
nan

>  <Pocket>  (892) 
nan

>  <ATP_Site>  (892) 
nan

>  <Peripheral>  (892) 
nan

>  <Num_H_Atoms_ProtBoundConf>  (892) 
nan

>  <Num_Resolved_Atoms>  (892) 
nan

>  <Num_Not_Resolved_Atoms>  (892) 
nan

$$$$
CHEMBL3729472
     RDKit          3D

  0  0  0  0  0  0  0  0  0  0999 V3000
M  V30 BEGIN CTAB
M  V30 COUNTS 51 55 0 0 0
M  V30 BEGIN ATOM
M  V30 1 N -1.519243 -3.529823 1.344092 0
M  V30 2 C -0.160493 -3.605225 1.838939 0 CFG=2
M  V30 3 C 0.815771 -2.879537 0.955243 0
M  V30 4 N 0.647424 -1.508412 0.723028 0
M  V30 5 C 0.516027 -0.094901 1.023178 0
M  V30 6 N 0.540863 0.677332 2.151225 0
M  V30 7 C 0.373238 1.992349 2.009350 0
M  V30 8 C 0.426987 2.734094 3.258089 0
M  V30 9 C 0.226573 4.093517 3.168243 0
M  V30 10 C 0.264144 4.872170 4.332625 0
M  V30 11 N 0.496614 4.267091 5.515598 0
M  V30 12 C 0.689071 2.918782 5.555212 0
M  V30 13 C 0.665617 2.095228 4.454178 0
M  V30 14 N 0.190611 2.516511 0.819111 0
M  V30 15 C 0.146106 1.881000 -0.348842 0
M  V30 16 C -0.054006 2.548543 -1.514772 0
M  V30 17 C -0.258526 3.959958 -1.780754 0
M  V30 18 C -0.484573 4.605864 -2.968956 0
M  V30 19 C -0.613368 5.951059 -2.634206 0
M  V30 20 O -0.474794 6.092054 -1.346779 0
M  V30 21 N -0.258245 4.910597 -0.794176 0
M  V30 22 C -0.064753 1.664513 -2.625711 0
M  V30 23 S 0.213401 -0.039465 -1.874563 0
M  V30 24 C 0.313455 0.557927 -0.227925 0
M  V30 25 C 0.209841 -5.073392 1.828824 0
M  V30 26 C 0.145778 -5.694142 0.493019 0
M  V30 27 C 1.180203 -5.807545 -0.436612 0
M  V30 28 C 0.993490 -6.403962 -1.660107 0
M  V30 29 C -0.250522 -6.927114 -2.028172 0
M  V30 30 C -1.274757 -6.808108 -1.090954 0
M  V30 31 C -1.080911 -6.209276 0.132359 0
M  V30 32 H -2.160195 -4.162894 1.893803 0
M  V30 33 H -1.879542 -2.557461 1.592501 0
M  V30 34 H -0.141221 -3.237923 2.863454 0
M  V30 35 H 1.835457 -3.188849 1.250879 0
M  V30 36 H 0.712790 -3.441203 -0.048557 0
M  V30 37 H 0.743441 -1.598402 1.784108 0
M  V30 38 H 0.039168 4.600103 2.238466 0
M  V30 39 H 0.106825 5.958705 4.291443 0
M  V30 40 H 0.873878 2.484014 6.543573 0
M  V30 41 H 0.821717 1.031112 4.506289 0
M  V30 42 H -0.539841 4.124588 -3.911426 0
M  V30 43 H -0.798774 6.747229 -3.335769 0
M  V30 44 H -0.210505 1.912742 -3.735573 0
M  V30 45 H 1.264883 -5.198851 2.193594 0
M  V30 46 H -0.420018 -5.652402 2.561549 0
M  V30 47 H 2.113346 -5.389024 -0.099630 0
M  V30 48 H 1.843637 -6.466621 -2.353355 0
M  V30 49 H -0.299823 -7.375416 -3.008007 0
M  V30 50 H -2.212062 -7.244442 -1.466015 0
M  V30 51 H -2.006482 -6.229400 0.693547 0
M  V30 END ATOM
M  V30 BEGIN BOND
M  V30 1 1 1 2
M  V30 2 1 2 3
M  V30 3 1 3 4
M  V30 4 1 4 5
M  V30 5 2 5 6
M  V30 6 1 6 7
M  V30 7 1 7 8
M  V30 8 2 8 9
M  V30 9 1 9 10
M  V30 10 2 10 11
M  V30 11 1 11 12
M  V30 12 2 12 13
M  V30 13 2 7 14
M  V30 14 1 14 15
M  V30 15 1 15 16
M  V30 16 1 16 17
M  V30 17 1 17 18
M  V30 18 2 18 19
M  V30 19 1 19 20
M  V30 20 1 20 21
M  V30 21 2 16 22
M  V30 22 1 22 23
M  V30 23 1 23 24
M  V30 24 1 2 25
M  V30 25 1 25 26
M  V30 26 2 26 27
M  V30 27 1 27 28
M  V30 28 2 28 29
M  V30 29 1 29 30
M  V30 30 2 30 31
M  V30 31 1 24 5
M  V30 32 1 31 26
M  V30 33 1 13 8
M  V30 34 2 24 15
M  V30 35 2 21 17
M  V30 36 1 1 32
M  V30 37 1 1 33
M  V30 38 1 2 34 CFG=1
M  V30 39 1 3 35
M  V30 40 1 3 36
M  V30 41 1 4 37
M  V30 42 1 9 38
M  V30 43 1 10 39
M  V30 44 1 12 40
M  V30 45 1 13 41
M  V30 46 1 18 42
M  V30 47 1 19 43
M  V30 48 1 22 44
M  V30 49 1 25 45
M  V30 50 1 25 46
M  V30 51 1 27 47
M  V30 52 1 28 48
M  V30 53 1 29 49
M  V30 54 1 30 50
M  V30 55 1 31 51
M  V30 END BOND
M  V30 END CTAB
M  END
>  <Dataset>  (893) 
ChEMBL_Kinases

>  <Ligand_Instance>  (893) 
nan

>  <PDB_ID>  (893) 
nan

>  <Standardized_SMILES>  (893) 
N[C@H](CNc1nc(-c2ccncc2)nc2c(-c3ccon3)csc12)Cc1ccccc1

>  <Name>  (893) 
nan

>  <Pocket>  (893) 
nan

>  <ATP_Site>  (893) 
nan

>  <Peripheral>  (893) 
nan

>  <Num_H_Atoms_ProtBoundConf>  (893) 
nan

>  <Num_Resolved_Atoms>  (893) 
nan

>  <Num_Not_Resolved_Atoms>  (893) 
nan

$$$$
CHEMBL3704654
     RDKit          3D

  0  0  0  0  0  0  0  0  0  0999 V3000
M  V30 BEGIN CTAB
M  V30 COUNTS 36 39 0 0 0
M  V30 BEGIN ATOM
M  V30 1 C -2.366180 -4.265920 1.087104 0
M  V30 2 C -0.976236 -3.822052 0.861269 0
M  V30 3 C -0.002602 -4.423560 1.636095 0
M  V30 4 C 1.316649 -4.043415 1.463823 0
M  V30 5 C 1.641477 -3.078787 0.530725 0
M  V30 6 C 0.642707 -2.494024 -0.231101 0
M  V30 7 N 0.901267 -1.493849 -1.211416 0
M  V30 8 N 1.222547 -1.872620 -2.431208 0
M  V30 9 C 1.422025 -0.789135 -3.187192 0
M  V30 10 C 1.210058 0.298569 -2.381558 0
M  V30 11 C 1.301660 1.721314 -2.727753 0
M  V30 12 C 0.875571 -0.142855 -1.112489 0
M  V30 13 C 0.549402 0.559511 0.126281 0
M  V30 14 C 0.468896 1.853470 0.433475 0
M  V30 15 C 0.136753 2.259987 1.694559 0
M  V30 16 C -0.001550 3.530689 2.221061 0
M  V30 17 C -0.350706 3.650334 3.546338 0
M  V30 18 N -0.585097 2.650434 4.434638 0
M  V30 19 C -0.459669 1.377268 3.957000 0
M  V30 20 C -0.107312 1.240115 2.619553 0
M  V30 21 S 0.148636 -0.253512 1.646258 0
M  V30 22 N -0.633773 -2.883103 -0.042677 0
M  V30 23 H -3.107071 -3.490683 0.774400 0
M  V30 24 H -2.551366 -4.473046 2.167347 0
M  V30 25 H -2.595561 -5.178908 0.493056 0
M  V30 26 H -0.202728 -5.177027 2.373729 0
M  V30 27 H 2.172967 -4.425089 1.994604 0
M  V30 28 H 2.644016 -2.701539 0.309456 0
M  V30 29 H 1.699386 -0.695149 -4.239806 0
M  V30 30 H 0.323421 2.264178 -2.696082 0
M  V30 31 H 2.127733 2.270259 -2.226791 0
M  V30 32 H 1.580001 1.778233 -3.825136 0
M  V30 33 H 0.678434 2.557917 -0.360833 0
M  V30 34 H 0.153407 4.425292 1.634102 0
M  V30 35 H -0.454909 4.673051 3.943115 0
M  V30 36 H -0.608589 0.466780 4.521038 0
M  V30 END ATOM
M  V30 BEGIN BOND
M  V30 1 1 1 2
M  V30 2 2 2 3
M  V30 3 1 3 4
M  V30 4 2 4 5
M  V30 5 1 5 6
M  V30 6 1 6 7
M  V30 7 1 7 8
M  V30 8 2 8 9
M  V30 9 1 9 10
M  V30 10 1 10 11
M  V30 11 2 10 12
M  V30 12 1 12 13
M  V30 13 2 13 14
M  V30 14 1 14 15
M  V30 15 2 15 16
M  V30 16 1 16 17
M  V30 17 2 17 18
M  V30 18 1 18 19
M  V30 19 2 19 20
M  V30 20 1 20 21
M  V30 21 2 6 22
M  V30 22 1 22 2
M  V30 23 1 12 7
M  V30 24 1 21 13
M  V30 25 1 20 15
M  V30 26 1 1 23
M  V30 27 1 1 24
M  V30 28 1 1 25
M  V30 29 1 3 26
M  V30 30 1 4 27
M  V30 31 1 5 28
M  V30 32 1 9 29
M  V30 33 1 11 30
M  V30 34 1 11 31
M  V30 35 1 11 32
M  V30 36 1 14 33
M  V30 37 1 16 34
M  V30 38 1 17 35
M  V30 39 1 19 36
M  V30 END BOND
M  V30 END CTAB
M  END
>  <Dataset>  (894) 
ChEMBL_Kinases

>  <Ligand_Instance>  (894) 
nan

>  <PDB_ID>  (894) 
nan

>  <Standardized_SMILES>  (894) 
Cc1cccc(-n2ncc(C)c2-c2cc3ccncc3s2)n1

>  <Name>  (894) 
nan

>  <Pocket>  (894) 
nan

>  <ATP_Site>  (894) 
nan

>  <Peripheral>  (894) 
nan

>  <Num_H_Atoms_ProtBoundConf>  (894) 
nan

>  <Num_Resolved_Atoms>  (894) 
nan

>  <Num_Not_Resolved_Atoms>  (894) 
nan

$$$$
CHEMBL523983
     RDKit          3D

  0  0  0  0  0  0  0  0  0  0999 V3000
M  V30 BEGIN CTAB
M  V30 COUNTS 48 52 0 0 0
M  V30 BEGIN ATOM
M  V30 1 F -1.305030 -8.038730 0.849312 0
M  V30 2 C -1.083378 -6.709789 0.882256 0
M  V30 3 C -0.516676 -6.134930 1.998386 0
M  V30 4 C -0.278329 -4.774325 2.053964 0
M  V30 5 C -0.600429 -3.949677 0.994332 0
M  V30 6 C -0.414565 -2.507036 0.896643 0
M  V30 7 N 0.771238 -2.090607 0.366686 0
M  V30 8 C 0.741804 -0.726940 0.366499 0
M  V30 9 C 1.635098 0.257915 -0.045771 0
M  V30 10 C 1.342840 1.611907 0.063897 0
M  V30 11 N 2.346607 2.537166 -0.385315 0
M  V30 12 C 2.100717 3.207557 -1.652554 0
M  V30 13 C 3.170789 4.286032 -1.776358 0
M  V30 14 O 3.250667 5.081232 -0.650483 0
M  V30 15 C 3.486598 4.409093 0.528362 0
M  V30 16 C 3.592085 2.900334 0.287733 0
M  V30 17 C 0.116696 1.998617 0.603843 0
M  V30 18 C -0.787124 1.035470 1.021101 0
M  V30 19 C -0.459048 -0.302845 0.895132 0
M  V30 20 C -1.196034 -1.423489 1.233232 0
M  V30 21 C -2.499327 -1.525604 1.817314 0
M  V30 22 C -2.631039 -1.019678 3.115411 0
M  V30 23 C -3.820573 -1.024312 3.846632 0
M  V30 24 N -4.921630 -1.544940 3.281825 0
M  V30 25 C -4.838482 -2.042907 2.033163 0
M  V30 26 C -3.670706 -2.044379 1.301342 0
M  V30 27 C -1.176894 -4.540378 -0.139179 0
M  V30 28 C -1.427669 -5.915581 -0.219000 0
M  V30 29 H -0.225011 -6.696504 2.889709 0
M  V30 30 H 0.157461 -4.212099 2.868111 0
M  V30 31 H 1.605418 -2.578305 0.002316 0
M  V30 32 H 2.598432 -0.069231 -0.470145 0
M  V30 33 H 2.285355 2.528688 -2.512861 0
M  V30 34 H 1.095501 3.665299 -1.687205 0
M  V30 35 H 2.887792 4.972431 -2.621055 0
M  V30 36 H 4.142519 3.798530 -2.045572 0
M  V30 37 H 4.447541 4.726306 0.993540 0
M  V30 38 H 2.662735 4.599023 1.270937 0
M  V30 39 H 4.484465 2.738124 -0.341614 0
M  V30 40 H 3.690200 2.397007 1.272427 0
M  V30 41 H -0.095525 3.035285 0.682080 0
M  V30 42 H -1.742861 1.315083 1.442462 0
M  V30 43 H -1.761897 -0.581532 3.628794 0
M  V30 44 H -3.823424 -0.607447 4.850438 0
M  V30 45 H -5.703573 -2.473451 1.536702 0
M  V30 46 H -3.559096 -2.438050 0.285051 0
M  V30 47 H -1.457131 -3.946717 -1.014351 0
M  V30 48 H -1.873082 -6.348828 -1.103444 0
M  V30 END ATOM
M  V30 BEGIN BOND
M  V30 1 1 1 2
M  V30 2 2 2 3
M  V30 3 1 3 4
M  V30 4 2 4 5
M  V30 5 1 5 6
M  V30 6 1 6 7
M  V30 7 1 7 8
M  V30 8 2 8 9
M  V30 9 1 9 10
M  V30 10 1 10 11
M  V30 11 1 11 12
M  V30 12 1 12 13
M  V30 13 1 13 14
M  V30 14 1 14 15
M  V30 15 1 15 16
M  V30 16 2 10 17
M  V30 17 1 17 18
M  V30 18 2 18 19
M  V30 19 1 19 20
M  V30 20 1 20 21
M  V30 21 2 21 22
M  V30 22 1 22 23
M  V30 23 2 23 24
M  V30 24 1 24 25
M  V30 25 2 25 26
M  V30 26 1 5 27
M  V30 27 2 27 28
M  V30 28 1 28 2
M  V30 29 2 20 6
M  V30 30 1 26 21
M  V30 31 1 19 8
M  V30 32 1 16 11
M  V30 33 1 3 29
M  V30 34 1 4 30
M  V30 35 1 7 31
M  V30 36 1 9 32
M  V30 37 1 12 33
M  V30 38 1 12 34
M  V30 39 1 13 35
M  V30 40 1 13 36
M  V30 41 1 15 37
M  V30 42 1 15 38
M  V30 43 1 16 39
M  V30 44 1 16 40
M  V30 45 1 17 41
M  V30 46 1 18 42
M  V30 47 1 22 43
M  V30 48 1 23 44
M  V30 49 1 25 45
M  V30 50 1 26 46
M  V30 51 1 27 47
M  V30 52 1 28 48
M  V30 END BOND
M  V30 END CTAB
M  END
>  <Dataset>  (895) 
ChEMBL_Kinases

>  <Ligand_Instance>  (895) 
nan

>  <PDB_ID>  (895) 
nan

>  <Standardized_SMILES>  (895) 
Fc1ccc(-c2[nH]c3cc(N4CCOCC4)ccc3c2-c2ccncc2)cc1

>  <Name>  (895) 
nan

>  <Pocket>  (895) 
nan

>  <ATP_Site>  (895) 
nan

>  <Peripheral>  (895) 
nan

>  <Num_H_Atoms_ProtBoundConf>  (895) 
nan

>  <Num_Resolved_Atoms>  (895) 
nan

>  <Num_Not_Resolved_Atoms>  (895) 
nan

$$$$
CHEMBL3704655
     RDKit          3D

  0  0  0  0  0  0  0  0  0  0999 V3000
M  V30 BEGIN CTAB
M  V30 COUNTS 40 44 0 0 0
M  V30 BEGIN ATOM
M  V30 1 C 0.315541 -5.151330 -0.264622 0
M  V30 2 C 0.787299 -4.176752 0.771409 0
M  V30 3 C 0.949748 -4.730769 2.034035 0
M  V30 4 C 1.380127 -3.940978 3.080296 0
M  V30 5 C 1.616768 -2.621045 2.753693 0
M  V30 6 C 1.443350 -2.093197 1.470531 0
M  V30 7 N 1.722962 -0.731068 1.285664 0
M  V30 8 N 2.925773 -0.301563 1.575269 0
M  V30 9 C 3.049335 1.017195 1.350369 0
M  V30 10 C 1.796240 1.423159 0.878159 0
M  V30 11 C 1.002884 0.293753 0.856177 0
M  V30 12 C -0.407464 0.167958 0.441131 0
M  V30 13 C -1.220196 1.191559 -0.017004 0
M  V30 14 C -2.508419 0.915159 -0.363852 0
M  V30 15 C -3.514373 1.728503 -0.840293 0
M  V30 16 C -4.742743 1.166973 -1.111503 0
M  V30 17 N -5.097633 -0.122534 -0.964667 0
M  V30 18 C -4.173591 -0.979935 -0.504990 0
M  V30 19 C -2.922841 -0.417207 -0.227038 0
M  V30 20 S -1.359679 -1.255516 0.428298 0
M  V30 21 C 1.796028 2.874506 0.588132 0
M  V30 22 C 3.131627 3.359674 1.087610 0
M  V30 23 C 3.976082 2.170332 1.409245 0
M  V30 24 N 1.028637 -2.881659 0.490287 0
M  V30 25 H -0.761756 -5.393582 -0.091495 0
M  V30 26 H 0.418241 -4.639492 -1.242747 0
M  V30 27 H 0.969380 -6.039663 -0.250540 0
M  V30 28 H 0.752414 -5.775112 2.249104 0
M  V30 29 H 1.532352 -4.285879 4.086106 0
M  V30 30 H 1.959627 -1.975757 3.570716 0
M  V30 31 H -0.808992 2.188940 -0.087902 0
M  V30 32 H -3.349766 2.784845 -0.999934 0
M  V30 33 H -5.508223 1.867084 -1.490277 0
M  V30 34 H -4.302624 -2.016072 -0.338284 0
M  V30 35 H 0.937463 3.335211 1.122352 0
M  V30 36 H 1.672814 3.017597 -0.506523 0
M  V30 37 H 3.623907 4.011904 0.334220 0
M  V30 38 H 2.945354 3.928199 2.009321 0
M  V30 39 H 4.788807 2.012322 0.677346 0
M  V30 40 H 4.359020 2.225791 2.458027 0
M  V30 END ATOM
M  V30 BEGIN BOND
M  V30 1 1 1 2
M  V30 2 2 2 3
M  V30 3 1 3 4
M  V30 4 2 4 5
M  V30 5 1 5 6
M  V30 6 1 6 7
M  V30 7 1 7 8
M  V30 8 2 8 9
M  V30 9 1 9 10
M  V30 10 2 10 11
M  V30 11 1 11 12
M  V30 12 2 12 13
M  V30 13 1 13 14
M  V30 14 2 14 15
M  V30 15 1 15 16
M  V30 16 2 16 17
M  V30 17 1 17 18
M  V30 18 2 18 19
M  V30 19 1 19 20
M  V30 20 1 10 21
M  V30 21 1 21 22
M  V30 22 1 22 23
M  V30 23 2 6 24
M  V30 24 1 24 2
M  V30 25 1 11 7
M  V30 26 1 20 12
M  V30 27 1 23 9
M  V30 28 1 19 14
M  V30 29 1 1 25
M  V30 30 1 1 26
M  V30 31 1 1 27
M  V30 32 1 3 28
M  V30 33 1 4 29
M  V30 34 1 5 30
M  V30 35 1 13 31
M  V30 36 1 15 32
M  V30 37 1 16 33
M  V30 38 1 18 34
M  V30 39 1 21 35
M  V30 40 1 21 36
M  V30 41 1 22 37
M  V30 42 1 22 38
M  V30 43 1 23 39
M  V30 44 1 23 40
M  V30 END BOND
M  V30 END CTAB
M  END
>  <Dataset>  (896) 
ChEMBL_Kinases

>  <Ligand_Instance>  (896) 
nan

>  <PDB_ID>  (896) 
nan

>  <Standardized_SMILES>  (896) 
Cc1cccc(-n2nc3c(c2-c2cc4ccncc4s2)CCC3)n1

>  <Name>  (896) 
nan

>  <Pocket>  (896) 
nan

>  <ATP_Site>  (896) 
nan

>  <Peripheral>  (896) 
nan

>  <Num_H_Atoms_ProtBoundConf>  (896) 
nan

>  <Num_Resolved_Atoms>  (896) 
nan

>  <Num_Not_Resolved_Atoms>  (896) 
nan

$$$$
CHEMBL3729448
     RDKit          3D

  0  0  0  0  0  0  0  0  0  0999 V3000
M  V30 BEGIN CTAB
M  V30 COUNTS 38 40 0 0 0
M  V30 BEGIN ATOM
M  V30 1 C -3.237400 -4.538421 2.876294 0
M  V30 2 C -2.318865 -3.521571 2.519194 0
M  V30 3 S -1.619556 -3.571565 0.794214 0
M  V30 4 C -0.553357 -2.021218 1.032114 0
M  V30 5 C 0.282559 -1.406162 0.159984 0
M  V30 6 N 0.426109 -1.953436 -1.130504 0
M  V30 7 C 1.288432 -1.350636 -2.091916 0
M  V30 8 C 0.840547 0.041155 -2.414241 0 CFG=2
M  V30 9 C -0.559857 0.082654 -2.983389 0
M  V30 10 N 1.782128 0.683882 -3.344172 0
M  V30 11 N 0.910072 -0.315965 0.613403 0
M  V30 12 C 0.658731 0.073226 1.887915 0
M  V30 13 C 1.310663 1.267975 2.468481 0
M  V30 14 C 2.174780 1.947919 1.644491 0
M  V30 15 C 2.767824 3.060600 2.218175 0
M  V30 16 N 2.565041 3.494291 3.457655 0
M  V30 17 C 1.708296 2.816650 4.268442 0
M  V30 18 C 1.095332 1.710304 3.752567 0
M  V30 19 N -0.175324 -0.566579 2.712053 0
M  V30 20 C -0.850567 -1.668263 2.350096 0
M  V30 21 C -1.725483 -2.419656 3.073140 0
M  V30 22 Br -2.244767 -2.084927 4.878765 0
M  V30 23 H -4.273667 -4.429111 2.455029 0
M  V30 24 H -2.899844 -5.532372 2.462477 0
M  V30 25 H -3.309165 -4.649428 3.958627 0
M  V30 26 H -0.083933 -2.805660 -1.427265 0
M  V30 27 H 1.374246 -1.931904 -3.029978 0
M  V30 28 H 2.294048 -1.264652 -1.616637 0
M  V30 29 H 0.854869 0.691647 -1.519449 0
M  V30 30 H -1.063829 -0.863193 -2.715305 0
M  V30 31 H -0.543046 0.171256 -4.106587 0
M  V30 32 H -1.146758 0.926245 -2.564456 0
M  V30 33 H 1.359006 1.584456 -3.667293 0
M  V30 34 H 2.615484 0.948227 -2.779509 0
M  V30 35 H 2.393582 1.659842 0.624275 0
M  V30 36 H 3.460555 3.634005 1.607550 0
M  V30 37 H 1.514189 3.139402 5.291978 0
M  V30 38 H 0.403643 1.139851 4.365960 0
M  V30 END ATOM
M  V30 BEGIN BOND
M  V30 1 1 1 2
M  V30 2 1 2 3
M  V30 3 1 3 4
M  V30 4 2 4 5
M  V30 5 1 5 6
M  V30 6 1 6 7
M  V30 7 1 7 8
M  V30 8 1 8 9
M  V30 9 1 8 10
M  V30 10 1 5 11
M  V30 11 2 11 12
M  V30 12 1 12 13
M  V30 13 2 13 14
M  V30 14 1 14 15
M  V30 15 2 15 16
M  V30 16 1 16 17
M  V30 17 2 17 18
M  V30 18 1 12 19
M  V30 19 2 19 20
M  V30 20 1 20 21
M  V30 21 1 21 22
M  V30 22 2 21 2
M  V30 23 1 20 4
M  V30 24 1 18 13
M  V30 25 1 1 23
M  V30 26 1 1 24
M  V30 27 1 1 25
M  V30 28 1 6 26
M  V30 29 1 7 27
M  V30 30 1 7 28
M  V30 31 1 8 29 CFG=1
M  V30 32 1 9 30
M  V30 33 1 9 31
M  V30 34 1 9 32
M  V30 35 1 10 33
M  V30 36 1 10 34
M  V30 37 1 14 35
M  V30 38 1 15 36
M  V30 39 1 17 37
M  V30 40 1 18 38
M  V30 END BOND
M  V30 END CTAB
M  END
>  <Dataset>  (897) 
ChEMBL_Kinases

>  <Ligand_Instance>  (897) 
nan

>  <PDB_ID>  (897) 
nan

>  <Standardized_SMILES>  (897) 
Cc1sc2c(NC[C@H](C)N)nc(-c3ccncc3)nc2c1Br

>  <Name>  (897) 
nan

>  <Pocket>  (897) 
nan

>  <ATP_Site>  (897) 
nan

>  <Peripheral>  (897) 
nan

>  <Num_H_Atoms_ProtBoundConf>  (897) 
nan

>  <Num_Resolved_Atoms>  (897) 
nan

>  <Num_Not_Resolved_Atoms>  (897) 
nan

$$$$
CHEMBL370477
     RDKit          3D

  0  0  0  0  0  0  0  0  0  0999 V3000
M  V30 BEGIN CTAB
M  V30 COUNTS 31 33 0 0 0
M  V30 BEGIN ATOM
M  V30 1 C 1.446634 -2.774215 3.618853 0
M  V30 2 N 2.020476 -3.628344 2.560224 0
M  V30 3 C 1.138267 -3.818033 1.442645 0
M  V30 4 N 0.414414 -4.893526 1.078240 0
M  V30 5 C -0.378857 -4.865357 -0.002972 0
M  V30 6 C -0.415242 -3.688463 -0.716718 0
M  V30 7 C 0.325485 -2.550608 -0.365334 0
M  V30 8 C 0.079252 -1.436630 -1.302519 0
M  V30 9 C -0.008895 -1.715659 -2.707458 0
M  V30 10 N -0.090237 -1.933301 -3.848310 0
M  V30 11 C -0.037658 -0.225752 -0.781541 0
M  V30 12 N 0.018646 0.295504 0.522994 0
M  V30 13 C -0.221915 1.674574 0.626602 0
M  V30 14 C -0.213953 2.315682 1.853619 0
M  V30 15 C -0.483835 3.691858 1.858094 0
M  V30 16 C -0.739290 4.318077 0.639686 0
M  V30 17 C -0.749191 3.689663 -0.578662 0
M  V30 18 C -0.476482 2.318741 -0.542172 0
M  V30 19 S -0.374803 1.158873 -1.896647 0
M  V30 20 N 1.097312 -2.657941 0.731514 0
M  V30 21 H 1.109785 -3.432130 4.438133 0
M  V30 22 H 0.646374 -2.113804 3.225348 0
M  V30 23 H 2.242889 -2.088171 4.050823 0
M  V30 24 H 2.999818 -3.959022 2.818750 0
M  V30 25 H -0.916209 -5.757727 -0.226703 0
M  V30 26 H -1.097434 -3.778406 -1.582715 0
M  V30 27 H 0.234519 -0.437439 1.238700 0
M  V30 28 H -0.022062 1.897051 2.828376 0
M  V30 29 H -0.500673 4.292301 2.776420 0
M  V30 30 H -0.945708 5.394025 0.675960 0
M  V30 31 H -0.946789 4.183864 -1.517768 0
M  V30 END ATOM
M  V30 BEGIN BOND
M  V30 1 1 1 2
M  V30 2 1 2 3
M  V30 3 2 3 4
M  V30 4 1 4 5
M  V30 5 2 5 6
M  V30 6 1 6 7
M  V30 7 1 7 8
M  V30 8 1 8 9
M  V30 9 3 9 10
M  V30 10 2 8 11
M  V30 11 1 11 12
M  V30 12 1 12 13
M  V30 13 2 13 14
M  V30 14 1 14 15
M  V30 15 2 15 16
M  V30 16 1 16 17
M  V30 17 2 17 18
M  V30 18 1 18 19
M  V30 19 2 7 20
M  V30 20 1 20 3
M  V30 21 1 19 11
M  V30 22 1 18 13
M  V30 23 1 1 21
M  V30 24 1 1 22
M  V30 25 1 1 23
M  V30 26 1 2 24
M  V30 27 1 5 25
M  V30 28 1 6 26
M  V30 29 1 12 27
M  V30 30 1 14 28
M  V30 31 1 15 29
M  V30 32 1 16 30
M  V30 33 1 17 31
M  V30 END BOND
M  V30 END CTAB
M  END
>  <Dataset>  (898) 
ChEMBL_Kinases

>  <Ligand_Instance>  (898) 
nan

>  <PDB_ID>  (898) 
nan

>  <Standardized_SMILES>  (898) 
CNc1nccc(/C(C#N)=C2\Nc3ccccc3S2)n1

>  <Name>  (898) 
nan

>  <Pocket>  (898) 
nan

>  <ATP_Site>  (898) 
nan

>  <Peripheral>  (898) 
nan

>  <Num_H_Atoms_ProtBoundConf>  (898) 
nan

>  <Num_Resolved_Atoms>  (898) 
nan

>  <Num_Not_Resolved_Atoms>  (898) 
nan

$$$$
CHEMBL3729436
     RDKit          3D

  0  0  0  0  0  0  0  0  0  0999 V3000
M  V30 BEGIN CTAB
M  V30 COUNTS 55 59 0 0 0
M  V30 BEGIN ATOM
M  V30 1 C 3.683453 -3.270104 2.309000 0
M  V30 2 C 4.540585 -2.205486 2.869394 0
M  V30 3 C 5.798222 -2.614657 3.191998 0
M  V30 4 C 6.729021 -1.754575 3.721764 0
M  V30 5 S 5.675972 -0.190084 3.757428 0
M  V30 6 C 4.240677 -0.896582 3.095827 0
M  V30 7 C 3.006782 -0.178454 2.855816 0
M  V30 8 C 3.251366 1.175011 3.236121 0
M  V30 9 S 1.623609 2.084945 2.915775 0
M  V30 10 C 0.804292 0.658660 2.334682 0
M  V30 11 C -0.482763 0.519837 1.891951 0
M  V30 12 N -1.287467 1.680428 1.894098 0
M  V30 13 C -2.640584 1.506126 1.420837 0
M  V30 14 C -2.757273 1.046208 0.006777 0 CFG=1
M  V30 15 N -4.195953 0.932854 -0.276783 0
M  V30 16 C -2.213432 2.130485 -0.927738 0
M  V30 17 C -2.332015 1.666309 -2.341760 0
M  V30 18 C -3.455095 1.916923 -3.097150 0
M  V30 19 C -3.579261 1.491771 -4.412022 0
M  V30 20 C -2.516328 0.783561 -4.977820 0
M  V30 21 C -1.376658 0.513538 -4.254014 0
M  V30 22 C -1.307945 0.960617 -2.950459 0
M  V30 23 N -0.892788 -0.685531 1.493653 0
M  V30 24 C 0.010225 -1.703642 1.557117 0
M  V30 25 C -0.499477 -2.989465 1.108916 0
M  V30 26 C -1.803343 -3.114968 0.666494 0
M  V30 27 C -2.345353 -4.301331 0.230590 0
M  V30 28 N -1.603756 -5.421229 0.217561 0
M  V30 29 C -0.313097 -5.400001 0.632628 0
M  V30 30 C 0.165064 -4.193065 1.052783 0
M  V30 31 N 1.224410 -1.453217 2.001214 0
M  V30 32 C 1.738317 -0.306279 2.419765 0
M  V30 33 H 3.334083 -2.908929 1.318210 0
M  V30 34 H 4.195740 -4.249037 2.157925 0
M  V30 35 H 2.794054 -3.389345 2.956811 0
M  V30 36 H 6.352036 -3.537787 3.148250 0
M  V30 37 H 7.739550 -1.597216 4.102636 0
M  V30 38 H 3.926844 2.012910 3.639540 0
M  V30 39 H -0.970820 2.620000 2.206473 0
M  V30 40 H -3.193763 2.477220 1.490008 0
M  V30 41 H -3.223888 0.815729 2.086948 0
M  V30 42 H -2.334189 0.068650 -0.223888 0
M  V30 43 H -4.639633 0.268671 0.387888 0
M  V30 44 H -4.339954 0.508969 -1.228170 0
M  V30 45 H -1.160742 2.301838 -0.672764 0
M  V30 46 H -2.798660 3.054271 -0.811754 0
M  V30 47 H -4.249473 2.470180 -2.609202 0
M  V30 48 H -4.482156 1.703350 -4.991810 0
M  V30 49 H -2.575951 0.431658 -6.010885 0
M  V30 50 H -0.547867 -0.029087 -4.669126 0
M  V30 51 H -0.411825 0.758116 -2.354705 0
M  V30 52 H -2.479969 -2.263343 0.640547 0
M  V30 53 H -3.363955 -4.362330 -0.106815 0
M  V30 54 H 0.294809 -6.286216 0.628996 0
M  V30 55 H 1.191400 -4.197811 1.377689 0
M  V30 END ATOM
M  V30 BEGIN BOND
M  V30 1 1 1 2
M  V30 2 1 2 3
M  V30 3 2 3 4
M  V30 4 1 4 5
M  V30 5 1 5 6
M  V30 6 1 6 7
M  V30 7 2 7 8
M  V30 8 1 8 9
M  V30 9 1 9 10
M  V30 10 2 10 11
M  V30 11 1 11 12
M  V30 12 1 12 13
M  V30 13 1 13 14
M  V30 14 1 14 15
M  V30 15 1 14 16
M  V30 16 1 16 17
M  V30 17 2 17 18
M  V30 18 1 18 19
M  V30 19 2 19 20
M  V30 20 1 20 21
M  V30 21 2 21 22
M  V30 22 1 11 23
M  V30 23 2 23 24
M  V30 24 1 24 25
M  V30 25 2 25 26
M  V30 26 1 26 27
M  V30 27 2 27 28
M  V30 28 1 28 29
M  V30 29 2 29 30
M  V30 30 1 24 31
M  V30 31 2 31 32
M  V30 32 2 6 2
M  V30 33 1 32 7
M  V30 34 1 32 10
M  V30 35 1 22 17
M  V30 36 1 30 25
M  V30 37 1 1 33
M  V30 38 1 1 34
M  V30 39 1 1 35
M  V30 40 1 3 36
M  V30 41 1 4 37
M  V30 42 1 8 38
M  V30 43 1 12 39
M  V30 44 1 13 40
M  V30 45 1 13 41
M  V30 46 1 14 42 CFG=1
M  V30 47 1 15 43
M  V30 48 1 15 44
M  V30 49 1 16 45
M  V30 50 1 16 46
M  V30 51 1 18 47
M  V30 52 1 19 48
M  V30 53 1 20 49
M  V30 54 1 21 50
M  V30 55 1 22 51
M  V30 56 1 26 52
M  V30 57 1 27 53
M  V30 58 1 29 54
M  V30 59 1 30 55
M  V30 END BOND
M  V30 END CTAB
M  END
>  <Dataset>  (899) 
ChEMBL_Kinases

>  <Ligand_Instance>  (899) 
nan

>  <PDB_ID>  (899) 
nan

>  <Standardized_SMILES>  (899) 
Cc1ccsc1-c1csc2c(NC[C@@H](N)Cc3ccccc3)nc(-c3ccncc3)nc12

>  <Name>  (899) 
nan

>  <Pocket>  (899) 
nan

>  <ATP_Site>  (899) 
nan

>  <Peripheral>  (899) 
nan

>  <Num_H_Atoms_ProtBoundConf>  (899) 
nan

>  <Num_Resolved_Atoms>  (899) 
nan

>  <Num_Not_Resolved_Atoms>  (899) 
nan

$$$$
CHEMBL370485
     RDKit          3D

  0  0  0  0  0  0  0  0  0  0999 V3000
M  V30 BEGIN CTAB
M  V30 COUNTS 44 48 0 0 0
M  V30 BEGIN ATOM
M  V30 1 Br 1.892736 -1.881549 5.638160 0
M  V30 2 C 2.394974 -1.076820 3.973635 0
M  V30 3 C 3.715889 -0.858412 3.666028 0
M  V30 4 N 4.046761 -0.295044 2.499060 0
M  V30 5 C 3.101071 0.061675 1.620121 0
M  V30 6 N 3.520946 0.651416 0.397314 0
M  V30 7 C 2.771121 1.182651 -0.686318 0
M  V30 8 C 3.326948 1.617341 -1.864292 0
M  V30 9 C 2.585262 2.135468 -2.897457 0
M  V30 10 C 1.217443 2.249442 -2.806595 0
M  V30 11 N 0.304217 2.716262 -3.673235 0
M  V30 12 C -0.876451 2.590540 -3.062860 0
M  V30 13 N -0.690780 2.055988 -1.843453 0
M  V30 14 C 0.633529 1.824758 -1.644552 0
M  V30 15 C 1.396959 1.316922 -0.641390 0
M  V30 16 N 1.825934 -0.167562 1.956060 0
M  V30 17 C 1.394462 -0.722551 3.092719 0
M  V30 18 N 0.002956 -0.921292 3.371089 0
M  V30 19 C -1.108693 -0.589384 2.502025 0
M  V30 20 C -2.392943 -0.901995 3.283169 0
M  V30 21 C -2.314234 -2.425434 3.313323 0
M  V30 22 C -1.973824 -2.725884 1.899507 0
M  V30 23 C -2.300019 -3.861915 1.193496 0
M  V30 24 C -1.879888 -3.921450 -0.118985 0
M  V30 25 C -1.168920 -2.873528 -0.663975 0
M  V30 26 C -0.883100 -1.772460 0.108977 0
M  V30 27 C -1.263551 -1.631130 1.425385 0
M  V30 28 H 4.483501 -1.144172 4.371424 0
M  V30 29 H 4.568140 0.727793 0.223881 0
M  V30 30 H 4.416519 1.540059 -1.969544 0
M  V30 31 H 3.130494 2.446008 -3.778321 0
M  V30 32 H 0.473887 3.096519 -4.619980 0
M  V30 33 H -1.875997 2.853981 -3.424211 0
M  V30 34 H 0.817915 1.022707 0.220121 0
M  V30 35 H -0.172446 -1.356349 4.319475 0
M  V30 36 H -1.085047 0.424731 2.110391 0
M  V30 37 H -3.209358 -0.599191 2.616452 0
M  V30 38 H -2.391216 -0.455816 4.278030 0
M  V30 39 H -3.311520 -2.836838 3.591499 0
M  V30 40 H -1.587427 -2.790977 4.038832 0
M  V30 41 H -2.849366 -4.667172 1.620794 0
M  V30 42 H -2.121389 -4.797400 -0.692722 0
M  V30 43 H -0.840431 -2.925680 -1.699101 0
M  V30 44 H -0.327177 -0.985074 -0.366390 0
M  V30 END ATOM
M  V30 BEGIN BOND
M  V30 1 1 1 2
M  V30 2 2 2 3
M  V30 3 1 3 4
M  V30 4 2 4 5
M  V30 5 1 5 6
M  V30 6 1 6 7
M  V30 7 2 7 8
M  V30 8 1 8 9
M  V30 9 2 9 10
M  V30 10 1 10 11
M  V30 11 1 11 12
M  V30 12 2 12 13
M  V30 13 1 13 14
M  V30 14 2 14 15
M  V30 15 1 5 16
M  V30 16 2 16 17
M  V30 17 1 17 18
M  V30 18 1 18 19
M  V30 19 1 19 20
M  V30 20 1 20 21
M  V30 21 1 21 22
M  V30 22 2 22 23
M  V30 23 1 23 24
M  V30 24 2 24 25
M  V30 25 1 25 26
M  V30 26 2 26 27
M  V30 27 1 17 2
M  V30 28 1 27 19
M  V30 29 1 15 7
M  V30 30 1 27 22
M  V30 31 1 14 10
M  V30 32 1 3 28
M  V30 33 1 6 29
M  V30 34 1 8 30
M  V30 35 1 9 31
M  V30 36 1 11 32
M  V30 37 1 12 33
M  V30 38 1 15 34
M  V30 39 1 18 35
M  V30 40 1 19 36
M  V30 41 1 20 37
M  V30 42 1 20 38
M  V30 43 1 21 39
M  V30 44 1 21 40
M  V30 45 1 23 41
M  V30 46 1 24 42
M  V30 47 1 25 43
M  V30 48 1 26 44
M  V30 END BOND
M  V30 END CTAB
M  END
>  <Dataset>  (900) 
ChEMBL_Kinases

>  <Ligand_Instance>  (900) 
nan

>  <PDB_ID>  (900) 
nan

>  <Standardized_SMILES>  (900) 
Brc1cnc(Nc2ccc3[nH]cnc3c2)nc1NC1CCc2ccccc21

>  <Name>  (900) 
nan

>  <Pocket>  (900) 
nan

>  <ATP_Site>  (900) 
nan

>  <Peripheral>  (900) 
nan

>  <Num_H_Atoms_ProtBoundConf>  (900) 
nan

>  <Num_Resolved_Atoms>  (900) 
nan

>  <Num_Not_Resolved_Atoms>  (900) 
nan

$$$$
CHEMBL3729433
     RDKit          3D

  0  0  0  0  0  0  0  0  0  0999 V3000
M  V30 BEGIN CTAB
M  V30 COUNTS 62 66 0 0 0
M  V30 BEGIN ATOM
M  V30 1 C 2.424467 3.955627 2.600869 0
M  V30 2 O 2.301143 2.757948 1.856401 0
M  V30 3 C 3.154570 1.713797 2.100965 0
M  V30 4 C 4.191416 1.635745 3.024108 0
M  V30 5 C 4.949517 0.498216 3.130930 0
M  V30 6 C 4.689466 -0.598368 2.312478 0
M  V30 7 C 3.665721 -0.543952 1.389088 0
M  V30 8 Cl 3.402217 -1.964068 0.397297 0
M  V30 9 C 2.891772 0.615360 1.278985 0
M  V30 10 C 1.837592 0.565608 0.272512 0
M  V30 11 C 2.227177 0.994656 -0.964531 0
M  V30 12 C 3.417515 1.496734 -1.575009 0
M  V30 13 S 0.645658 0.798702 -1.999075 0
M  V30 14 C -0.321996 0.155540 -0.581873 0
M  V30 15 C -1.638860 -0.235735 -0.549456 0
M  V30 16 N -2.412589 -0.155702 -1.725649 0
M  V30 17 C -3.792045 -0.563040 -1.713451 0
M  V30 18 C -4.065847 -1.960025 -1.289521 0 CFG=1
M  V30 19 N -5.527833 -2.142352 -1.349562 0
M  V30 20 C -3.474936 -3.042887 -2.141536 0
M  V30 21 C -2.001938 -3.014561 -2.224039 0
M  V30 22 C -1.153280 -2.430575 -3.124268 0
M  V30 23 C 0.211665 -2.524356 -3.016678 0
M  V30 24 C 0.829861 -3.212785 -1.995322 0
M  V30 25 C 0.021321 -3.811465 -1.073950 0
M  V30 26 C -1.345156 -3.707783 -1.196410 0
M  V30 27 N -2.137723 -0.678235 0.615859 0
M  V30 28 C -1.279954 -0.696795 1.666078 0
M  V30 29 C -1.717594 -1.164947 3.001673 0
M  V30 30 C -3.019629 -1.572404 3.113971 0
M  V30 31 C -3.485317 -2.019233 4.334018 0
M  V30 32 N -2.678051 -2.059947 5.413870 0
M  V30 33 C -1.392703 -1.662742 5.322719 0
M  V30 34 C -0.918823 -1.216948 4.116070 0
M  V30 35 N -0.002062 -0.311277 1.611799 0
M  V30 36 C 0.577190 0.143981 0.488110 0
M  V30 37 H 2.351097 3.660403 3.673354 0
M  V30 38 H 3.454112 4.408223 2.517677 0
M  V30 39 H 1.660107 4.688231 2.298480 0
M  V30 40 H 4.283285 2.555719 3.593296 0
M  V30 41 H 5.731304 0.552470 3.886459 0
M  V30 42 H 5.352765 -1.426405 2.493885 0
M  V30 43 H 3.182272 2.049252 -2.516619 0
M  V30 44 H 4.130529 0.695076 -1.858191 0
M  V30 45 H 3.945024 2.155382 -0.856491 0
M  V30 46 H -1.972895 0.221185 -2.615258 0
M  V30 47 H -4.429664 0.178838 -1.146013 0
M  V30 48 H -4.173690 -0.459778 -2.769287 0
M  V30 49 H -3.735432 -2.175007 -0.238729 0
M  V30 50 H -5.964755 -1.588294 -0.576719 0
M  V30 51 H -5.758499 -3.165669 -1.310532 0
M  V30 52 H -3.796840 -4.027122 -1.716382 0
M  V30 53 H -3.933778 -3.016302 -3.181268 0
M  V30 54 H -1.691228 -1.900347 -3.909376 0
M  V30 55 H 0.783207 -2.016579 -3.795336 0
M  V30 56 H 1.902814 -3.219557 -2.011561 0
M  V30 57 H 0.484074 -4.356504 -0.264665 0
M  V30 58 H -1.905914 -4.225128 -0.403607 0
M  V30 59 H -3.686582 -1.552394 2.275196 0
M  V30 60 H -4.509855 -2.343028 4.434829 0
M  V30 61 H -0.684157 -1.667231 6.148102 0
M  V30 62 H 0.109587 -0.889406 4.004995 0
M  V30 END ATOM
M  V30 BEGIN BOND
M  V30 1 1 1 2
M  V30 2 1 2 3
M  V30 3 2 3 4
M  V30 4 1 4 5
M  V30 5 2 5 6
M  V30 6 1 6 7
M  V30 7 1 7 8
M  V30 8 2 7 9
M  V30 9 1 9 10
M  V30 10 2 10 11
M  V30 11 1 11 12
M  V30 12 1 11 13
M  V30 13 1 13 14
M  V30 14 2 14 15
M  V30 15 1 15 16
M  V30 16 1 16 17
M  V30 17 1 17 18
M  V30 18 1 18 19
M  V30 19 1 18 20
M  V30 20 1 20 21
M  V30 21 2 21 22
M  V30 22 1 22 23
M  V30 23 2 23 24
M  V30 24 1 24 25
M  V30 25 2 25 26
M  V30 26 1 15 27
M  V30 27 2 27 28
M  V30 28 1 28 29
M  V30 29 2 29 30
M  V30 30 1 30 31
M  V30 31 2 31 32
M  V30 32 1 32 33
M  V30 33 2 33 34
M  V30 34 1 28 35
M  V30 35 2 35 36
M  V30 36 1 9 3
M  V30 37 1 36 10
M  V30 38 1 36 14
M  V30 39 1 26 21
M  V30 40 1 34 29
M  V30 41 1 1 37
M  V30 42 1 1 38
M  V30 43 1 1 39
M  V30 44 1 4 40
M  V30 45 1 5 41
M  V30 46 1 6 42
M  V30 47 1 12 43
M  V30 48 1 12 44
M  V30 49 1 12 45
M  V30 50 1 16 46
M  V30 51 1 17 47
M  V30 52 1 17 48
M  V30 53 1 18 49 CFG=1
M  V30 54 1 19 50
M  V30 55 1 19 51
M  V30 56 1 20 52
M  V30 57 1 20 53
M  V30 58 1 22 54
M  V30 59 1 23 55
M  V30 60 1 24 56
M  V30 61 1 25 57
M  V30 62 1 26 58
M  V30 63 1 30 59
M  V30 64 1 31 60
M  V30 65 1 33 61
M  V30 66 1 34 62
M  V30 END BOND
M  V30 END CTAB
M  END
>  <Dataset>  (901) 
ChEMBL_Kinases

>  <Ligand_Instance>  (901) 
nan

>  <PDB_ID>  (901) 
nan

>  <Standardized_SMILES>  (901) 
COc1cccc(Cl)c1-c1c(C)sc2c(NC[C@@H](N)Cc3ccccc3)nc(-c3ccncc3)nc12

>  <Name>  (901) 
nan

>  <Pocket>  (901) 
nan

>  <ATP_Site>  (901) 
nan

>  <Peripheral>  (901) 
nan

>  <Num_H_Atoms_ProtBoundConf>  (901) 
nan

>  <Num_Resolved_Atoms>  (901) 
nan

>  <Num_Not_Resolved_Atoms>  (901) 
nan

$$$$
CHEMBL3729422
     RDKit          3D

  0  0  0  0  0  0  0  0  0  0999 V3000
M  V30 BEGIN CTAB
M  V30 COUNTS 52 56 0 0 0
M  V30 BEGIN ATOM
M  V30 1 C -0.495641 -3.172607 4.513148 0
M  V30 2 C 0.585087 -2.402612 4.140865 0
M  V30 3 C 0.491208 -1.771792 2.918685 0
M  V30 4 C 1.610460 -0.925526 2.444922 0
M  V30 5 N 1.458368 -0.325523 1.223068 0
M  V30 6 C 2.505654 0.435103 0.835772 0
M  V30 7 N 2.538593 1.128410 -0.380656 0
M  V30 8 C 1.360945 0.955261 -1.172363 0 CFG=2
M  V30 9 C 1.485626 1.744308 -2.475338 0
M  V30 10 C 1.271312 3.161966 -1.977222 0
M  V30 11 N 0.540685 3.067870 -0.745457 0
M  V30 12 C 0.154719 1.680031 -0.563307 0
M  V30 13 C 3.601478 0.547960 1.659256 0
M  V30 14 S 5.079175 1.454674 1.412277 0
M  V30 15 C 5.829919 0.924639 3.069021 0
M  V30 16 C 4.840346 0.087522 3.648030 0
M  V30 17 C 3.752661 -0.045479 2.868449 0
M  V30 18 N 2.691277 -0.793955 3.220680 0
M  V30 19 C -0.612067 -1.894561 2.106100 0
M  V30 20 C -1.670424 -2.668799 2.506032 0
M  V30 21 N -2.845214 -2.869538 1.740306 0
M  V30 22 C -3.120930 -2.351935 0.434867 0
M  V30 23 C -4.563516 -2.641800 0.031776 0
M  V30 24 C -4.763327 -2.198234 -1.407850 0
M  V30 25 O -3.829747 -2.737961 -2.272945 0
M  V30 26 C -2.508277 -2.396016 -1.912977 0
M  V30 27 C -2.260861 -3.099810 -0.597319 0
M  V30 28 N -1.538939 -3.264236 3.700278 0
M  V30 29 H -0.526829 -3.713179 5.456268 0
M  V30 30 H 1.445320 -2.312010 4.783640 0
M  V30 31 H 3.330581 1.717773 -0.699019 0
M  V30 32 H 1.147988 -0.095519 -1.396353 0
M  V30 33 H 2.450168 1.596399 -2.974667 0
M  V30 34 H 0.597096 1.508657 -3.106019 0
M  V30 35 H 0.672531 3.771679 -2.685290 0
M  V30 36 H 2.266351 3.640955 -1.788399 0
M  V30 37 H 1.118568 3.418992 0.041737 0
M  V30 38 H -0.694316 1.495043 -1.245156 0
M  V30 39 H -0.011586 1.415739 0.481523 0
M  V30 40 H 6.880620 1.149659 3.648398 0
M  V30 41 H 5.069869 -0.329472 4.613185 0
M  V30 42 H -0.656429 -1.380273 1.159441 0
M  V30 43 H -3.602062 -3.462874 2.170756 0
M  V30 44 H -2.967658 -1.264613 0.315594 0
M  V30 45 H -5.201663 -1.995987 0.669030 0
M  V30 46 H -4.844903 -3.688918 0.203868 0
M  V30 47 H -5.746305 -2.596861 -1.720390 0
M  V30 48 H -4.781282 -1.085517 -1.416446 0
M  V30 49 H -1.851906 -2.770632 -2.716352 0
M  V30 50 H -2.428666 -1.305008 -1.772873 0
M  V30 51 H -1.215562 -3.105094 -0.325847 0
M  V30 52 H -2.674155 -4.132845 -0.681039 0
M  V30 END ATOM
M  V30 BEGIN BOND
M  V30 1 2 1 2
M  V30 2 1 2 3
M  V30 3 1 3 4
M  V30 4 2 4 5
M  V30 5 1 5 6
M  V30 6 1 6 7
M  V30 7 1 7 8
M  V30 8 1 8 9
M  V30 9 1 9 10
M  V30 10 1 10 11
M  V30 11 1 11 12
M  V30 12 2 6 13
M  V30 13 1 13 14
M  V30 14 1 14 15
M  V30 15 2 15 16
M  V30 16 1 16 17
M  V30 17 2 17 18
M  V30 18 2 3 19
M  V30 19 1 19 20
M  V30 20 1 20 21
M  V30 21 1 21 22
M  V30 22 1 22 23
M  V30 23 1 23 24
M  V30 24 1 24 25
M  V30 25 1 25 26
M  V30 26 1 26 27
M  V30 27 2 20 28
M  V30 28 1 28 1
M  V30 29 1 18 4
M  V30 30 1 27 22
M  V30 31 1 12 8
M  V30 32 1 17 13
M  V30 33 1 1 29
M  V30 34 1 2 30
M  V30 35 1 7 31
M  V30 36 1 8 32 CFG=3
M  V30 37 1 9 33
M  V30 38 1 9 34
M  V30 39 1 10 35
M  V30 40 1 10 36
M  V30 41 1 11 37
M  V30 42 1 12 38
M  V30 43 1 12 39
M  V30 44 1 15 40
M  V30 45 1 16 41
M  V30 46 1 19 42
M  V30 47 1 21 43
M  V30 48 1 22 44
M  V30 49 1 23 45
M  V30 50 1 23 46
M  V30 51 1 24 47
M  V30 52 1 24 48
M  V30 53 1 26 49
M  V30 54 1 26 50
M  V30 55 1 27 51
M  V30 56 1 27 52
M  V30 END BOND
M  V30 END CTAB
M  END
>  <Dataset>  (902) 
ChEMBL_Kinases

>  <Ligand_Instance>  (902) 
nan

>  <PDB_ID>  (902) 
nan

>  <Standardized_SMILES>  (902) 
c1cc(-c2nc(N[C@@H]3CCNC3)c3sccc3n2)cc(NC2CCOCC2)n1

>  <Name>  (902) 
nan

>  <Pocket>  (902) 
nan

>  <ATP_Site>  (902) 
nan

>  <Peripheral>  (902) 
nan

>  <Num_H_Atoms_ProtBoundConf>  (902) 
nan

>  <Num_Resolved_Atoms>  (902) 
nan

>  <Num_Not_Resolved_Atoms>  (902) 
nan

$$$$
CHEMBL370516
     RDKit          3D

  0  0  0  0  0  0  0  0  0  0999 V3000
M  V30 BEGIN CTAB
M  V30 COUNTS 48 51 0 0 0
M  V30 BEGIN ATOM
M  V30 1 C -2.066388 -4.272366 4.770840 0
M  V30 2 O -0.673133 -4.350760 4.643439 0
M  V30 3 C 0.111639 -3.513957 3.878205 0
M  V30 4 C -0.432990 -2.479505 3.126011 0
M  V30 5 C 0.456272 -1.717869 2.413648 0
M  V30 6 C 1.845504 -1.965062 2.439549 0
M  V30 7 C 2.539138 -0.960366 1.565113 0
M  V30 8 C 2.804501 0.302799 2.363481 0
M  V30 9 N 3.469427 1.300300 1.571744 0
M  V30 10 C 2.920097 1.534048 0.268365 0
M  V30 11 N 3.975229 1.423400 -0.574650 0
M  V30 12 C 3.800831 1.572777 -1.911970 0
M  V30 13 C 2.515812 1.838198 -2.343696 0
M  V30 14 C 1.438327 1.946780 -1.443795 0
M  V30 15 C 0.223203 2.242778 -2.178521 0
M  V30 16 C 0.236565 3.229807 -3.243885 0
M  V30 17 N 0.254409 4.019711 -4.078848 0
M  V30 18 C -0.914543 1.640581 -1.906722 0
M  V30 19 N -1.217627 0.653218 -0.926769 0
M  V30 20 C -2.534128 0.158711 -0.951748 0
M  V30 21 C -3.057636 -0.806279 -0.124381 0
M  V30 22 C -4.376445 -1.221654 -0.270361 0
M  V30 23 C -5.205215 -0.668157 -1.259512 0
M  V30 24 C -4.686512 0.306932 -2.097510 0
M  V30 25 C -3.378338 0.680666 -1.911520 0
M  V30 26 S -2.443562 1.916268 -2.797220 0
M  V30 27 N 1.661239 1.791225 -0.134149 0
M  V30 28 C 2.362381 -2.991725 3.187820 0
M  V30 29 C 1.466947 -3.765017 3.909521 0
M  V30 30 H -2.287467 -4.483838 5.854344 0
M  V30 31 H -2.503196 -3.269806 4.557828 0
M  V30 32 H -2.524604 -5.046340 4.121446 0
M  V30 33 H -1.500788 -2.301713 3.109251 0
M  V30 34 H -0.032763 -0.912460 1.841509 0
M  V30 35 H 3.502154 -1.412037 1.280854 0
M  V30 36 H 1.983737 -0.767358 0.632375 0
M  V30 37 H 1.938255 0.733486 2.846569 0
M  V30 38 H 3.533022 0.019271 3.183268 0
M  V30 39 H 4.299392 1.814215 1.956534 0
M  V30 40 H 4.637051 1.481004 -2.634818 0
M  V30 41 H 2.446645 1.949062 -3.438067 0
M  V30 42 H -0.443829 0.384872 -0.280737 0
M  V30 43 H -2.485891 -1.288976 0.679887 0
M  V30 44 H -4.739195 -1.995705 0.410125 0
M  V30 45 H -6.245581 -1.037760 -1.334925 0
M  V30 46 H -5.285033 0.744167 -2.857233 0
M  V30 47 H 3.428318 -3.063514 3.107846 0
M  V30 48 H 1.928793 -4.559264 4.476190 0
M  V30 END ATOM
M  V30 BEGIN BOND
M  V30 1 1 1 2
M  V30 2 1 2 3
M  V30 3 2 3 4
M  V30 4 1 4 5
M  V30 5 2 5 6
M  V30 6 1 6 7
M  V30 7 1 7 8
M  V30 8 1 8 9
M  V30 9 1 9 10
M  V30 10 2 10 11
M  V30 11 1 11 12
M  V30 12 2 12 13
M  V30 13 1 13 14
M  V30 14 1 14 15
M  V30 15 1 15 16
M  V30 16 3 16 17
M  V30 17 2 15 18
M  V30 18 1 18 19
M  V30 19 1 19 20
M  V30 20 2 20 21
M  V30 21 1 21 22
M  V30 22 2 22 23
M  V30 23 1 23 24
M  V30 24 2 24 25
M  V30 25 1 25 26
M  V30 26 2 14 27
M  V30 27 1 6 28
M  V30 28 2 28 29
M  V30 29 1 29 3
M  V30 30 1 27 10
M  V30 31 1 26 18
M  V30 32 1 25 20
M  V30 33 1 1 30
M  V30 34 1 1 31
M  V30 35 1 1 32
M  V30 36 1 4 33
M  V30 37 1 5 34
M  V30 38 1 7 35
M  V30 39 1 7 36
M  V30 40 1 8 37
M  V30 41 1 8 38
M  V30 42 1 9 39
M  V30 43 1 12 40
M  V30 44 1 13 41
M  V30 45 1 19 42
M  V30 46 1 21 43
M  V30 47 1 22 44
M  V30 48 1 23 45
M  V30 49 1 24 46
M  V30 50 1 28 47
M  V30 51 1 29 48
M  V30 END BOND
M  V30 END CTAB
M  END
>  <Dataset>  (903) 
ChEMBL_Kinases

>  <Ligand_Instance>  (903) 
nan

>  <PDB_ID>  (903) 
nan

>  <Standardized_SMILES>  (903) 
COc1ccc(CCNc2nccc(/C(C#N)=C3\Nc4ccccc4S3)n2)cc1

>  <Name>  (903) 
nan

>  <Pocket>  (903) 
nan

>  <ATP_Site>  (903) 
nan

>  <Peripheral>  (903) 
nan

>  <Num_H_Atoms_ProtBoundConf>  (903) 
nan

>  <Num_Resolved_Atoms>  (903) 
nan

>  <Num_Not_Resolved_Atoms>  (903) 
nan

$$$$
CHEMBL3729491
     RDKit          3D

  0  0  0  0  0  0  0  0  0  0999 V3000
M  V30 BEGIN CTAB
M  V30 COUNTS 54 58 0 0 0
M  V30 BEGIN ATOM
M  V30 1 C 1.411664 -7.260265 4.069147 0
M  V30 2 C 1.566119 -5.793180 4.257610 0
M  V30 3 C 1.378702 -4.740213 3.385111 0
M  V30 4 C 1.654390 -3.566107 4.049724 0
M  V30 5 C 1.577727 -2.228601 3.486465 0
M  V30 6 C 1.907091 -1.187772 4.361704 0
M  V30 7 S 1.696503 0.366801 3.296521 0
M  V30 8 C 1.218246 -0.548463 1.889862 0
M  V30 9 C 0.875009 -0.080926 0.624243 0
M  V30 10 N 0.903576 1.318232 0.402003 0
M  V30 11 C 0.543551 1.773500 -0.917563 0
M  V30 12 C 0.608143 3.280051 -1.043295 0 CFG=1
M  V30 13 N 0.241681 3.709272 -2.379589 0
M  V30 14 C -0.284142 3.973039 -0.056725 0
M  V30 15 C -1.711708 3.601084 -0.220693 0
M  V30 16 C -2.342578 2.540257 0.422065 0
M  V30 17 C -3.676196 2.276440 0.202146 0
M  V30 18 C -4.430623 3.043128 -0.653019 0
M  V30 19 C -3.870204 4.116944 -1.328878 0
M  V30 20 C -2.525409 4.331224 -1.065829 0
M  V30 21 N 0.524998 -0.967618 -0.355838 0
M  V30 22 C 0.545014 -2.286148 0.012048 0
M  V30 23 C 0.173797 -3.241710 -1.024121 0
M  V30 24 C 0.125073 -4.609878 -0.877002 0
M  V30 25 C -0.232741 -5.477027 -1.888167 0
M  V30 26 N -0.550270 -4.960521 -3.078478 0
M  V30 27 C -0.517859 -3.644914 -3.268708 0
M  V30 28 C -0.163035 -2.760643 -2.271541 0
M  V30 29 N 0.880126 -2.703518 1.238790 0
M  V30 30 C 1.228961 -1.857183 2.224089 0
M  V30 31 N 1.995682 -3.938925 5.287543 0
M  V30 32 O 1.935717 -5.256062 5.384277 0
M  V30 33 H 2.332320 -7.801426 4.319036 0
M  V30 34 H 0.514841 -7.659708 4.611746 0
M  V30 35 H 1.160814 -7.449695 2.986257 0
M  V30 36 H 1.067279 -4.910266 2.371522 0
M  V30 37 H 2.221064 -1.138993 5.410814 0
M  V30 38 H 1.168898 1.992589 1.144411 0
M  V30 39 H 1.087861 1.263051 -1.717460 0
M  V30 40 H -0.535818 1.505940 -1.074040 0
M  V30 41 H 1.657796 3.575085 -0.838509 0
M  V30 42 H 0.411824 2.905783 -3.022570 0
M  V30 43 H 0.899171 4.469510 -2.665125 0
M  V30 44 H -0.218638 5.064422 -0.238813 0
M  V30 45 H 0.074501 3.815539 0.979238 0
M  V30 46 H -1.736467 1.947446 1.090646 0
M  V30 47 H -4.135328 1.428505 0.730491 0
M  V30 48 H -5.490876 2.830982 -0.825922 0
M  V30 49 H -4.394245 4.763107 -2.013546 0
M  V30 50 H -2.057313 5.170966 -1.584736 0
M  V30 51 H 0.383776 -5.016279 0.089482 0
M  V30 52 H -0.255250 -6.543916 -1.721193 0
M  V30 53 H -0.782285 -3.262749 -4.248974 0
M  V30 54 H -0.169970 -1.693645 -2.537959 0
M  V30 END ATOM
M  V30 BEGIN BOND
M  V30 1 1 1 2
M  V30 2 2 2 3
M  V30 3 1 3 4
M  V30 4 1 4 5
M  V30 5 2 5 6
M  V30 6 1 6 7
M  V30 7 1 7 8
M  V30 8 2 8 9
M  V30 9 1 9 10
M  V30 10 1 10 11
M  V30 11 1 11 12
M  V30 12 1 12 13
M  V30 13 1 12 14
M  V30 14 1 14 15
M  V30 15 2 15 16
M  V30 16 1 16 17
M  V30 17 2 17 18
M  V30 18 1 18 19
M  V30 19 2 19 20
M  V30 20 1 9 21
M  V30 21 2 21 22
M  V30 22 1 22 23
M  V30 23 2 23 24
M  V30 24 1 24 25
M  V30 25 2 25 26
M  V30 26 1 26 27
M  V30 27 2 27 28
M  V30 28 1 22 29
M  V30 29 2 29 30
M  V30 30 2 4 31
M  V30 31 1 31 32
M  V30 32 1 32 2
M  V30 33 1 30 5
M  V30 34 1 30 8
M  V30 35 1 20 15
M  V30 36 1 28 23
M  V30 37 1 1 33
M  V30 38 1 1 34
M  V30 39 1 1 35
M  V30 40 1 3 36
M  V30 41 1 6 37
M  V30 42 1 10 38
M  V30 43 1 11 39
M  V30 44 1 11 40
M  V30 45 1 12 41 CFG=1
M  V30 46 1 13 42
M  V30 47 1 13 43
M  V30 48 1 14 44
M  V30 49 1 14 45
M  V30 50 1 16 46
M  V30 51 1 17 47
M  V30 52 1 18 48
M  V30 53 1 19 49
M  V30 54 1 20 50
M  V30 55 1 24 51
M  V30 56 1 25 52
M  V30 57 1 27 53
M  V30 58 1 28 54
M  V30 END BOND
M  V30 END CTAB
M  END
>  <Dataset>  (904) 
ChEMBL_Kinases

>  <Ligand_Instance>  (904) 
nan

>  <PDB_ID>  (904) 
nan

>  <Standardized_SMILES>  (904) 
Cc1cc(-c2csc3c(NC[C@@H](N)Cc4ccccc4)nc(-c4ccncc4)nc23)no1

>  <Name>  (904) 
nan

>  <Pocket>  (904) 
nan

>  <ATP_Site>  (904) 
nan

>  <Peripheral>  (904) 
nan

>  <Num_H_Atoms_ProtBoundConf>  (904) 
nan

>  <Num_Resolved_Atoms>  (904) 
nan

>  <Num_Not_Resolved_Atoms>  (904) 
nan

$$$$
CHEMBL3729742
     RDKit          3D

  0  0  0  0  0  0  0  0  0  0999 V3000
M  V30 BEGIN CTAB
M  V30 COUNTS 48 52 0 0 0
M  V30 BEGIN ATOM
M  V30 1 O 1.886495 -5.058425 3.013406 0
M  V30 2 C 1.125888 -5.398942 2.040768 0
M  V30 3 N 0.085893 -4.615487 1.518931 0
M  V30 4 C -0.538533 -3.352000 1.713779 0
M  V30 5 C -0.044280 -2.307901 0.947702 0
M  V30 6 C -0.572982 -1.042930 1.067865 0
M  V30 7 C -0.093032 0.090971 0.281679 0
M  V30 8 N -0.659712 1.310687 0.473776 0
M  V30 9 C -0.193979 2.320606 -0.277136 0
M  V30 10 N -0.666469 3.656381 -0.206833 0
M  V30 11 C -1.719286 3.876424 0.762590 0 CFG=2
M  V30 12 C -2.142099 5.323839 0.751360 0
M  V30 13 C -1.046160 5.955883 1.584183 0
M  V30 14 N -0.808042 5.005030 2.653014 0
M  V30 15 C -1.216952 3.710386 2.180506 0
M  V30 16 C 0.813721 2.049813 -1.178461 0
M  V30 17 S 1.671554 3.193686 -2.357014 0
M  V30 18 C 2.782826 1.791295 -3.028817 0
M  V30 19 C 2.388539 0.703942 -2.319917 0
M  V30 20 C 1.400519 0.823630 -1.388196 0
M  V30 21 N 0.887962 -0.140976 -0.604555 0
M  V30 22 C -1.590932 -0.801154 1.943531 0
M  V30 23 C -2.071481 -1.864000 2.701995 0
M  V30 24 N -1.561426 -3.109469 2.593190 0
M  V30 25 C 1.331680 -6.708607 1.396863 0
M  V30 26 C 2.305016 -7.532098 1.881723 0
M  V30 27 N 2.493777 -8.749090 1.291972 0
M  V30 28 C 1.730321 -9.129573 0.248102 0
M  V30 29 C 0.734351 -8.310194 -0.262730 0
M  V30 30 N 0.597074 -7.136711 0.352363 0
M  V30 31 H -0.510536 -4.963147 0.710990 0
M  V30 32 H 0.768637 -2.475575 0.240800 0
M  V30 33 H -0.299841 4.408574 -0.789045 0
M  V30 34 H -2.556491 3.189922 0.543187 0
M  V30 35 H -3.134079 5.456373 1.187272 0
M  V30 36 H -2.065180 5.699026 -0.288497 0
M  V30 37 H -1.416686 6.895655 2.031631 0
M  V30 38 H -0.157308 6.145551 0.970176 0
M  V30 39 H -1.269005 5.289209 3.538174 0
M  V30 40 H -1.945468 3.231768 2.854641 0
M  V30 41 H -0.325824 3.063555 2.153750 0
M  V30 42 H 3.478035 1.997174 -3.771982 0
M  V30 43 H 2.912912 -0.206701 -2.564598 0
M  V30 44 H -2.071708 0.168502 2.105285 0
M  V30 45 H -2.880553 -1.696113 3.403674 0
M  V30 46 H 2.895834 -7.190718 2.719309 0
M  V30 47 H 1.878992 -10.104826 -0.226250 0
M  V30 48 H 0.132045 -8.630457 -1.099430 0
M  V30 END ATOM
M  V30 BEGIN BOND
M  V30 1 2 1 2
M  V30 2 1 2 3
M  V30 3 1 3 4
M  V30 4 2 4 5
M  V30 5 1 5 6
M  V30 6 1 6 7
M  V30 7 2 7 8
M  V30 8 1 8 9
M  V30 9 1 9 10
M  V30 10 1 10 11
M  V30 11 1 11 12
M  V30 12 1 12 13
M  V30 13 1 13 14
M  V30 14 1 14 15
M  V30 15 2 9 16
M  V30 16 1 16 17
M  V30 17 1 17 18
M  V30 18 2 18 19
M  V30 19 1 19 20
M  V30 20 2 20 21
M  V30 21 2 6 22
M  V30 22 1 22 23
M  V30 23 2 23 24
M  V30 24 1 2 25
M  V30 25 2 25 26
M  V30 26 1 26 27
M  V30 27 2 27 28
M  V30 28 1 28 29
M  V30 29 2 29 30
M  V30 30 1 24 4
M  V30 31 1 30 25
M  V30 32 1 21 7
M  V30 33 1 15 11
M  V30 34 1 20 16
M  V30 35 1 3 31
M  V30 36 1 5 32
M  V30 37 1 10 33
M  V30 38 1 11 34 CFG=3
M  V30 39 1 12 35
M  V30 40 1 12 36
M  V30 41 1 13 37
M  V30 42 1 13 38
M  V30 43 1 14 39
M  V30 44 1 15 40
M  V30 45 1 15 41
M  V30 46 1 18 42
M  V30 47 1 19 43
M  V30 48 1 22 44
M  V30 49 1 23 45
M  V30 50 1 26 46
M  V30 51 1 28 47
M  V30 52 1 29 48
M  V30 END BOND
M  V30 END CTAB
M  END
>  <Dataset>  (905) 
ChEMBL_Kinases

>  <Ligand_Instance>  (905) 
nan

>  <PDB_ID>  (905) 
nan

>  <Standardized_SMILES>  (905) 
O=C(Nc1cc(-c2nc(N[C@@H]3CCNC3)c3sccc3n2)ccn1)c1cnccn1

>  <Name>  (905) 
nan

>  <Pocket>  (905) 
nan

>  <ATP_Site>  (905) 
nan

>  <Peripheral>  (905) 
nan

>  <Num_H_Atoms_ProtBoundConf>  (905) 
nan

>  <Num_Resolved_Atoms>  (905) 
nan

>  <Num_Not_Resolved_Atoms>  (905) 
nan

$$$$
CHEMBL3729734
     RDKit          3D

  0  0  0  0  0  0  0  0  0  0999 V3000
M  V30 BEGIN CTAB
M  V30 COUNTS 51 55 0 0 0
M  V30 BEGIN ATOM
M  V30 1 N -2.029283 -3.366792 -0.061068 0
M  V30 2 C -0.630900 -3.518855 0.245761 0 CFG=2
M  V30 3 C 0.024051 -2.152355 0.001162 0
M  V30 4 O -0.568154 -1.179735 0.839292 0
M  V30 5 C -0.182280 0.153081 0.843318 0
M  V30 6 N 0.801560 0.500854 0.000157 0
M  V30 7 C 1.313929 1.723369 -0.147561 0
M  V30 8 C 2.381679 2.079182 -1.068626 0
M  V30 9 C 2.953810 1.124902 -1.882849 0
M  V30 10 C 3.969523 1.449589 -2.762922 0
M  V30 11 N 4.413633 2.716722 -2.832661 0
M  V30 12 C 3.856774 3.647323 -2.039704 0
M  V30 13 C 2.840658 3.382541 -1.142420 0
M  V30 14 N 0.761400 2.658064 0.642150 0
M  V30 15 C -0.259486 2.345241 1.530503 0
M  V30 16 S -1.147087 3.309715 2.648732 0
M  V30 17 C -2.185747 1.981543 3.269806 0
M  V30 18 C -1.750097 0.898604 2.550577 0
M  V30 19 C -0.754621 1.114675 1.659497 0
M  V30 20 C -2.537967 -0.298396 2.972591 0
M  V30 21 C -3.995450 0.088160 2.699743 0
M  V30 22 C -4.458231 1.090867 3.736174 0
M  V30 23 C -3.299546 1.881820 4.302023 0
M  V30 24 C 0.028066 -4.589042 -0.560569 0
M  V30 25 C 1.460345 -4.777906 -0.278203 0
M  V30 26 C 2.482111 -4.100410 -0.945103 0
M  V30 27 N 3.697510 -4.462606 -0.488949 0
M  V30 28 C 3.421615 -5.374426 0.470783 0
M  V30 29 N 2.099473 -5.574495 0.610011 0
M  V30 30 H -2.530363 -2.990727 0.764816 0
M  V30 31 H -2.469793 -4.160076 -0.543205 0
M  V30 32 H -0.573317 -3.776588 1.322911 0
M  V30 33 H 1.094079 -2.282684 0.262348 0
M  V30 34 H -0.016497 -1.881248 -1.052039 0
M  V30 35 H 2.559667 0.122108 -1.786856 0
M  V30 36 H 4.391230 0.670699 -3.384187 0
M  V30 37 H 4.176450 4.680063 -2.056052 0
M  V30 38 H 2.411595 4.159806 -0.514623 0
M  V30 39 H -2.316130 -1.199998 2.390683 0
M  V30 40 H -2.389414 -0.464841 4.065159 0
M  V30 41 H -4.586317 -0.836295 2.683938 0
M  V30 42 H -3.984826 0.605657 1.718630 0
M  V30 43 H -5.254235 1.729175 3.301573 0
M  V30 44 H -4.909375 0.520986 4.567546 0
M  V30 45 H -2.939932 1.521829 5.264762 0
M  V30 46 H -3.706283 2.913561 4.461865 0
M  V30 47 H -0.116960 -4.314775 -1.636198 0
M  V30 48 H -0.476966 -5.545049 -0.415060 0
M  V30 49 H 2.348110 -3.360113 -1.744546 0
M  V30 50 H 4.624146 -4.118004 -0.805131 0
M  V30 51 H 4.205543 -5.871429 1.046680 0
M  V30 END ATOM
M  V30 BEGIN BOND
M  V30 1 1 1 2
M  V30 2 1 2 3
M  V30 3 1 3 4
M  V30 4 1 4 5
M  V30 5 2 5 6
M  V30 6 1 6 7
M  V30 7 1 7 8
M  V30 8 2 8 9
M  V30 9 1 9 10
M  V30 10 2 10 11
M  V30 11 1 11 12
M  V30 12 2 12 13
M  V30 13 2 7 14
M  V30 14 1 14 15
M  V30 15 1 15 16
M  V30 16 1 16 17
M  V30 17 2 17 18
M  V30 18 1 18 19
M  V30 19 1 18 20
M  V30 20 1 20 21
M  V30 21 1 21 22
M  V30 22 1 22 23
M  V30 23 1 2 24
M  V30 24 1 24 25
M  V30 25 2 25 26
M  V30 26 1 26 27
M  V30 27 1 27 28
M  V30 28 2 28 29
M  V30 29 1 19 5
M  V30 30 1 29 25
M  V30 31 1 13 8
M  V30 32 2 19 15
M  V30 33 1 23 17
M  V30 34 1 1 30
M  V30 35 1 1 31
M  V30 36 1 2 32 CFG=1
M  V30 37 1 3 33
M  V30 38 1 3 34
M  V30 39 1 9 35
M  V30 40 1 10 36
M  V30 41 1 12 37
M  V30 42 1 13 38
M  V30 43 1 20 39
M  V30 44 1 20 40
M  V30 45 1 21 41
M  V30 46 1 21 42
M  V30 47 1 22 43
M  V30 48 1 22 44
M  V30 49 1 23 45
M  V30 50 1 23 46
M  V30 51 1 24 47
M  V30 52 1 24 48
M  V30 53 1 26 49
M  V30 54 1 27 50
M  V30 55 1 28 51
M  V30 END BOND
M  V30 END CTAB
M  END
>  <Dataset>  (906) 
ChEMBL_Kinases

>  <Ligand_Instance>  (906) 
nan

>  <PDB_ID>  (906) 
nan

>  <Standardized_SMILES>  (906) 
N[C@H](COc1nc(-c2ccncc2)nc2sc3c(c12)CCCC3)Cc1c[nH]cn1

>  <Name>  (906) 
nan

>  <Pocket>  (906) 
nan

>  <ATP_Site>  (906) 
nan

>  <Peripheral>  (906) 
nan

>  <Num_H_Atoms_ProtBoundConf>  (906) 
nan

>  <Num_Resolved_Atoms>  (906) 
nan

>  <Num_Not_Resolved_Atoms>  (906) 
nan

$$$$
CHEMBL3729728
     RDKit          3D

  0  0  0  0  0  0  0  0  0  0999 V3000
M  V30 BEGIN CTAB
M  V30 COUNTS 61 64 0 0 0
M  V30 BEGIN ATOM
M  V30 1 C 4.921496 -1.404077 3.772677 0
M  V30 2 C 4.959532 -1.736431 2.287929 0
M  V30 3 C 6.195424 -1.132342 1.652019 0
M  V30 4 C 5.056976 -3.242238 2.187644 0
M  V30 5 C 3.725761 -1.209877 1.689472 0
M  V30 6 C 3.544906 -0.298032 0.776173 0
M  V30 7 C 2.253024 0.130358 0.271300 0
M  V30 8 C 2.301938 1.113666 -0.699450 0
M  V30 9 S 0.470702 1.394178 -1.090507 0
M  V30 10 C -0.075348 0.209786 0.048640 0
M  V30 11 C -1.378749 -0.160346 0.334802 0
M  V30 12 N -2.443716 0.472700 -0.357621 0
M  V30 13 C -3.773644 0.069179 -0.040302 0
M  V30 14 C -4.840900 0.742549 -0.821248 0 CFG=1
M  V30 15 N -4.871837 2.185252 -0.682504 0
M  V30 16 C -5.001408 0.288620 -2.239919 0
M  V30 17 C -3.831180 0.452138 -3.098719 0
M  V30 18 C -2.864462 -0.548552 -3.260502 0
M  V30 19 C -1.771784 -0.335644 -4.091379 0
M  V30 20 C -1.660385 0.875656 -4.749667 0
M  V30 21 C -2.616215 1.862239 -4.588348 0
M  V30 22 C -3.712370 1.660720 -3.760647 0
M  V30 23 N -1.611415 -1.125597 1.276454 0
M  V30 24 C -0.490648 -1.646713 1.861771 0
M  V30 25 C -0.703745 -2.676707 2.869298 0
M  V30 26 C 0.294465 -3.319022 3.567856 0
M  V30 27 C 0.050660 -4.290586 4.515870 0
M  V30 28 N -1.220179 -4.646278 4.789785 0
M  V30 29 C -2.210658 -4.031734 4.119234 0
M  V30 30 C -2.003006 -3.041581 3.150541 0
M  V30 31 N 0.747914 -1.257841 1.553092 0
M  V30 32 C 1.018791 -0.316402 0.637364 0
M  V30 33 H 5.591924 -0.524020 3.915031 0
M  V30 34 H 5.229736 -2.264526 4.394912 0
M  V30 35 H 3.913398 -1.062225 4.086198 0
M  V30 36 H 7.095962 -1.646030 2.077478 0
M  V30 37 H 6.170831 -1.372707 0.568179 0
M  V30 38 H 6.237191 -0.031632 1.831401 0
M  V30 39 H 4.164323 -3.622561 2.766687 0
M  V30 40 H 4.956615 -3.638919 1.175268 0
M  V30 41 H 5.929916 -3.614108 2.760617 0
M  V30 42 H 2.919450 -1.739761 2.162701 0
M  V30 43 H 4.496126 0.083800 0.457882 0
M  V30 44 H 3.093047 1.653662 -1.185206 0
M  V30 45 H -2.265197 1.207857 -1.067939 0
M  V30 46 H -3.850270 -1.008052 -0.199488 0
M  V30 47 H -3.980011 0.242058 1.035564 0
M  V30 48 H -5.812645 0.416180 -0.315131 0
M  V30 49 H -5.203548 2.488348 0.259212 0
M  V30 50 H -5.313025 2.660333 -1.474205 0
M  V30 51 H -5.874030 0.866390 -2.667611 0
M  V30 52 H -5.356238 -0.775085 -2.298289 0
M  V30 53 H -2.985380 -1.485038 -2.728416 0
M  V30 54 H -1.038112 -1.122717 -4.200800 0
M  V30 55 H -0.817945 1.068725 -5.404351 0
M  V30 56 H -2.475741 2.805432 -5.136741 0
M  V30 57 H -4.410721 2.481842 -3.691298 0
M  V30 58 H 1.311704 -3.047761 3.361971 0
M  V30 59 H 0.901487 -4.759349 5.033247 0
M  V30 60 H -3.224933 -4.329230 4.351308 0
M  V30 61 H -2.891668 -2.628561 2.686143 0
M  V30 END ATOM
M  V30 BEGIN BOND
M  V30 1 1 1 2
M  V30 2 1 2 3
M  V30 3 1 2 4
M  V30 4 1 2 5
M  V30 5 2 5 6
M  V30 6 1 6 7
M  V30 7 2 7 8
M  V30 8 1 8 9
M  V30 9 1 9 10
M  V30 10 2 10 11
M  V30 11 1 11 12
M  V30 12 1 12 13
M  V30 13 1 13 14
M  V30 14 1 14 15
M  V30 15 1 14 16
M  V30 16 1 16 17
M  V30 17 2 17 18
M  V30 18 1 18 19
M  V30 19 2 19 20
M  V30 20 1 20 21
M  V30 21 2 21 22
M  V30 22 1 11 23
M  V30 23 2 23 24
M  V30 24 1 24 25
M  V30 25 2 25 26
M  V30 26 1 26 27
M  V30 27 2 27 28
M  V30 28 1 28 29
M  V30 29 2 29 30
M  V30 30 1 24 31
M  V30 31 2 31 32
M  V30 32 1 32 7
M  V30 33 1 32 10
M  V30 34 1 22 17
M  V30 35 1 30 25
M  V30 36 1 1 33
M  V30 37 1 1 34
M  V30 38 1 1 35
M  V30 39 1 3 36
M  V30 40 1 3 37
M  V30 41 1 3 38
M  V30 42 1 4 39
M  V30 43 1 4 40
M  V30 44 1 4 41
M  V30 45 1 5 42
M  V30 46 1 6 43
M  V30 47 1 8 44
M  V30 48 1 12 45
M  V30 49 1 13 46
M  V30 50 1 13 47
M  V30 51 1 14 48 CFG=1
M  V30 52 1 15 49
M  V30 53 1 15 50
M  V30 54 1 16 51
M  V30 55 1 16 52
M  V30 56 1 18 53
M  V30 57 1 19 54
M  V30 58 1 20 55
M  V30 59 1 21 56
M  V30 60 1 22 57
M  V30 61 1 26 58
M  V30 62 1 27 59
M  V30 63 1 29 60
M  V30 64 1 30 61
M  V30 END BOND
M  V30 END CTAB
M  END
>  <Dataset>  (907) 
ChEMBL_Kinases

>  <Ligand_Instance>  (907) 
nan

>  <PDB_ID>  (907) 
nan

>  <Standardized_SMILES>  (907) 
CC(C)(C)/C=C/c1csc2c(NC[C@@H](N)Cc3ccccc3)nc(-c3ccncc3)nc12

>  <Name>  (907) 
nan

>  <Pocket>  (907) 
nan

>  <ATP_Site>  (907) 
nan

>  <Peripheral>  (907) 
nan

>  <Num_H_Atoms_ProtBoundConf>  (907) 
nan

>  <Num_Resolved_Atoms>  (907) 
nan

>  <Num_Not_Resolved_Atoms>  (907) 
nan

$$$$
CHEMBL3704394
     RDKit          3D

  0  0  0  0  0  0  0  0  0  0999 V3000
M  V30 BEGIN CTAB
M  V30 COUNTS 64 67 0 0 0
M  V30 BEGIN ATOM
M  V30 1 C 2.080206 -2.964000 3.766742 0
M  V30 2 C 2.283215 -1.749309 2.923425 0 CFG=1
M  V30 3 N 3.256630 -0.809972 3.493113 0
M  V30 4 C 2.897441 0.482564 3.907343 0
M  V30 5 O 1.704755 0.859367 3.791292 0
M  V30 6 N 3.785565 1.437948 4.464656 0
M  V30 7 C 3.160884 2.678673 4.801227 0
M  V30 8 C 3.167635 3.618859 3.766317 0
M  V30 9 C 2.591878 4.853358 3.977903 0
M  V30 10 C 2.010680 5.181487 5.184334 0
M  V30 11 C 1.414867 6.493898 5.365724 0
M  V30 12 N 0.809356 6.849511 6.602292 0
M  V30 13 O 1.429670 7.319605 4.437900 0
M  V30 14 C 2.008674 4.244057 6.203479 0
M  V30 15 C 2.580595 3.004450 6.007670 0
M  V30 16 C 2.551939 -2.033916 1.493393 0
M  V30 17 C 3.847778 -2.301542 1.045389 0
M  V30 18 C 4.037841 -2.560766 -0.305155 0
M  V30 19 C 2.992786 -2.563358 -1.219939 0
M  V30 20 C 1.711272 -2.299826 -0.783528 0
M  V30 21 C 0.630091 -2.307697 -1.759940 0
M  V30 22 O 0.938889 -2.558320 -2.953333 0
M  V30 23 N -0.717918 -2.045228 -1.392215 0
M  V30 24 C -1.848956 -2.025890 -2.254331 0
M  V30 25 C -2.142937 -0.797937 -2.823577 0
M  V30 26 C -3.214768 -0.649348 -3.676848 0
M  V30 27 C -3.977216 -1.789690 -3.932024 0
M  V30 28 C -3.714137 -3.025453 -3.383973 0
M  V30 29 C -2.625425 -3.159822 -2.521927 0
M  V30 30 C -4.532215 -4.202637 -3.669781 0
M  V30 31 N -5.080728 -4.272200 -4.991872 0
M  V30 32 C -6.259844 -5.103917 -5.072707 0
M  V30 33 C -5.195510 -3.041736 -5.692743 0
M  V30 34 C -5.162453 -1.808214 -4.824245 0
M  V30 35 C 1.539751 -2.045208 0.556270 0
M  V30 36 H 0.998695 -3.183870 3.886249 0
M  V30 37 H 2.544414 -2.730413 4.768085 0
M  V30 38 H 2.622599 -3.866680 3.410807 0
M  V30 39 H 1.317769 -1.163569 2.937198 0
M  V30 40 H 4.268294 -1.096276 3.604096 0
M  V30 41 H 4.799107 1.157911 4.578692 0
M  V30 42 H 3.619002 3.401942 2.788310 0
M  V30 43 H 2.618497 5.556991 3.145235 0
M  V30 44 H 1.202110 7.228921 7.506429 0
M  V30 45 H -0.184711 6.822168 6.922961 0
M  V30 46 H 1.556553 4.485500 7.157149 0
M  V30 47 H 2.608137 2.231187 6.769795 0
M  V30 48 H 4.674312 -2.302263 1.752051 0
M  V30 49 H 5.061488 -2.769798 -0.645037 0
M  V30 50 H 3.256374 -2.778995 -2.252731 0
M  V30 51 H -0.985469 -1.836426 -0.406109 0
M  V30 52 H -1.553539 0.091112 -2.628519 0
M  V30 53 H -3.511359 0.265086 -4.159512 0
M  V30 54 H -2.344029 -4.092934 -2.045514 0
M  V30 55 H -3.929252 -5.117496 -3.497310 0
M  V30 56 H -5.417070 -4.281130 -2.971896 0
M  V30 57 H -5.914138 -6.167051 -5.029036 0
M  V30 58 H -7.052549 -4.850042 -4.369370 0
M  V30 59 H -6.650660 -4.985260 -6.123413 0
M  V30 60 H -6.205932 -3.021238 -6.192010 0
M  V30 61 H -4.449485 -2.987803 -6.506223 0
M  V30 62 H -5.154072 -0.930394 -5.502728 0
M  V30 63 H -6.092697 -1.737577 -4.225917 0
M  V30 64 H 0.547786 -1.834775 0.931654 0
M  V30 END ATOM
M  V30 BEGIN BOND
M  V30 1 1 1 2
M  V30 2 1 2 3
M  V30 3 1 3 4
M  V30 4 2 4 5
M  V30 5 1 4 6
M  V30 6 1 6 7
M  V30 7 2 7 8
M  V30 8 1 8 9
M  V30 9 2 9 10
M  V30 10 1 10 11
M  V30 11 1 11 12
M  V30 12 2 11 13
M  V30 13 1 10 14
M  V30 14 2 14 15
M  V30 15 1 2 16
M  V30 16 2 16 17
M  V30 17 1 17 18
M  V30 18 2 18 19
M  V30 19 1 19 20
M  V30 20 1 20 21
M  V30 21 2 21 22
M  V30 22 1 21 23
M  V30 23 1 23 24
M  V30 24 2 24 25
M  V30 25 1 25 26
M  V30 26 2 26 27
M  V30 27 1 27 28
M  V30 28 2 28 29
M  V30 29 1 28 30
M  V30 30 1 30 31
M  V30 31 1 31 32
M  V30 32 1 31 33
M  V30 33 1 33 34
M  V30 34 2 20 35
M  V30 35 1 15 7
M  V30 36 1 35 16
M  V30 37 1 29 24
M  V30 38 1 34 27
M  V30 39 1 1 36
M  V30 40 1 1 37
M  V30 41 1 1 38
M  V30 42 1 2 39 CFG=3
M  V30 43 1 3 40
M  V30 44 1 6 41
M  V30 45 1 8 42
M  V30 46 1 9 43
M  V30 47 1 12 44
M  V30 48 1 12 45
M  V30 49 1 14 46
M  V30 50 1 15 47
M  V30 51 1 17 48
M  V30 52 1 18 49
M  V30 53 1 19 50
M  V30 54 1 23 51
M  V30 55 1 25 52
M  V30 56 1 26 53
M  V30 57 1 29 54
M  V30 58 1 30 55
M  V30 59 1 30 56
M  V30 60 1 32 57
M  V30 61 1 32 58
M  V30 62 1 32 59
M  V30 63 1 33 60
M  V30 64 1 33 61
M  V30 65 1 34 62
M  V30 66 1 34 63
M  V30 67 1 35 64
M  V30 END BOND
M  V30 END CTAB
M  END
>  <Dataset>  (908) 
ChEMBL_Kinases

>  <Ligand_Instance>  (908) 
nan

>  <PDB_ID>  (908) 
nan

>  <Standardized_SMILES>  (908) 
C[C@@H](NC(=O)Nc1ccc(C(N)=O)cc1)c1cccc(C(=O)Nc2ccc3c(c2)CN(C)CC3)c1

>  <Name>  (908) 
nan

>  <Pocket>  (908) 
nan

>  <ATP_Site>  (908) 
nan

>  <Peripheral>  (908) 
nan

>  <Num_H_Atoms_ProtBoundConf>  (908) 
nan

>  <Num_Resolved_Atoms>  (908) 
nan

>  <Num_Not_Resolved_Atoms>  (908) 
nan

$$$$
CHEMBL3729718
     RDKit          3D

  0  0  0  0  0  0  0  0  0  0999 V3000
M  V30 BEGIN CTAB
M  V30 COUNTS 36 39 0 0 0
M  V30 BEGIN ATOM
M  V30 1 F -1.291832 -3.440680 1.673819 0
M  V30 2 C -0.201439 -4.031543 2.245607 0
M  V30 3 C -0.320016 -5.205158 2.958241 0
M  V30 4 N 0.749263 -5.820090 3.541189 0
M  V30 5 C 1.949110 -5.230913 3.394635 0
M  V30 6 C 2.116725 -4.056306 2.690460 0
M  V30 7 C 1.032118 -3.440578 2.104177 0
M  V30 8 C 1.158089 -2.200656 1.351361 0
M  V30 9 N 0.056186 -1.662013 0.810367 0
M  V30 10 C 0.192394 -0.517113 0.119084 0
M  V30 11 N -0.901371 0.112311 -0.496269 0
M  V30 12 C -1.104602 1.326514 -1.250591 0 CFG=2
M  V30 13 C -0.908623 2.539946 -0.359782 0
M  V30 14 C -2.344017 3.030460 -0.111141 0
M  V30 15 N -3.035110 2.717624 -1.349907 0
M  V30 16 C -2.474287 1.478270 -1.828158 0
M  V30 17 C 1.438083 0.046918 -0.003950 0
M  V30 18 S 2.052076 1.523697 -0.828240 0
M  V30 19 C 3.862677 1.255220 -0.329214 0
M  V30 20 C 3.787521 0.100985 0.388243 0
M  V30 21 C 2.588478 -0.518051 0.562417 0
M  V30 22 N 2.382262 -1.661510 1.240312 0
M  V30 23 H -1.325122 -5.629371 3.037608 0
M  V30 24 H 2.838938 -5.680735 3.841000 0
M  V30 25 H 3.116241 -3.627516 2.607192 0
M  V30 26 H -1.815456 -0.418317 -0.393905 0
M  V30 27 H -0.328616 1.429487 -2.061295 0
M  V30 28 H -0.304879 3.325368 -0.827034 0
M  V30 29 H -0.444794 2.249555 0.602514 0
M  V30 30 H -2.370561 4.132027 0.025433 0
M  V30 31 H -2.749664 2.459148 0.733952 0
M  V30 32 H -2.944771 3.506392 -2.023089 0
M  V30 33 H -3.080655 0.605838 -1.455893 0
M  V30 34 H -2.470665 1.442146 -2.936954 0
M  V30 35 H 4.560070 1.941698 -0.637335 0
M  V30 36 H 4.749915 -0.209924 0.760128 0
M  V30 END ATOM
M  V30 BEGIN BOND
M  V30 1 1 1 2
M  V30 2 2 2 3
M  V30 3 1 3 4
M  V30 4 2 4 5
M  V30 5 1 5 6
M  V30 6 2 6 7
M  V30 7 1 7 8
M  V30 8 2 8 9
M  V30 9 1 9 10
M  V30 10 1 10 11
M  V30 11 1 11 12
M  V30 12 1 12 13
M  V30 13 1 13 14
M  V30 14 1 14 15
M  V30 15 1 15 16
M  V30 16 2 10 17
M  V30 17 1 17 18
M  V30 18 1 18 19
M  V30 19 2 19 20
M  V30 20 1 20 21
M  V30 21 2 21 22
M  V30 22 1 7 2
M  V30 23 1 22 8
M  V30 24 1 16 12
M  V30 25 1 21 17
M  V30 26 1 3 23
M  V30 27 1 5 24
M  V30 28 1 6 25
M  V30 29 1 11 26
M  V30 30 1 12 27 CFG=3
M  V30 31 1 13 28
M  V30 32 1 13 29
M  V30 33 1 14 30
M  V30 34 1 14 31
M  V30 35 1 15 32
M  V30 36 1 16 33
M  V30 37 1 16 34
M  V30 38 1 19 35
M  V30 39 1 20 36
M  V30 END BOND
M  V30 END CTAB
M  END
>  <Dataset>  (909) 
ChEMBL_Kinases

>  <Ligand_Instance>  (909) 
nan

>  <PDB_ID>  (909) 
nan

>  <Standardized_SMILES>  (909) 
Fc1cnccc1-c1nc(N[C@@H]2CCNC2)c2sccc2n1

>  <Name>  (909) 
nan

>  <Pocket>  (909) 
nan

>  <ATP_Site>  (909) 
nan

>  <Peripheral>  (909) 
nan

>  <Num_H_Atoms_ProtBoundConf>  (909) 
nan

>  <Num_Resolved_Atoms>  (909) 
nan

>  <Num_Not_Resolved_Atoms>  (909) 
nan

$$$$
CHEMBL3729698
     RDKit          3D

  0  0  0  0  0  0  0  0  0  0999 V3000
M  V30 BEGIN CTAB
M  V30 COUNTS 51 55 0 0 0
M  V30 BEGIN ATOM
M  V30 1 N -0.882617 -3.042839 2.890506 0
M  V30 2 C 0.458219 -3.377463 2.552406 0 CFG=2
M  V30 3 C 0.938279 -2.833708 1.223257 0
M  V30 4 N 0.942008 -1.470175 1.031600 0
M  V30 5 C 0.947645 -0.043810 0.833500 0
M  V30 6 N 1.529058 0.958853 1.508575 0
M  V30 7 C 1.319510 2.199228 1.042009 0
M  V30 8 C 1.966962 3.258862 1.806282 0
M  V30 9 C 1.765350 4.545837 1.356962 0
M  V30 10 C 2.337837 5.591418 2.023131 0
M  V30 11 N 3.077677 5.294397 3.097505 0
M  V30 12 C 3.293246 4.056177 3.560253 0
M  V30 13 C 2.727768 2.958347 2.910837 0
M  V30 14 N 0.570999 2.414780 -0.037750 0
M  V30 15 C -0.040505 1.473025 -0.763785 0
M  V30 16 C -0.775655 1.829861 -1.848397 0
M  V30 17 N -1.086949 3.064521 -2.459156 0
M  V30 18 C -2.346570 3.578458 -2.418538 0
M  V30 19 C -2.326902 4.795845 -3.104078 0
M  V30 20 N -1.058032 4.957898 -3.524785 0
M  V30 21 N -0.333750 3.912866 -3.129253 0
M  V30 22 C -1.335121 0.691241 -2.478101 0
M  V30 23 S -0.744984 -0.779385 -1.443054 0
M  V30 24 C 0.157662 0.206455 -0.308829 0
M  V30 25 C 0.614008 -4.875065 2.529683 0
M  V30 26 C -0.266698 -5.558309 1.556533 0
M  V30 27 C -0.068791 -5.890071 0.236052 0
M  V30 28 C -0.987381 -6.534523 -0.555853 0
M  V30 29 C -2.219813 -6.889016 0.000145 0
M  V30 30 C -2.482327 -6.584914 1.322868 0
M  V30 31 C -1.517751 -5.938565 2.056512 0
M  V30 32 H -1.631083 -3.497835 2.329081 0
M  V30 33 H -1.065569 -2.001363 2.756656 0
M  V30 34 H 1.109523 -3.001155 3.382755 0
M  V30 35 H 1.929619 -3.323595 1.021886 0
M  V30 36 H 0.287710 -3.369410 0.440398 0
M  V30 37 H 1.575034 -1.427455 1.903410 0
M  V30 38 H 1.155050 4.750398 0.475923 0
M  V30 39 H 2.159613 6.591093 1.643651 0
M  V30 40 H 3.902393 3.881016 4.436122 0
M  V30 41 H 2.872490 1.919944 3.247571 0
M  V30 42 H -3.213888 3.132088 -1.944321 0
M  V30 43 H -3.229100 5.417663 -3.218298 0
M  V30 44 H -2.002807 0.633703 -3.411689 0
M  V30 45 H 1.665993 -5.158075 2.256497 0
M  V30 46 H 0.464979 -5.321438 3.540172 0
M  V30 47 H 0.920976 -5.585343 -0.129878 0
M  V30 48 H -0.678273 -6.721181 -1.573476 0
M  V30 49 H -2.870563 -7.387350 -0.695393 0
M  V30 50 H -3.439526 -6.876008 1.707098 0
M  V30 51 H -1.837249 -5.752631 3.089459 0
M  V30 END ATOM
M  V30 BEGIN BOND
M  V30 1 1 1 2
M  V30 2 1 2 3
M  V30 3 1 3 4
M  V30 4 1 4 5
M  V30 5 2 5 6
M  V30 6 1 6 7
M  V30 7 1 7 8
M  V30 8 2 8 9
M  V30 9 1 9 10
M  V30 10 2 10 11
M  V30 11 1 11 12
M  V30 12 2 12 13
M  V30 13 2 7 14
M  V30 14 1 14 15
M  V30 15 1 15 16
M  V30 16 1 16 17
M  V30 17 1 17 18
M  V30 18 2 18 19
M  V30 19 1 19 20
M  V30 20 2 20 21
M  V30 21 2 16 22
M  V30 22 1 22 23
M  V30 23 1 23 24
M  V30 24 1 2 25
M  V30 25 1 25 26
M  V30 26 2 26 27
M  V30 27 1 27 28
M  V30 28 2 28 29
M  V30 29 1 29 30
M  V30 30 2 30 31
M  V30 31 1 24 5
M  V30 32 1 31 26
M  V30 33 1 13 8
M  V30 34 2 24 15
M  V30 35 1 21 17
M  V30 36 1 1 32
M  V30 37 1 1 33
M  V30 38 1 2 34 CFG=1
M  V30 39 1 3 35
M  V30 40 1 3 36
M  V30 41 1 4 37
M  V30 42 1 9 38
M  V30 43 1 10 39
M  V30 44 1 12 40
M  V30 45 1 13 41
M  V30 46 1 18 42
M  V30 47 1 19 43
M  V30 48 1 22 44
M  V30 49 1 25 45
M  V30 50 1 25 46
M  V30 51 1 27 47
M  V30 52 1 28 48
M  V30 53 1 29 49
M  V30 54 1 30 50
M  V30 55 1 31 51
M  V30 END BOND
M  V30 END CTAB
M  END
>  <Dataset>  (910) 
ChEMBL_Kinases

>  <Ligand_Instance>  (910) 
nan

>  <PDB_ID>  (910) 
nan

>  <Standardized_SMILES>  (910) 
N[C@H](CNc1nc(-c2ccncc2)nc2c(-n3ccnn3)csc12)Cc1ccccc1

>  <Name>  (910) 
nan

>  <Pocket>  (910) 
nan

>  <ATP_Site>  (910) 
nan

>  <Peripheral>  (910) 
nan

>  <Num_H_Atoms_ProtBoundConf>  (910) 
nan

>  <Num_Resolved_Atoms>  (910) 
nan

>  <Num_Not_Resolved_Atoms>  (910) 
nan

$$$$
CHEMBL523929
     RDKit          3D

  0  0  0  0  0  0  0  0  0  0999 V3000
M  V30 BEGIN CTAB
M  V30 COUNTS 43 46 0 0 0
M  V30 BEGIN ATOM
M  V30 1 C -1.410832 -5.835957 2.333098 0
M  V30 2 N -0.401141 -5.439120 1.376873 0
M  V30 3 C 0.247692 -6.565743 0.737206 0
M  V30 4 C -0.082132 -4.081690 1.098340 0
M  V30 5 C 0.869863 -3.646953 0.197036 0
M  V30 6 C 1.139825 -2.321780 -0.036563 0
M  V30 7 N 0.457171 -1.373741 0.632882 0
M  V30 8 C 0.587326 -0.038699 0.533121 0
M  V30 9 C 1.448937 0.817012 -0.274597 0
M  V30 10 C 1.412209 0.812555 -1.654087 0
M  V30 11 C 2.197935 1.594192 -2.476091 0
M  V30 12 N 3.083770 2.440750 -1.873418 0
M  V30 13 C 3.137841 2.462258 -0.512316 0
M  V30 14 N 4.063422 3.345300 0.145457 0
M  V30 15 N 2.359175 1.688863 0.250961 0
M  V30 16 C -0.347117 0.460216 1.434988 0
M  V30 17 C -0.617344 1.871231 1.719480 0
M  V30 18 C -1.089861 2.642555 0.677692 0
M  V30 19 C -1.357456 3.982113 0.907764 0
M  V30 20 C -1.145240 4.500779 2.161370 0
M  V30 21 F -1.419923 5.808959 2.333797 0
M  V30 22 C -0.672010 3.722824 3.200029 0
M  V30 23 C -0.400864 2.384240 2.984268 0
M  V30 24 N -0.986404 -0.564954 2.026841 0
M  V30 25 C -0.475245 -1.724885 1.517259 0
M  V30 26 C -0.744444 -3.066200 1.749801 0
M  V30 27 H -0.914970 -6.003044 3.333597 0
M  V30 28 H -2.239195 -5.115847 2.441684 0
M  V30 29 H -1.897962 -6.799806 2.057090 0
M  V30 30 H 0.932603 -7.003453 1.516638 0
M  V30 31 H 0.781366 -6.299255 -0.194942 0
M  V30 32 H -0.502718 -7.356293 0.460968 0
M  V30 33 H 1.429632 -4.389615 -0.350618 0
M  V30 34 H 1.914936 -2.077628 -0.772245 0
M  V30 35 H 0.720636 0.153301 -2.188031 0
M  V30 36 H 2.165501 1.586438 -3.543584 0
M  V30 37 H 4.904637 3.282488 0.769078 0
M  V30 38 H 3.844456 4.343411 -0.046398 0
M  V30 39 H -1.246188 2.203626 -0.299092 0
M  V30 40 H -1.730942 4.579961 0.072850 0
M  V30 41 H -0.506913 4.152358 4.201880 0
M  V30 42 H -0.025833 1.717080 3.760759 0
M  V30 43 H -1.509232 -3.227227 2.477966 0
M  V30 END ATOM
M  V30 BEGIN BOND
M  V30 1 1 1 2
M  V30 2 1 2 3
M  V30 3 1 2 4
M  V30 4 1 4 5
M  V30 5 2 5 6
M  V30 6 1 6 7
M  V30 7 1 7 8
M  V30 8 1 8 9
M  V30 9 2 9 10
M  V30 10 1 10 11
M  V30 11 2 11 12
M  V30 12 1 12 13
M  V30 13 1 13 14
M  V30 14 2 13 15
M  V30 15 2 8 16
M  V30 16 1 16 17
M  V30 17 2 17 18
M  V30 18 1 18 19
M  V30 19 2 19 20
M  V30 20 1 20 21
M  V30 21 1 20 22
M  V30 22 2 22 23
M  V30 23 1 16 24
M  V30 24 2 24 25
M  V30 25 1 25 26
M  V30 26 2 26 4
M  V30 27 1 25 7
M  V30 28 1 15 9
M  V30 29 1 23 17
M  V30 30 1 1 27
M  V30 31 1 1 28
M  V30 32 1 1 29
M  V30 33 1 3 30
M  V30 34 1 3 31
M  V30 35 1 3 32
M  V30 36 1 5 33
M  V30 37 1 6 34
M  V30 38 1 10 35
M  V30 39 1 11 36
M  V30 40 1 14 37
M  V30 41 1 14 38
M  V30 42 1 18 39
M  V30 43 1 19 40
M  V30 44 1 22 41
M  V30 45 1 23 42
M  V30 46 1 26 43
M  V30 END BOND
M  V30 END CTAB
M  END
>  <Dataset>  (911) 
ChEMBL_Kinases

>  <Ligand_Instance>  (911) 
nan

>  <PDB_ID>  (911) 
nan

>  <Standardized_SMILES>  (911) 
CN(C)c1ccn2c(-c3ccnc(N)n3)c(-c3ccc(F)cc3)nc2c1

>  <Name>  (911) 
nan

>  <Pocket>  (911) 
nan

>  <ATP_Site>  (911) 
nan

>  <Peripheral>  (911) 
nan

>  <Num_H_Atoms_ProtBoundConf>  (911) 
nan

>  <Num_Resolved_Atoms>  (911) 
nan

>  <Num_Not_Resolved_Atoms>  (911) 
nan

$$$$
CHEMBL3729676
     RDKit          3D

  0  0  0  0  0  0  0  0  0  0999 V3000
M  V30 BEGIN CTAB
M  V30 COUNTS 56 60 0 0 0
M  V30 BEGIN ATOM
M  V30 1 N 1.028864 -1.484850 -0.677968 0
M  V30 2 C 0.733692 -2.562243 0.210528 0 CFG=2
M  V30 3 C 0.337266 -2.144286 1.614471 0
M  V30 4 N -0.842442 -1.311576 1.628677 0
M  V30 5 C -0.823974 0.059437 1.261934 0
M  V30 6 N 0.383264 0.538360 0.970096 0
M  V30 7 C 0.711306 1.769842 0.631876 0
M  V30 8 C 2.031150 2.297355 0.344915 0
M  V30 9 C 2.290255 3.565443 -0.089462 0
M  V30 10 C 3.552267 4.052043 -0.342950 0
M  V30 11 N 4.609873 3.247811 -0.158660 0
M  V30 12 C 4.414535 1.989519 0.267932 0
M  V30 13 C 3.145138 1.517703 0.517345 0
M  V30 14 O 3.110613 0.220496 0.946792 0
M  V30 15 N -0.254970 2.685029 0.559117 0
M  V30 16 C -1.588744 2.161522 0.880257 0
M  V30 17 S -3.176939 3.083713 0.896871 0
M  V30 18 C -4.147575 1.689077 1.368882 0
M  V30 19 C -3.214747 0.630366 1.481154 0
M  V30 20 C -1.914131 0.886091 1.229187 0
M  V30 21 C -4.069314 -0.502883 1.873015 0
M  V30 22 C -4.727518 -0.101015 3.216953 0
M  V30 23 C -5.870932 0.861490 2.939407 0
M  V30 24 C -5.609769 1.581600 1.608089 0
M  V30 25 C 1.878121 -3.543269 0.285691 0
M  V30 26 C 2.125684 -4.107285 -1.059367 0
M  V30 27 C 2.988936 -3.728466 -2.038834 0
M  V30 28 C 3.094527 -4.348919 -3.254023 0
M  V30 29 C 2.291004 -5.422869 -3.525974 0
M  V30 30 C 1.384613 -5.877567 -2.589781 0
M  V30 31 C 1.329726 -5.196817 -1.370338 0
M  V30 32 H 0.443489 -1.458289 -1.529233 0
M  V30 33 H 2.037660 -1.451560 -0.894756 0
M  V30 34 H -0.102847 -3.140725 -0.274247 0
M  V30 35 H 0.272660 -3.023237 2.254336 0
M  V30 36 H 1.205502 -1.513049 1.990770 0
M  V30 37 H -1.546792 -1.965577 1.938121 0
M  V30 38 H 1.449387 4.246210 -0.249336 0
M  V30 39 H 3.676983 5.070949 -0.685856 0
M  V30 40 H 5.343432 1.424324 0.383352 0
M  V30 41 H 3.418197 0.017065 1.899927 0
M  V30 42 H -4.897048 -0.649768 1.118737 0
M  V30 43 H -3.603506 -1.451446 2.080225 0
M  V30 44 H -3.949067 0.466858 3.760752 0
M  V30 45 H -5.014583 -0.965728 3.810884 0
M  V30 46 H -6.851066 0.373755 2.860928 0
M  V30 47 H -5.945803 1.658479 3.705811 0
M  V30 48 H -6.002751 2.602910 1.667902 0
M  V30 49 H -6.121082 0.990495 0.810835 0
M  V30 50 H 1.662068 -4.364638 1.000052 0
M  V30 51 H 2.821932 -3.030133 0.611495 0
M  V30 52 H 3.623366 -2.892216 -1.816206 0
M  V30 53 H 3.807296 -3.981315 -3.974072 0
M  V30 54 H 2.352075 -5.935021 -4.480760 0
M  V30 55 H 0.751349 -6.725340 -2.805957 0
M  V30 56 H 0.592874 -5.613718 -0.686690 0
M  V30 END ATOM
M  V30 BEGIN BOND
M  V30 1 1 1 2
M  V30 2 1 2 3
M  V30 3 1 3 4
M  V30 4 1 4 5
M  V30 5 2 5 6
M  V30 6 1 6 7
M  V30 7 1 7 8
M  V30 8 2 8 9
M  V30 9 1 9 10
M  V30 10 2 10 11
M  V30 11 1 11 12
M  V30 12 2 12 13
M  V30 13 1 13 14
M  V30 14 2 7 15
M  V30 15 1 15 16
M  V30 16 1 16 17
M  V30 17 1 17 18
M  V30 18 2 18 19
M  V30 19 1 19 20
M  V30 20 1 19 21
M  V30 21 1 21 22
M  V30 22 1 22 23
M  V30 23 1 23 24
M  V30 24 1 2 25
M  V30 25 1 25 26
M  V30 26 2 26 27
M  V30 27 1 27 28
M  V30 28 2 28 29
M  V30 29 1 29 30
M  V30 30 2 30 31
M  V30 31 1 20 5
M  V30 32 1 31 26
M  V30 33 1 13 8
M  V30 34 2 20 16
M  V30 35 1 24 18
M  V30 36 1 1 32
M  V30 37 1 1 33
M  V30 38 1 2 34 CFG=3
M  V30 39 1 3 35
M  V30 40 1 3 36
M  V30 41 1 4 37
M  V30 42 1 9 38
M  V30 43 1 10 39
M  V30 44 1 12 40
M  V30 45 1 14 41
M  V30 46 1 21 42
M  V30 47 1 21 43
M  V30 48 1 22 44
M  V30 49 1 22 45
M  V30 50 1 23 46
M  V30 51 1 23 47
M  V30 52 1 24 48
M  V30 53 1 24 49
M  V30 54 1 25 50
M  V30 55 1 25 51
M  V30 56 1 27 52
M  V30 57 1 28 53
M  V30 58 1 29 54
M  V30 59 1 30 55
M  V30 60 1 31 56
M  V30 END BOND
M  V30 END CTAB
M  END
>  <Dataset>  (912) 
ChEMBL_Kinases

>  <Ligand_Instance>  (912) 
nan

>  <PDB_ID>  (912) 
nan

>  <Standardized_SMILES>  (912) 
N[C@H](CNc1nc(-c2ccncc2O)nc2sc3c(c12)CCCC3)Cc1ccccc1

>  <Name>  (912) 
nan

>  <Pocket>  (912) 
nan

>  <ATP_Site>  (912) 
nan

>  <Peripheral>  (912) 
nan

>  <Num_H_Atoms_ProtBoundConf>  (912) 
nan

>  <Num_Resolved_Atoms>  (912) 
nan

>  <Num_Not_Resolved_Atoms>  (912) 
nan

$$$$
CHEMBL3729660
     RDKit          3D

  0  0  0  0  0  0  0  0  0  0999 V3000
M  V30 BEGIN CTAB
M  V30 COUNTS 51 55 0 0 0
M  V30 BEGIN ATOM
M  V30 1 N -1.924491 -3.528558 -0.853059 0
M  V30 2 C -0.633825 -3.594398 -0.222614 0 CFG=2
M  V30 3 C 0.073127 -2.287596 -0.168172 0
M  V30 4 N -0.668747 -1.294515 0.565730 0
M  V30 5 C -0.161602 0.041476 0.740640 0
M  V30 6 N 0.988799 0.279664 0.112724 0
M  V30 7 C 1.645507 1.408317 0.055475 0
M  V30 8 C 2.894326 1.692496 -0.617973 0
M  V30 9 C 3.507454 0.666559 -1.301794 0
M  V30 10 C 4.714636 0.924113 -1.957958 0
M  V30 11 N 5.259226 2.155608 -1.915974 0
M  V30 12 C 4.692271 3.165641 -1.265056 0
M  V30 13 C 3.498247 2.915856 -0.614541 0
M  V30 14 N 1.064835 2.419858 0.715349 0
M  V30 15 C -0.109922 2.179336 1.358411 0
M  V30 16 S -1.053916 3.428158 2.294094 0
M  V30 17 C -2.394561 2.179708 2.731122 0
M  V30 18 C -1.987720 1.016255 2.145057 0
M  V30 19 C -0.817168 1.020818 1.439357 0
M  V30 20 C -2.905033 -0.114577 2.429404 0
M  V30 21 C -3.784703 0.220265 3.605594 0
M  V30 22 C -4.585909 1.456372 3.284928 0
M  V30 23 C -3.552851 2.584017 3.515574 0
M  V30 24 C 0.163804 -4.637796 -0.974889 0
M  V30 25 C 1.537511 -4.799974 -0.408679 0
M  V30 26 C 2.626559 -3.987875 -0.919862 0
M  V30 27 S 4.064549 -4.618603 0.147332 0
M  V30 28 C 2.913537 -5.825725 1.044489 0
M  V30 29 N 1.756619 -5.678241 0.554078 0
M  V30 30 H -2.685875 -3.246515 -0.197425 0
M  V30 31 H -1.917234 -2.996639 -1.740487 0
M  V30 32 H -0.802207 -3.965840 0.817617 0
M  V30 33 H 1.125931 -2.368890 0.169789 0
M  V30 34 H 0.146057 -1.893188 -1.213232 0
M  V30 35 H -1.560968 -1.711642 0.886225 0
M  V30 36 H 3.147705 -0.345211 -1.389618 0
M  V30 37 H 5.262857 0.177180 -2.517747 0
M  V30 38 H 5.100199 4.175234 -1.207201 0
M  V30 39 H 3.005580 3.733010 -0.067254 0
M  V30 40 H -3.483132 -0.483430 1.592544 0
M  V30 41 H -2.290656 -0.989894 2.831223 0
M  V30 42 H -3.119557 0.435065 4.494030 0
M  V30 43 H -4.455534 -0.599320 3.855143 0
M  V30 44 H -4.880940 1.422688 2.224768 0
M  V30 45 H -5.485746 1.591531 3.890671 0
M  V30 46 H -3.318921 2.543894 4.597986 0
M  V30 47 H -4.025548 3.523898 3.186526 0
M  V30 48 H -0.351587 -5.594190 -0.943799 0
M  V30 49 H 0.214804 -4.323585 -2.045396 0
M  V30 50 H 2.403579 -3.188488 -1.802002 0
M  V30 51 H 3.398338 -6.409032 1.783513 0
M  V30 END ATOM
M  V30 BEGIN BOND
M  V30 1 1 1 2
M  V30 2 1 2 3
M  V30 3 1 3 4
M  V30 4 1 4 5
M  V30 5 2 5 6
M  V30 6 1 6 7
M  V30 7 1 7 8
M  V30 8 2 8 9
M  V30 9 1 9 10
M  V30 10 2 10 11
M  V30 11 1 11 12
M  V30 12 2 12 13
M  V30 13 2 7 14
M  V30 14 1 14 15
M  V30 15 1 15 16
M  V30 16 1 16 17
M  V30 17 2 17 18
M  V30 18 1 18 19
M  V30 19 1 18 20
M  V30 20 1 20 21
M  V30 21 1 21 22
M  V30 22 1 22 23
M  V30 23 1 2 24
M  V30 24 1 24 25
M  V30 25 2 25 26
M  V30 26 1 26 27
M  V30 27 1 27 28
M  V30 28 2 28 29
M  V30 29 1 19 5
M  V30 30 1 29 25
M  V30 31 1 13 8
M  V30 32 2 19 15
M  V30 33 1 23 17
M  V30 34 1 1 30
M  V30 35 1 1 31
M  V30 36 1 2 32 CFG=1
M  V30 37 1 3 33
M  V30 38 1 3 34
M  V30 39 1 4 35
M  V30 40 1 9 36
M  V30 41 1 10 37
M  V30 42 1 12 38
M  V30 43 1 13 39
M  V30 44 1 20 40
M  V30 45 1 20 41
M  V30 46 1 21 42
M  V30 47 1 21 43
M  V30 48 1 22 44
M  V30 49 1 22 45
M  V30 50 1 23 46
M  V30 51 1 23 47
M  V30 52 1 24 48
M  V30 53 1 24 49
M  V30 54 1 26 50
M  V30 55 1 28 51
M  V30 END BOND
M  V30 END CTAB
M  END
>  <Dataset>  (913) 
ChEMBL_Kinases

>  <Ligand_Instance>  (913) 
nan

>  <PDB_ID>  (913) 
nan

>  <Standardized_SMILES>  (913) 
N[C@H](CNc1nc(-c2ccncc2)nc2sc3c(c12)CCCC3)Cc1cscn1

>  <Name>  (913) 
nan

>  <Pocket>  (913) 
nan

>  <ATP_Site>  (913) 
nan

>  <Peripheral>  (913) 
nan

>  <Num_H_Atoms_ProtBoundConf>  (913) 
nan

>  <Num_Resolved_Atoms>  (913) 
nan

>  <Num_Not_Resolved_Atoms>  (913) 
nan

$$$$
CHEMBL3704395
     RDKit          3D

  0  0  0  0  0  0  0  0  0  0999 V3000
M  V30 BEGIN CTAB
M  V30 COUNTS 68 72 0 0 0
M  V30 BEGIN ATOM
M  V30 1 C 6.141340 -0.098394 0.559431 0
M  V30 2 N 7.187107 0.907394 0.446142 0
M  V30 3 C 7.639825 1.062115 -0.919130 0
M  V30 4 C 6.484156 1.346227 -1.859921 0
M  V30 5 N 5.478557 2.207491 -1.280428 0
M  V30 6 C 4.811910 2.982460 -2.299260 0
M  V30 7 C 4.168311 2.087836 -3.298944 0
M  V30 8 C 2.663118 2.149311 -3.306977 0
M  V30 9 C 2.100905 2.151291 -1.929620 0
M  V30 10 N 1.140386 1.394837 -1.416366 0
M  V30 11 C 0.723113 1.430023 -0.321376 0
M  V30 12 N -0.318439 0.667164 0.382677 0
M  V30 13 C -1.663011 1.012713 0.436053 0
M  V30 14 O -2.121942 2.043730 -0.129983 0
M  V30 15 C -2.621230 0.187606 1.159001 0
M  V30 16 C -3.924088 0.638508 1.289546 0
M  V30 17 C -4.859669 -0.116575 1.961039 0
M  V30 18 C -4.559426 -1.337912 2.530123 0
M  V30 19 C -3.251265 -1.835203 2.422184 0
M  V30 20 O -2.689182 -3.008925 2.886432 0
M  V30 21 C -3.488210 -3.932541 3.591093 0
M  V30 22 C -4.569849 -4.348439 2.639880 0
M  V30 23 O -4.974098 -4.150510 1.473705 0
M  V30 24 N -5.477625 -5.301241 3.226300 0
M  V30 25 C -6.606625 -5.863815 2.534127 0
M  V30 26 C -7.704536 -5.056761 2.760234 0
M  V30 27 C -8.952626 -5.361175 2.200033 0
M  V30 28 C -9.033954 -6.512453 1.407555 0
M  V30 29 C -10.272206 -6.889795 0.800384 0
M  V30 30 N -11.274702 -7.215674 0.308753 0
M  V30 31 C -7.921409 -7.290318 1.206026 0
M  V30 32 C -6.679157 -7.003157 1.752543 0
M  V30 33 C -2.355502 -1.033813 1.737248 0
M  V30 34 S 1.719749 2.767787 0.472845 0
M  V30 35 C 2.678242 3.099033 -1.054089 0
M  V30 36 C 3.769953 3.913626 -1.721531 0
M  V30 37 C 6.164948 3.028233 -0.308156 0
M  V30 38 C 6.635183 2.160157 0.863647 0
M  V30 39 H 6.251776 -0.851488 -0.262961 0
M  V30 40 H 6.132000 -0.569289 1.566782 0
M  V30 41 H 5.146185 0.373629 0.411449 0
M  V30 42 H 8.123853 0.126140 -1.288937 0
M  V30 43 H 8.330833 1.912431 -0.975706 0
M  V30 44 H 6.906689 1.681482 -2.803784 0
M  V30 45 H 5.971036 0.362918 -2.055238 0
M  V30 46 H 5.574530 3.616691 -2.784643 0
M  V30 47 H 4.556080 2.326344 -4.310370 0
M  V30 48 H 4.406667 0.995620 -3.171544 0
M  V30 49 H 2.352369 3.096929 -3.795508 0
M  V30 50 H 2.224034 1.346125 -3.947065 0
M  V30 51 H 0.124429 -0.142296 0.818566 0
M  V30 52 H -4.298024 1.577856 0.890523 0
M  V30 53 H -5.902471 0.138362 2.117470 0
M  V30 54 H -5.207460 -2.000062 3.083526 0
M  V30 55 H -3.894060 -3.583570 4.541848 0
M  V30 56 H -2.863074 -4.862270 3.715740 0
M  V30 57 H -5.492755 -5.736574 4.186843 0
M  V30 58 H -7.778370 -4.150550 3.344685 0
M  V30 59 H -9.853709 -4.794089 2.321555 0
M  V30 60 H -7.902110 -8.206857 0.598795 0
M  V30 61 H -5.734501 -7.517764 1.678357 0
M  V30 62 H -1.306352 -1.329866 1.595964 0
M  V30 63 H 3.266175 4.417350 -2.559891 0
M  V30 64 H 4.147250 4.676847 -1.055301 0
M  V30 65 H 7.058492 3.527779 -0.698479 0
M  V30 66 H 5.428629 3.709500 0.163166 0
M  V30 67 H 7.413115 2.772661 1.395358 0
M  V30 68 H 5.813465 2.024305 1.612352 0
M  V30 END ATOM
M  V30 BEGIN BOND
M  V30 1 1 1 2
M  V30 2 1 2 3
M  V30 3 1 3 4
M  V30 4 1 4 5
M  V30 5 1 5 6
M  V30 6 1 6 7
M  V30 7 1 7 8
M  V30 8 1 8 9
M  V30 9 1 9 10
M  V30 10 2 10 11
M  V30 11 1 11 12
M  V30 12 1 12 13
M  V30 13 2 13 14
M  V30 14 1 13 15
M  V30 15 2 15 16
M  V30 16 1 16 17
M  V30 17 2 17 18
M  V30 18 1 18 19
M  V30 19 1 19 20
M  V30 20 1 20 21
M  V30 21 1 21 22
M  V30 22 2 22 23
M  V30 23 1 22 24
M  V30 24 1 24 25
M  V30 25 2 25 26
M  V30 26 1 26 27
M  V30 27 2 27 28
M  V30 28 1 28 29
M  V30 29 3 29 30
M  V30 30 1 28 31
M  V30 31 2 31 32
M  V30 32 2 19 33
M  V30 33 1 11 34
M  V30 34 1 34 35
M  V30 35 1 35 36
M  V30 36 1 5 37
M  V30 37 1 37 38
M  V30 38 1 38 2
M  V30 39 1 36 6
M  V30 40 2 35 9
M  V30 41 1 33 15
M  V30 42 1 32 25
M  V30 43 1 1 39
M  V30 44 1 1 40
M  V30 45 1 1 41
M  V30 46 1 3 42
M  V30 47 1 3 43
M  V30 48 1 4 44
M  V30 49 1 4 45
M  V30 50 1 6 46
M  V30 51 1 7 47
M  V30 52 1 7 48
M  V30 53 1 8 49
M  V30 54 1 8 50
M  V30 55 1 12 51
M  V30 56 1 16 52
M  V30 57 1 17 53
M  V30 58 1 18 54
M  V30 59 1 21 55
M  V30 60 1 21 56
M  V30 61 1 24 57
M  V30 62 1 26 58
M  V30 63 1 27 59
M  V30 64 1 31 60
M  V30 65 1 32 61
M  V30 66 1 33 62
M  V30 67 1 36 63
M  V30 68 1 36 64
M  V30 69 1 37 65
M  V30 70 1 37 66
M  V30 71 1 38 67
M  V30 72 1 38 68
M  V30 END BOND
M  V30 END CTAB
M  END
>  <Dataset>  (914) 
ChEMBL_Kinases

>  <Ligand_Instance>  (914) 
nan

>  <PDB_ID>  (914) 
nan

>  <Standardized_SMILES>  (914) 
CN1CCN(C2CCc3nc(NC(=O)c4cccc(OCC(=O)Nc5ccc(C#N)cc5)c4)sc3C2)CC1

>  <Name>  (914) 
nan

>  <Pocket>  (914) 
nan

>  <ATP_Site>  (914) 
nan

>  <Peripheral>  (914) 
nan

>  <Num_H_Atoms_ProtBoundConf>  (914) 
nan

>  <Num_Resolved_Atoms>  (914) 
nan

>  <Num_Not_Resolved_Atoms>  (914) 
nan

$$$$
CHEMBL3729550
     RDKit          3D

  0  0  0  0  0  0  0  0  0  0999 V3000
M  V30 BEGIN CTAB
M  V30 COUNTS 39 42 0 0 0
M  V30 BEGIN ATOM
M  V30 1 C -1.785035 -2.402075 5.306436 0
M  V30 2 C -0.642536 -2.019610 4.635970 0
M  V30 3 C -0.674763 -1.651087 3.309867 0
M  V30 4 C 0.576603 -1.251764 2.645650 0
M  V30 5 N 0.456625 -0.901092 1.334622 0
M  V30 6 C 1.601944 -0.538192 0.734882 0
M  V30 7 N 1.641021 -0.146420 -0.626209 0
M  V30 8 C 0.361471 -0.172694 -1.294515 0 CFG=2
M  V30 9 C 0.487960 0.257484 -2.742197 0
M  V30 10 C -0.891873 0.172166 -3.366779 0
M  V30 11 C -1.766008 1.211106 -2.691796 0
M  V30 12 N -1.077590 1.790769 -1.531274 0
M  V30 13 C -0.655777 0.718488 -0.626047 0
M  V30 14 C 2.812634 -0.507379 1.348033 0
M  V30 15 S 4.459846 -0.120332 0.962123 0
M  V30 16 C 5.132976 -0.504426 2.721083 0
M  V30 17 C 3.948896 -0.919624 3.482674 0
M  V30 18 C 2.888463 -0.865238 2.658122 0
M  V30 19 N 1.765087 -1.234350 3.292801 0
M  V30 20 C -1.837668 -1.641276 2.577136 0
M  V30 21 C -2.969806 -2.036148 3.297831 0
M  V30 22 N -2.945091 -2.396763 4.591372 0
M  V30 23 H -1.712798 -2.681897 6.342042 0
M  V30 24 H 0.307387 -2.012924 5.182577 0
M  V30 25 H 2.468964 0.148322 -1.175047 0
M  V30 26 H -0.030207 -1.210214 -1.288186 0
M  V30 27 H 0.791648 1.327218 -2.815195 0
M  V30 28 H 1.221507 -0.371042 -3.269914 0
M  V30 29 H -1.293038 -0.828908 -3.058001 0
M  V30 30 H -0.862608 0.283881 -4.473351 0
M  V30 31 H -2.706093 0.746044 -2.280274 0
M  V30 32 H -2.001593 2.035601 -3.369864 0
M  V30 33 H -1.758036 2.389161 -1.047102 0
M  V30 34 H -0.196745 1.201997 0.236595 0
M  V30 35 H -1.560449 0.166864 -0.278236 0
M  V30 36 H 6.295439 -0.222484 2.417299 0
M  V30 37 H 4.552957 -1.058025 4.332088 0
M  V30 38 H -1.905068 -1.360008 1.539169 0
M  V30 39 H -3.911680 -2.035934 2.731728 0
M  V30 END ATOM
M  V30 BEGIN BOND
M  V30 1 2 1 2
M  V30 2 1 2 3
M  V30 3 1 3 4
M  V30 4 2 4 5
M  V30 5 1 5 6
M  V30 6 1 6 7
M  V30 7 1 7 8
M  V30 8 1 8 9
M  V30 9 1 9 10
M  V30 10 1 10 11
M  V30 11 1 11 12
M  V30 12 1 12 13
M  V30 13 2 6 14
M  V30 14 1 14 15
M  V30 15 1 15 16
M  V30 16 2 16 17
M  V30 17 1 17 18
M  V30 18 2 18 19
M  V30 19 2 3 20
M  V30 20 1 20 21
M  V30 21 2 21 22
M  V30 22 1 22 1
M  V30 23 1 19 4
M  V30 24 1 13 8
M  V30 25 1 18 14
M  V30 26 1 1 23
M  V30 27 1 2 24
M  V30 28 1 7 25
M  V30 29 1 8 26 CFG=3
M  V30 30 1 9 27
M  V30 31 1 9 28
M  V30 32 1 10 29
M  V30 33 1 10 30
M  V30 34 1 11 31
M  V30 35 1 11 32
M  V30 36 1 12 33
M  V30 37 1 13 34
M  V30 38 1 13 35
M  V30 39 1 16 36
M  V30 40 1 17 37
M  V30 41 1 20 38
M  V30 42 1 21 39
M  V30 END BOND
M  V30 END CTAB
M  END
>  <Dataset>  (915) 
ChEMBL_Kinases

>  <Ligand_Instance>  (915) 
nan

>  <PDB_ID>  (915) 
nan

>  <Standardized_SMILES>  (915) 
c1cc(-c2nc(N[C@@H]3CCCNC3)c3sccc3n2)ccn1

>  <Name>  (915) 
nan

>  <Pocket>  (915) 
nan

>  <ATP_Site>  (915) 
nan

>  <Peripheral>  (915) 
nan

>  <Num_H_Atoms_ProtBoundConf>  (915) 
nan

>  <Num_Resolved_Atoms>  (915) 
nan

>  <Num_Not_Resolved_Atoms>  (915) 
nan

$$$$
CHEMBL3729610
     RDKit          3D

  0  0  0  0  0  0  0  0  0  0999 V3000
M  V30 BEGIN CTAB
M  V30 COUNTS 48 51 0 0 0
M  V30 BEGIN ATOM
M  V30 1 C 0.331380 -5.772624 4.715638 0
M  V30 2 C -0.060997 -4.803271 3.696231 0
M  V30 3 S 1.211553 -4.211865 2.551779 0
M  V30 4 C 0.024094 -3.095314 1.631315 0
M  V30 5 C 0.262635 -2.255880 0.548561 0
M  V30 6 N 1.581814 -2.237610 0.026487 0
M  V30 7 C 2.030183 -1.436997 -1.063810 0
M  V30 8 C 2.304846 -0.000021 -0.793074 0 CFG=2
M  V30 9 N 3.363242 0.152692 0.215476 0
M  V30 10 C 1.147850 0.827704 -0.349134 0
M  V30 11 C 1.547914 2.254970 -0.134710 0
M  V30 12 C 1.483973 3.195998 -1.158712 0
M  V30 13 C 1.861240 4.517438 -0.935744 0
M  V30 14 C 2.306568 4.923534 0.304133 0
M  V30 15 C 2.376272 4.015574 1.320633 0
M  V30 16 C 2.003690 2.705078 1.105061 0
M  V30 17 N -0.801053 -1.569400 0.098020 0
M  V30 18 C -1.981988 -1.744368 0.714537 0
M  V30 19 C -3.154827 -0.994506 0.226189 0
M  V30 20 C -4.391082 -1.124726 0.808283 0
M  V30 21 C -5.498247 -0.426675 0.358957 0
M  V30 22 N -5.301849 0.402874 -0.697231 0
M  V30 23 C -4.080849 0.525371 -1.264855 0
M  V30 24 C -2.946732 -0.162549 -0.836907 0
M  V30 25 N -2.169208 -2.563197 1.754988 0
M  V30 26 C -1.178986 -3.298852 2.289522 0
M  V30 27 C -1.181083 -4.173886 3.333101 0
M  V30 28 Br -2.743572 -4.591664 4.370804 0
M  V30 29 H 0.926516 -6.623864 4.308363 0
M  V30 30 H -0.559215 -6.117808 5.252279 0
M  V30 31 H 0.952800 -5.217353 5.465244 0
M  V30 32 H 2.312159 -2.840118 0.444145 0
M  V30 33 H 2.967813 -1.877044 -1.523743 0
M  V30 34 H 1.268979 -1.465611 -1.911282 0
M  V30 35 H 2.709735 0.443640 -1.716997 0
M  V30 36 H 4.208310 -0.293453 -0.236407 0
M  V30 37 H 3.123570 -0.469195 1.014083 0
M  V30 38 H 0.852553 0.468100 0.687085 0
M  V30 39 H 0.249392 0.792382 -0.970528 0
M  V30 40 H 1.123819 2.794564 -2.099648 0
M  V30 41 H 1.777415 5.163113 -1.780425 0
M  V30 42 H 2.594985 5.941055 0.468423 0
M  V30 43 H 2.716973 4.270783 2.316168 0
M  V30 44 H 2.056057 1.980321 1.904821 0
M  V30 45 H -4.460204 -1.815778 1.655497 0
M  V30 46 H -6.432932 -0.575552 0.859126 0
M  V30 47 H -3.971725 1.205759 -2.113183 0
M  V30 48 H -2.019753 0.011018 -1.363834 0
M  V30 END ATOM
M  V30 BEGIN BOND
M  V30 1 1 1 2
M  V30 2 1 2 3
M  V30 3 1 3 4
M  V30 4 2 4 5
M  V30 5 1 5 6
M  V30 6 1 6 7
M  V30 7 1 7 8
M  V30 8 1 8 9
M  V30 9 1 8 10
M  V30 10 1 10 11
M  V30 11 2 11 12
M  V30 12 1 12 13
M  V30 13 2 13 14
M  V30 14 1 14 15
M  V30 15 2 15 16
M  V30 16 1 5 17
M  V30 17 2 17 18
M  V30 18 1 18 19
M  V30 19 2 19 20
M  V30 20 1 20 21
M  V30 21 2 21 22
M  V30 22 1 22 23
M  V30 23 2 23 24
M  V30 24 1 18 25
M  V30 25 2 25 26
M  V30 26 1 26 27
M  V30 27 1 27 28
M  V30 28 2 27 2
M  V30 29 1 26 4
M  V30 30 1 16 11
M  V30 31 1 24 19
M  V30 32 1 1 29
M  V30 33 1 1 30
M  V30 34 1 1 31
M  V30 35 1 6 32
M  V30 36 1 7 33
M  V30 37 1 7 34
M  V30 38 1 8 35 CFG=3
M  V30 39 1 9 36
M  V30 40 1 9 37
M  V30 41 1 10 38
M  V30 42 1 10 39
M  V30 43 1 12 40
M  V30 44 1 13 41
M  V30 45 1 14 42
M  V30 46 1 15 43
M  V30 47 1 16 44
M  V30 48 1 20 45
M  V30 49 1 21 46
M  V30 50 1 23 47
M  V30 51 1 24 48
M  V30 END BOND
M  V30 END CTAB
M  END
>  <Dataset>  (916) 
ChEMBL_Kinases

>  <Ligand_Instance>  (916) 
nan

>  <PDB_ID>  (916) 
nan

>  <Standardized_SMILES>  (916) 
Cc1sc2c(NC[C@H](N)Cc3ccccc3)nc(-c3ccncc3)nc2c1Br

>  <Name>  (916) 
nan

>  <Pocket>  (916) 
nan

>  <ATP_Site>  (916) 
nan

>  <Peripheral>  (916) 
nan

>  <Num_H_Atoms_ProtBoundConf>  (916) 
nan

>  <Num_Resolved_Atoms>  (916) 
nan

>  <Num_Not_Resolved_Atoms>  (916) 
nan

$$$$
CHEMBL3704396
     RDKit          3D

  0  0  0  0  0  0  0  0  0  0999 V3000
M  V30 BEGIN CTAB
M  V30 COUNTS 61 65 0 0 0
M  V30 BEGIN ATOM
M  V30 1 C 5.739166 -0.688290 7.232255 0
M  V30 2 N 5.026038 -0.265027 6.044182 0
M  V30 3 C 5.701419 0.909812 5.531256 0
M  V30 4 C 5.241245 1.264967 4.135663 0
M  V30 5 C 3.749092 1.306665 4.163203 0
M  V30 6 N 2.998502 1.874565 3.219786 0
M  V30 7 C 1.867107 1.955852 3.147144 0
M  V30 8 N 0.978081 2.575112 2.120516 0
M  V30 9 C 0.705485 1.551118 1.173283 0
M  V30 10 O 1.261746 0.455960 1.446695 0
M  V30 11 C -0.163001 1.855815 0.014369 0
M  V30 12 C -0.769269 3.053874 -0.285010 0
M  V30 13 C -1.543516 3.138193 -1.413419 0
M  V30 14 C -1.730952 2.056395 -2.255517 0
M  V30 15 C -1.145939 0.832600 -2.001597 0
M  V30 16 C -1.311238 -0.359262 -2.866711 0 CFG=2
M  V30 17 N -1.580424 -1.571394 -2.088381 0
M  V30 18 C -2.799126 -2.253026 -2.364283 0
M  V30 19 O -3.598938 -1.848223 -3.219253 0
M  V30 20 N -3.047595 -3.428849 -1.600897 0
M  V30 21 C -4.155851 -4.322731 -1.636359 0
M  V30 22 C -3.934679 -5.339290 -2.542483 0
M  V30 23 C -4.869451 -6.342206 -2.763493 0
M  V30 24 C -6.055336 -6.294747 -2.035043 0
M  V30 25 C -6.273306 -5.284010 -1.135207 0
M  V30 26 C -7.481618 -5.193026 -0.359293 0
M  V30 27 N -8.447723 -5.105711 0.274298 0
M  V30 28 C -5.333453 -4.285907 -0.920758 0
M  V30 29 C -0.067942 -0.544459 -3.722098 0
M  V30 30 C -0.151090 -1.735794 -4.633605 0
M  V30 31 C -0.165407 -0.371921 -5.202913 0
M  V30 32 C -0.367690 0.777058 -0.852267 0
M  V30 33 S 1.326094 1.051409 4.755707 0
M  V30 34 C 3.035807 0.740802 5.192394 0
M  V30 35 C 3.645029 0.042806 6.364832 0
M  V30 36 H 6.322589 0.161169 7.634992 0
M  V30 37 H 5.061181 -1.114895 7.998752 0
M  V30 38 H 6.496483 -1.449291 6.889958 0
M  V30 39 H 5.481697 1.800582 6.174862 0
M  V30 40 H 6.795437 0.697773 5.502450 0
M  V30 41 H 5.621213 0.547185 3.367518 0
M  V30 42 H 5.711785 2.235214 3.903118 0
M  V30 43 H 0.610644 3.534331 2.063244 0
M  V30 44 H -0.568785 3.844833 0.426991 0
M  V30 45 H -2.002836 4.096855 -1.614370 0
M  V30 46 H -2.349664 2.152812 -3.142150 0
M  V30 47 H -2.132860 -0.146127 -3.572487 0
M  V30 48 H -0.858596 -1.847299 -1.387543 0
M  V30 49 H -2.375500 -3.792671 -0.862858 0
M  V30 50 H -3.044978 -5.485581 -3.173905 0
M  V30 51 H -4.781367 -7.170705 -3.448046 0
M  V30 52 H -6.884584 -7.016184 -2.102869 0
M  V30 53 H -5.396855 -3.455304 -0.249507 0
M  V30 54 H 0.915917 -0.328909 -3.274944 0
M  V30 55 H -1.104070 -2.292924 -4.733193 0
M  V30 56 H 0.750170 -2.367881 -4.713774 0
M  V30 57 H 0.735692 -0.067667 -5.765817 0
M  V30 58 H -1.113174 0.049060 -5.639126 0
M  V30 59 H 0.094335 -0.199370 -0.657245 0
M  V30 60 H 3.144277 -0.919698 6.600826 0
M  V30 61 H 3.562763 0.664947 7.293557 0
M  V30 END ATOM
M  V30 BEGIN BOND
M  V30 1 1 1 2
M  V30 2 1 2 3
M  V30 3 1 3 4
M  V30 4 1 4 5
M  V30 5 1 5 6
M  V30 6 2 6 7
M  V30 7 1 7 8
M  V30 8 1 8 9
M  V30 9 2 9 10
M  V30 10 1 9 11
M  V30 11 2 11 12
M  V30 12 1 12 13
M  V30 13 2 13 14
M  V30 14 1 14 15
M  V30 15 1 15 16
M  V30 16 1 16 17
M  V30 17 1 17 18
M  V30 18 2 18 19
M  V30 19 1 18 20
M  V30 20 1 20 21
M  V30 21 2 21 22
M  V30 22 1 22 23
M  V30 23 2 23 24
M  V30 24 1 24 25
M  V30 25 1 25 26
M  V30 26 3 26 27
M  V30 27 2 25 28
M  V30 28 1 16 29
M  V30 29 1 29 30
M  V30 30 1 30 31
M  V30 31 2 15 32
M  V30 32 1 7 33
M  V30 33 1 33 34
M  V30 34 1 34 35
M  V30 35 1 35 2
M  V30 36 2 34 5
M  V30 37 1 32 11
M  V30 38 1 28 21
M  V30 39 1 31 29
M  V30 40 1 1 36
M  V30 41 1 1 37
M  V30 42 1 1 38
M  V30 43 1 3 39
M  V30 44 1 3 40
M  V30 45 1 4 41
M  V30 46 1 4 42
M  V30 47 1 8 43
M  V30 48 1 12 44
M  V30 49 1 13 45
M  V30 50 1 14 46
M  V30 51 1 16 47 CFG=3
M  V30 52 1 17 48
M  V30 53 1 20 49
M  V30 54 1 22 50
M  V30 55 1 23 51
M  V30 56 1 24 52
M  V30 57 1 28 53
M  V30 58 1 29 54
M  V30 59 1 30 55
M  V30 60 1 30 56
M  V30 61 1 31 57
M  V30 62 1 31 58
M  V30 63 1 32 59
M  V30 64 1 35 60
M  V30 65 1 35 61
M  V30 END BOND
M  V30 END CTAB
M  END
>  <Dataset>  (917) 
ChEMBL_Kinases

>  <Ligand_Instance>  (917) 
nan

>  <PDB_ID>  (917) 
nan

>  <Standardized_SMILES>  (917) 
CN1CCc2nc(NC(=O)c3cccc([C@H](NC(=O)Nc4cccc(C#N)c4)C4CC4)c3)sc2C1

>  <Name>  (917) 
nan

>  <Pocket>  (917) 
nan

>  <ATP_Site>  (917) 
nan

>  <Peripheral>  (917) 
nan

>  <Num_H_Atoms_ProtBoundConf>  (917) 
nan

>  <Num_Resolved_Atoms>  (917) 
nan

>  <Num_Not_Resolved_Atoms>  (917) 
nan

$$$$
CHEMBL3729595
     RDKit          3D

  0  0  0  0  0  0  0  0  0  0999 V3000
M  V30 BEGIN CTAB
M  V30 COUNTS 54 57 0 0 0
M  V30 BEGIN ATOM
M  V30 1 C 2.903844 -4.580894 0.354957 0
M  V30 2 N 4.295873 -4.392746 0.676166 0
M  V30 3 C 4.443006 -4.064174 2.062985 0
M  V30 4 C 4.899439 -3.453733 -0.239414 0
M  V30 5 C 4.445343 -2.061353 -0.109883 0
M  V30 6 O 5.146269 -1.534747 -1.044753 0
M  V30 7 N 3.610965 -1.147048 0.580293 0
M  V30 8 C 2.701042 -1.285218 1.658151 0
M  V30 9 C 1.803680 -0.105297 1.933443 0
M  V30 10 C 1.150237 0.348564 0.706404 0
M  V30 11 C 2.177349 0.524037 -0.190550 0
M  V30 12 S 1.459785 1.075696 -1.696515 0
M  V30 13 C -0.260980 1.045646 -1.029454 0
M  V30 14 N -1.435045 1.365277 -1.651297 0
M  V30 15 C -2.585839 1.270636 -0.970043 0
M  V30 16 C -3.794759 1.615033 -1.660427 0
M  V30 17 C -4.995390 1.523019 -0.966733 0
M  V30 18 C -6.206185 1.844429 -1.583993 0
M  V30 19 N -6.181556 2.246585 -2.870628 0
M  V30 20 C -4.993566 2.326414 -3.521284 0
M  V30 21 C -3.767577 2.026095 -2.976293 0
M  V30 22 N -2.468141 0.867959 0.265487 0
M  V30 23 C -1.334120 0.554066 0.882557 0
M  V30 24 N -1.500159 0.149418 2.249566 0
M  V30 25 C -2.815003 0.088188 2.863923 0
M  V30 26 C -3.701969 -0.960972 2.209047 0
M  V30 27 N -5.006630 -1.003818 2.843339 0
M  V30 28 C -0.100661 0.617337 0.272400 0
M  V30 29 C 3.634428 0.259092 0.144988 0
M  V30 30 H 2.785328 -5.618415 -0.075237 0
M  V30 31 H 2.248751 -4.542115 1.264813 0
M  V30 32 H 2.584546 -3.885849 -0.433966 0
M  V30 33 H 5.019323 -3.131005 2.236404 0
M  V30 34 H 3.460571 -3.939146 2.587291 0
M  V30 35 H 4.987662 -4.859928 2.639927 0
M  V30 36 H 4.712890 -3.886037 -1.255274 0
M  V30 37 H 6.021077 -3.556976 -0.094290 0
M  V30 38 H 2.042069 -2.170853 1.572185 0
M  V30 39 H 3.330919 -1.471667 2.581750 0
M  V30 40 H 1.198224 -0.318944 2.801133 0
M  V30 41 H 2.515554 0.714979 2.278309 0
M  V30 42 H -4.976392 1.192761 0.077502 0
M  V30 43 H -7.101135 1.742211 -0.959516 0
M  V30 44 H -5.066525 2.663306 -4.567749 0
M  V30 45 H -2.854001 2.107849 -3.541080 0
M  V30 46 H -0.928182 -0.156522 3.051575 0
M  V30 47 H -2.854964 0.007200 3.937532 0
M  V30 48 H -3.310837 1.068560 2.554315 0
M  V30 49 H -3.190780 -1.941646 2.320715 0
M  V30 50 H -3.882521 -0.800040 1.146844 0
M  V30 51 H -4.992733 -1.553429 3.743200 0
M  V30 52 H -5.607040 -1.596335 2.203696 0
M  V30 53 H 4.216510 0.360209 -0.797163 0
M  V30 54 H 4.008964 0.890891 0.943346 0
M  V30 END ATOM
M  V30 BEGIN BOND
M  V30 1 1 1 2
M  V30 2 1 2 3
M  V30 3 1 2 4
M  V30 4 1 4 5
M  V30 5 2 5 6
M  V30 6 1 5 7
M  V30 7 1 7 8
M  V30 8 1 8 9
M  V30 9 1 9 10
M  V30 10 2 10 11
M  V30 11 1 11 12
M  V30 12 1 12 13
M  V30 13 2 13 14
M  V30 14 1 14 15
M  V30 15 1 15 16
M  V30 16 2 16 17
M  V30 17 1 17 18
M  V30 18 2 18 19
M  V30 19 1 19 20
M  V30 20 2 20 21
M  V30 21 2 15 22
M  V30 22 1 22 23
M  V30 23 1 23 24
M  V30 24 1 24 25
M  V30 25 1 25 26
M  V30 26 1 26 27
M  V30 27 2 23 28
M  V30 28 1 11 29
M  V30 29 1 29 7
M  V30 30 1 28 10
M  V30 31 1 28 13
M  V30 32 1 21 16
M  V30 33 1 1 30
M  V30 34 1 1 31
M  V30 35 1 1 32
M  V30 36 1 3 33
M  V30 37 1 3 34
M  V30 38 1 3 35
M  V30 39 1 4 36
M  V30 40 1 4 37
M  V30 41 1 8 38
M  V30 42 1 8 39
M  V30 43 1 9 40
M  V30 44 1 9 41
M  V30 45 1 17 42
M  V30 46 1 18 43
M  V30 47 1 20 44
M  V30 48 1 21 45
M  V30 49 1 24 46
M  V30 50 1 25 47
M  V30 51 1 25 48
M  V30 52 1 26 49
M  V30 53 1 26 50
M  V30 54 1 27 51
M  V30 55 1 27 52
M  V30 56 1 29 53
M  V30 57 1 29 54
M  V30 END BOND
M  V30 END CTAB
M  END
>  <Dataset>  (918) 
ChEMBL_Kinases

>  <Ligand_Instance>  (918) 
nan

>  <PDB_ID>  (918) 
nan

>  <Standardized_SMILES>  (918) 
CN(C)CC(=O)N1CCc2c(sc3nc(-c4ccncc4)nc(NCCN)c23)C1

>  <Name>  (918) 
nan

>  <Pocket>  (918) 
nan

>  <ATP_Site>  (918) 
nan

>  <Peripheral>  (918) 
nan

>  <Num_H_Atoms_ProtBoundConf>  (918) 
nan

>  <Num_Resolved_Atoms>  (918) 
nan

>  <Num_Not_Resolved_Atoms>  (918) 
nan

$$$$
CHEMBL3729587
     RDKit          3D

  0  0  0  0  0  0  0  0  0  0999 V3000
M  V30 BEGIN CTAB
M  V30 COUNTS 54 57 0 0 0
M  V30 BEGIN ATOM
M  V30 1 C 4.694092 -3.096005 -2.380844 0
M  V30 2 C 4.646096 -3.689626 -0.986948 0
M  V30 3 C 5.692502 -3.045699 -0.136292 0
M  V30 4 C 3.330788 -3.440946 -0.429420 0
M  V30 5 C 2.605232 -2.351838 -0.127087 0
M  V30 6 C 1.351200 -2.487086 0.406503 0
M  V30 7 C 0.468533 -1.495342 0.776115 0
M  V30 8 N 0.784041 -0.116930 0.634504 0
M  V30 9 C -0.148226 0.922945 1.024921 0
M  V30 10 C 0.453300 2.294260 0.761820 0 CFG=1
M  V30 11 N 0.758383 2.453944 -0.643725 0
M  V30 12 C -0.518321 3.326017 1.274766 0
M  V30 13 C -1.834635 3.247504 0.610327 0
M  V30 14 C -2.833731 2.445442 1.125351 0
M  V30 15 C -4.080763 2.370391 0.496808 0
M  V30 16 C -4.255393 3.137689 -0.659066 0
M  V30 17 C -3.250493 3.938372 -1.168794 0
M  V30 18 C -2.013270 3.992720 -0.517581 0
M  V30 19 N -0.710498 -1.829130 1.278914 0
M  V30 20 C -1.172853 -3.071813 1.482180 0
M  V30 21 C -2.463294 -3.456129 2.032589 0
M  V30 22 C -3.349294 -2.459410 2.403554 0
M  V30 23 C -4.589834 -2.802605 2.932531 0
M  V30 24 N -4.924217 -4.100536 3.081750 0
M  V30 25 C -4.056981 -5.051623 2.718507 0
M  V30 26 C -2.829905 -4.780482 2.195647 0
M  V30 27 N -0.323754 -4.051600 1.126765 0
M  V30 28 C 0.889096 -3.805615 0.610076 0
M  V30 29 S 2.247516 -4.852586 0.038604 0
M  V30 30 H 4.498534 -3.890683 -3.156870 0
M  V30 31 H 5.638072 -2.551035 -2.580044 0
M  V30 32 H 3.878319 -2.352635 -2.519176 0
M  V30 33 H 4.883406 -4.786535 -1.082157 0
M  V30 34 H 6.594253 -2.817520 -0.774954 0
M  V30 35 H 5.314216 -2.079126 0.301905 0
M  V30 36 H 6.006274 -3.713885 0.690266 0
M  V30 37 H 3.100097 -1.415607 -0.342482 0
M  V30 38 H 1.719271 0.132917 0.235759 0
M  V30 39 H -0.376718 0.905237 2.122091 0
M  V30 40 H -1.112407 0.796968 0.496873 0
M  V30 41 H 1.406458 2.424674 1.298474 0
M  V30 42 H 1.073992 3.443684 -0.780937 0
M  V30 43 H 1.598869 1.868715 -0.842892 0
M  V30 44 H -0.128135 4.358819 1.160960 0
M  V30 45 H -0.614722 3.123067 2.373435 0
M  V30 46 H -2.697717 1.851109 2.021104 0
M  V30 47 H -4.902689 1.762564 0.849106 0
M  V30 48 H -5.175924 3.159499 -1.229051 0
M  V30 49 H -3.394064 4.532577 -2.068804 0
M  V30 50 H -1.252632 4.622530 -0.936022 0
M  V30 51 H -3.080291 -1.439170 2.283646 0
M  V30 52 H -5.242338 -1.995275 3.205328 0
M  V30 53 H -4.324047 -6.106627 2.837786 0
M  V30 54 H -2.084433 -5.502000 1.882880 0
M  V30 END ATOM
M  V30 BEGIN BOND
M  V30 1 1 1 2
M  V30 2 1 2 3
M  V30 3 1 2 4
M  V30 4 2 4 5
M  V30 5 1 5 6
M  V30 6 2 6 7
M  V30 7 1 7 8
M  V30 8 1 8 9
M  V30 9 1 9 10
M  V30 10 1 10 11
M  V30 11 1 10 12
M  V30 12 1 12 13
M  V30 13 2 13 14
M  V30 14 1 14 15
M  V30 15 2 15 16
M  V30 16 1 16 17
M  V30 17 2 17 18
M  V30 18 1 7 19
M  V30 19 2 19 20
M  V30 20 1 20 21
M  V30 21 2 21 22
M  V30 22 1 22 23
M  V30 23 2 23 24
M  V30 24 1 24 25
M  V30 25 2 25 26
M  V30 26 1 20 27
M  V30 27 2 27 28
M  V30 28 1 28 29
M  V30 29 1 29 4
M  V30 30 1 28 6
M  V30 31 1 18 13
M  V30 32 1 26 21
M  V30 33 1 1 30
M  V30 34 1 1 31
M  V30 35 1 1 32
M  V30 36 1 2 33
M  V30 37 1 3 34
M  V30 38 1 3 35
M  V30 39 1 3 36
M  V30 40 1 5 37
M  V30 41 1 8 38
M  V30 42 1 9 39
M  V30 43 1 9 40
M  V30 44 1 10 41 CFG=1
M  V30 45 1 11 42
M  V30 46 1 11 43
M  V30 47 1 12 44
M  V30 48 1 12 45
M  V30 49 1 14 46
M  V30 50 1 15 47
M  V30 51 1 16 48
M  V30 52 1 17 49
M  V30 53 1 18 50
M  V30 54 1 22 51
M  V30 55 1 23 52
M  V30 56 1 25 53
M  V30 57 1 26 54
M  V30 END BOND
M  V30 END CTAB
M  END
>  <Dataset>  (919) 
ChEMBL_Kinases

>  <Ligand_Instance>  (919) 
nan

>  <PDB_ID>  (919) 
nan

>  <Standardized_SMILES>  (919) 
CC(C)c1cc2c(NC[C@@H](N)Cc3ccccc3)nc(-c3ccncc3)nc2s1

>  <Name>  (919) 
nan

>  <Pocket>  (919) 
nan

>  <ATP_Site>  (919) 
nan

>  <Peripheral>  (919) 
nan

>  <Num_H_Atoms_ProtBoundConf>  (919) 
nan

>  <Num_Resolved_Atoms>  (919) 
nan

>  <Num_Not_Resolved_Atoms>  (919) 
nan

$$$$
CHEMBL3729586
     RDKit          3D

  0  0  0  0  0  0  0  0  0  0999 V3000
M  V30 BEGIN CTAB
M  V30 COUNTS 38 41 0 0 0
M  V30 BEGIN ATOM
M  V30 1 N -0.506413 -3.079224 4.807408 0
M  V30 2 C 0.006718 -3.080644 3.491576 0
M  V30 3 C 0.429447 -4.370977 3.042029 0
M  V30 4 S 1.052564 -4.035631 1.278236 0
M  V30 5 C 0.676640 -2.214523 1.346473 0
M  V30 6 C 0.857954 -1.256086 0.409469 0
M  V30 7 N 1.412601 -1.622974 -0.832485 0
M  V30 8 C 1.580562 -0.576111 -1.779437 0 CFG=2
M  V30 9 C 0.331928 0.141708 -2.195256 0
M  V30 10 C -0.379796 -0.956170 -2.950294 0
M  V30 11 N 0.660404 -1.657794 -3.652793 0
M  V30 12 C 1.945009 -1.188223 -3.129399 0
M  V30 13 N 0.487628 -0.012551 0.747488 0
M  V30 14 C -0.040652 0.217731 1.989585 0
M  V30 15 C -0.457781 1.556954 2.400468 0
M  V30 16 C -0.288353 2.560705 1.471038 0
M  V30 17 C -0.673849 3.835675 1.832312 0
M  V30 18 N -1.205938 4.130029 3.053010 0
M  V30 19 C -1.359883 3.115135 3.948197 0
M  V30 20 C -0.993112 1.819656 3.645084 0
M  V30 21 N -0.201593 -0.766087 2.886821 0
M  V30 22 C 0.140900 -2.038209 2.634264 0
M  V30 23 H 0.292272 -2.719289 5.360170 0
M  V30 24 H -1.508227 -3.433986 4.808743 0
M  V30 25 H 0.458149 -5.306343 3.428743 0
M  V30 26 H 1.685279 -2.604011 -1.048281 0
M  V30 27 H 2.402414 0.106489 -1.480603 0
M  V30 28 H -0.242186 0.630718 -1.423776 0
M  V30 29 H 0.642839 0.918078 -2.928094 0
M  V30 30 H -0.903654 -1.607564 -2.198764 0
M  V30 31 H -1.153229 -0.515235 -3.585953 0
M  V30 32 H 0.590366 -2.678349 -3.362579 0
M  V30 33 H 2.638949 -2.040065 -2.980747 0
M  V30 34 H 2.374690 -0.401890 -3.762968 0
M  V30 35 H 0.133875 2.362400 0.485036 0
M  V30 36 H -0.537165 4.626371 1.091914 0
M  V30 37 H -1.780548 3.333927 4.920135 0
M  V30 38 H -1.094089 0.985228 4.315408 0
M  V30 END ATOM
M  V30 BEGIN BOND
M  V30 1 1 1 2
M  V30 2 2 2 3
M  V30 3 1 3 4
M  V30 4 1 4 5
M  V30 5 2 5 6
M  V30 6 1 6 7
M  V30 7 1 7 8
M  V30 8 1 8 9
M  V30 9 1 9 10
M  V30 10 1 10 11
M  V30 11 1 11 12
M  V30 12 1 6 13
M  V30 13 2 13 14
M  V30 14 1 14 15
M  V30 15 2 15 16
M  V30 16 1 16 17
M  V30 17 2 17 18
M  V30 18 1 18 19
M  V30 19 2 19 20
M  V30 20 1 14 21
M  V30 21 2 21 22
M  V30 22 1 22 2
M  V30 23 1 22 5
M  V30 24 1 12 8
M  V30 25 1 20 15
M  V30 26 1 1 23
M  V30 27 1 1 24
M  V30 28 1 3 25
M  V30 29 1 7 26
M  V30 30 1 8 27 CFG=1
M  V30 31 1 9 28
M  V30 32 1 9 29
M  V30 33 1 10 30
M  V30 34 1 10 31
M  V30 35 1 11 32
M  V30 36 1 12 33
M  V30 37 1 12 34
M  V30 38 1 16 35
M  V30 39 1 17 36
M  V30 40 1 19 37
M  V30 41 1 20 38
M  V30 END BOND
M  V30 END CTAB
M  END
>  <Dataset>  (920) 
ChEMBL_Kinases

>  <Ligand_Instance>  (920) 
nan

>  <PDB_ID>  (920) 
nan

>  <Standardized_SMILES>  (920) 
Nc1csc2c(N[C@@H]3CCNC3)nc(-c3ccncc3)nc12

>  <Name>  (920) 
nan

>  <Pocket>  (920) 
nan

>  <ATP_Site>  (920) 
nan

>  <Peripheral>  (920) 
nan

>  <Num_H_Atoms_ProtBoundConf>  (920) 
nan

>  <Num_Resolved_Atoms>  (920) 
nan

>  <Num_Not_Resolved_Atoms>  (920) 
nan

$$$$
CHEMBL3704397
     RDKit          3D

  0  0  0  0  0  0  0  0  0  0999 V3000
M  V30 BEGIN CTAB
M  V30 COUNTS 66 69 0 0 0
M  V30 BEGIN ATOM
M  V30 1 C 2.839708 0.054036 4.765717 0
M  V30 2 O 2.910508 -1.312699 4.551765 0
M  V30 3 C 4.061308 -1.889907 5.014112 0
M  V30 4 C 5.303010 -1.348405 4.362715 0
M  V30 5 N 5.326539 -1.536948 2.949961 0
M  V30 6 C 5.448278 -2.916831 2.553814 0
M  V30 7 C 6.253281 -0.680767 2.268612 0
M  V30 8 C 6.250908 -1.117502 0.809801 0
M  V30 9 C 6.019845 0.035841 -0.143609 0
M  V30 10 C 4.706495 0.640942 0.218827 0
M  V30 11 N 3.642618 0.846845 -0.531493 0
M  V30 12 C 2.618666 1.339653 -0.169413 0
M  V30 13 N 1.406747 1.584791 -0.985728 0
M  V30 14 C 0.612902 0.439542 -0.889422 0
M  V30 15 O 1.087492 -0.496250 -0.165422 0
M  V30 16 C -0.676120 0.266940 -1.546565 0
M  V30 17 C -1.202966 1.289375 -2.320158 0
M  V30 18 C -2.422879 1.110462 -2.935776 0
M  V30 19 C -3.119910 -0.066948 -2.790890 0
M  V30 20 C -2.627439 -1.117428 -2.023971 0
M  V30 21 O -3.156258 -2.354502 -1.755754 0
M  V30 22 C -4.366881 -2.880058 -2.199948 0
M  V30 23 C -5.573089 -2.141113 -1.770328 0
M  V30 24 O -6.579322 -2.759138 -2.269754 0
M  V30 25 N -5.851727 -0.978013 -0.980359 0
M  V30 26 C -7.284896 -0.844986 -0.991201 0
M  V30 27 C -7.796087 -0.082288 -2.006669 0
M  V30 28 C -9.165212 0.072897 -2.059116 0
M  V30 29 C -9.927930 -0.550758 -1.085054 0
M  V30 30 C -11.359241 -0.351864 -1.191185 0
M  V30 31 N -12.500497 -0.180530 -1.269019 0
M  V30 32 C -9.423610 -1.321144 -0.057892 0
M  V30 33 C -8.051984 -1.465593 -0.020746 0
M  V30 34 C -1.391194 -0.905506 -1.414312 0
M  V30 35 S 2.936611 1.698090 1.599338 0
M  V30 36 C 4.608927 1.048270 1.578520 0
M  V30 37 C 5.862588 0.772898 2.342022 0
M  V30 38 H 1.873729 0.463319 4.374154 0
M  V30 39 H 2.932577 0.221145 5.862676 0
M  V30 40 H 3.663070 0.614717 4.289301 0
M  V30 41 H 4.129286 -1.609172 6.108386 0
M  V30 42 H 4.033002 -2.995869 5.030941 0
M  V30 43 H 5.406847 -0.288559 4.647199 0
M  V30 44 H 6.152048 -1.947567 4.829218 0
M  V30 45 H 6.388603 -3.162091 2.023537 0
M  V30 46 H 5.356285 -3.637609 3.390424 0
M  V30 47 H 4.572398 -3.166308 1.885150 0
M  V30 48 H 7.294707 -0.763487 2.638616 0
M  V30 49 H 5.485290 -1.884437 0.586483 0
M  V30 50 H 7.236005 -1.547167 0.520317 0
M  V30 51 H 6.008440 -0.408328 -1.160764 0
M  V30 52 H 6.838823 0.782546 -0.125208 0
M  V30 53 H 1.102727 2.381870 -1.546287 0
M  V30 54 H -0.703003 2.236313 -2.472199 0
M  V30 55 H -2.905154 1.862854 -3.558863 0
M  V30 56 H -4.087733 -0.308438 -3.233048 0
M  V30 57 H -4.435785 -3.947287 -1.866809 0
M  V30 58 H -4.340014 -2.849419 -3.312346 0
M  V30 59 H -4.938899 -0.600320 -0.647812 0
M  V30 60 H -7.176757 0.397594 -2.759997 0
M  V30 61 H -9.619260 0.665949 -2.840960 0
M  V30 62 H -10.066888 -1.774845 0.660944 0
M  V30 63 H -7.605604 -2.066547 0.774273 0
M  V30 64 H -0.900475 -1.664500 -0.783121 0
M  V30 65 H 5.800078 1.158079 3.345937 0
M  V30 66 H 6.643252 1.361855 1.815674 0
M  V30 END ATOM
M  V30 BEGIN BOND
M  V30 1 1 1 2
M  V30 2 1 2 3
M  V30 3 1 3 4
M  V30 4 1 4 5
M  V30 5 1 5 6
M  V30 6 1 5 7
M  V30 7 1 7 8
M  V30 8 1 8 9
M  V30 9 1 9 10
M  V30 10 1 10 11
M  V30 11 2 11 12
M  V30 12 1 12 13
M  V30 13 1 13 14
M  V30 14 2 14 15
M  V30 15 1 14 16
M  V30 16 2 16 17
M  V30 17 1 17 18
M  V30 18 2 18 19
M  V30 19 1 19 20
M  V30 20 1 20 21
M  V30 21 1 21 22
M  V30 22 1 22 23
M  V30 23 2 23 24
M  V30 24 1 23 25
M  V30 25 1 25 26
M  V30 26 2 26 27
M  V30 27 1 27 28
M  V30 28 2 28 29
M  V30 29 1 29 30
M  V30 30 3 30 31
M  V30 31 1 29 32
M  V30 32 2 32 33
M  V30 33 2 20 34
M  V30 34 1 12 35
M  V30 35 1 35 36
M  V30 36 1 36 37
M  V30 37 1 37 7
M  V30 38 2 36 10
M  V30 39 1 34 16
M  V30 40 1 33 26
M  V30 41 1 1 38
M  V30 42 1 1 39
M  V30 43 1 1 40
M  V30 44 1 3 41
M  V30 45 1 3 42
M  V30 46 1 4 43
M  V30 47 1 4 44
M  V30 48 1 6 45
M  V30 49 1 6 46
M  V30 50 1 6 47
M  V30 51 1 7 48
M  V30 52 1 8 49
M  V30 53 1 8 50
M  V30 54 1 9 51
M  V30 55 1 9 52
M  V30 56 1 13 53
M  V30 57 1 17 54
M  V30 58 1 18 55
M  V30 59 1 19 56
M  V30 60 1 22 57
M  V30 61 1 22 58
M  V30 62 1 25 59
M  V30 63 1 27 60
M  V30 64 1 28 61
M  V30 65 1 32 62
M  V30 66 1 33 63
M  V30 67 1 34 64
M  V30 68 1 37 65
M  V30 69 1 37 66
M  V30 END BOND
M  V30 END CTAB
M  END
>  <Dataset>  (921) 
ChEMBL_Kinases

>  <Ligand_Instance>  (921) 
nan

>  <PDB_ID>  (921) 
nan

>  <Standardized_SMILES>  (921) 
COCCN(C)C1CCc2nc(NC(=O)c3cccc(OCC(=O)Nc4ccc(C#N)cc4)c3)sc2C1

>  <Name>  (921) 
nan

>  <Pocket>  (921) 
nan

>  <ATP_Site>  (921) 
nan

>  <Peripheral>  (921) 
nan

>  <Num_H_Atoms_ProtBoundConf>  (921) 
nan

>  <Num_Resolved_Atoms>  (921) 
nan

>  <Num_Not_Resolved_Atoms>  (921) 
nan

$$$$
CHEMBL3729562
     RDKit          3D

  0  0  0  0  0  0  0  0  0  0999 V3000
M  V30 BEGIN CTAB
M  V30 COUNTS 45 48 0 0 0
M  V30 BEGIN ATOM
M  V30 1 C -0.999186 -6.441857 1.922423 0
M  V30 2 C 0.335898 -6.115723 2.549588 0 CFG=2
M  V30 3 O 0.154386 -6.239062 3.939407 0
M  V30 4 C 0.762275 -4.762605 2.190469 0
M  V30 5 C 1.098322 -3.627243 1.885452 0
M  V30 6 C 1.468942 -2.288399 1.522197 0
M  V30 7 C 2.826236 -1.976089 1.633301 0
M  V30 8 S 2.907973 -0.173808 1.080230 0
M  V30 9 C 1.229109 -0.041384 0.780057 0
M  V30 10 C 0.423831 1.014092 0.322418 0
M  V30 11 N 0.998615 2.270817 0.022905 0
M  V30 12 C 1.980037 3.260679 -0.121206 0 CFG=2
M  V30 13 C 3.137481 2.901265 -1.068584 0
M  V30 14 C 4.046574 4.103004 -0.776001 0
M  V30 15 N 3.792153 4.493341 0.595006 0
M  V30 16 C 2.811141 3.556576 1.135630 0
M  V30 17 N -0.923061 0.812648 0.175527 0
M  V30 18 C -1.411771 -0.395390 0.479348 0
M  V30 19 C -2.851027 -0.572989 0.310633 0
M  V30 20 C -3.599429 0.491913 -0.141376 0
M  V30 21 C -4.959578 0.296533 -0.292058 0
M  V30 22 N -5.523048 -0.887344 -0.007257 0
M  V30 23 C -4.748691 -1.916386 0.437508 0
M  V30 24 C -3.372430 -1.811818 0.619295 0
M  V30 25 F -2.630716 -2.848106 1.061230 0
M  V30 26 N -0.612620 -1.356191 0.906382 0
M  V30 27 C 0.709249 -1.250914 1.079500 0
M  V30 28 H -1.070805 -7.544309 1.911567 0
M  V30 29 H -1.791255 -6.017128 2.555024 0
M  V30 30 H -1.077282 -5.988307 0.921524 0
M  V30 31 H 1.135166 -6.798222 2.240717 0
M  V30 32 H 0.766977 -5.564435 4.331497 0
M  V30 33 H 3.726208 -2.587527 1.963851 0
M  V30 34 H 0.202682 2.890294 -0.318049 0
M  V30 35 H 1.628151 4.280890 -0.455130 0
M  V30 36 H 2.821374 2.864774 -2.113264 0
M  V30 37 H 3.668877 2.032466 -0.701501 0
M  V30 38 H 3.715886 4.902803 -1.473088 0
M  V30 39 H 5.100635 3.894892 -0.987464 0
M  V30 40 H 3.330815 5.443952 0.601688 0
M  V30 41 H 3.375075 2.670888 1.418766 0
M  V30 42 H 2.190433 4.015192 1.917551 0
M  V30 43 H -3.163184 1.461764 -0.378646 0
M  V30 44 H -5.611297 1.077246 -0.639516 0
M  V30 45 H -5.170287 -2.903797 0.682596 0
M  V30 END ATOM
M  V30 BEGIN BOND
M  V30 1 1 1 2
M  V30 2 1 2 3
M  V30 3 1 2 4
M  V30 4 3 4 5
M  V30 5 1 5 6
M  V30 6 2 6 7
M  V30 7 1 7 8
M  V30 8 1 8 9
M  V30 9 2 9 10
M  V30 10 1 10 11
M  V30 11 1 11 12
M  V30 12 1 12 13
M  V30 13 1 13 14
M  V30 14 1 14 15
M  V30 15 1 15 16
M  V30 16 1 10 17
M  V30 17 2 17 18
M  V30 18 1 18 19
M  V30 19 2 19 20
M  V30 20 1 20 21
M  V30 21 2 21 22
M  V30 22 1 22 23
M  V30 23 2 23 24
M  V30 24 1 24 25
M  V30 25 1 18 26
M  V30 26 2 26 27
M  V30 27 1 27 6
M  V30 28 1 27 9
M  V30 29 1 16 12
M  V30 30 1 24 19
M  V30 31 1 1 28
M  V30 32 1 1 29
M  V30 33 1 1 30
M  V30 34 1 2 31 CFG=3
M  V30 35 1 3 32
M  V30 36 1 7 33
M  V30 37 1 11 34
M  V30 38 1 12 35 CFG=3
M  V30 39 1 13 36
M  V30 40 1 13 37
M  V30 41 1 14 38
M  V30 42 1 14 39
M  V30 43 1 15 40
M  V30 44 1 16 41
M  V30 45 1 16 42
M  V30 46 1 20 43
M  V30 47 1 21 44
M  V30 48 1 23 45
M  V30 END BOND
M  V30 END CTAB
M  END
>  <Dataset>  (922) 
ChEMBL_Kinases

>  <Ligand_Instance>  (922) 
nan

>  <PDB_ID>  (922) 
nan

>  <Standardized_SMILES>  (922) 
C[C@H](O)C#Cc1csc2c(N[C@@H]3CCNC3)nc(-c3ccncc3F)nc12

>  <Name>  (922) 
nan

>  <Pocket>  (922) 
nan

>  <ATP_Site>  (922) 
nan

>  <Peripheral>  (922) 
nan

>  <Num_H_Atoms_ProtBoundConf>  (922) 
nan

>  <Num_Resolved_Atoms>  (922) 
nan

>  <Num_Not_Resolved_Atoms>  (922) 
nan

$$$$
CHEMBL3704398
     RDKit          3D

  0  0  0  0  0  0  0  0  0  0999 V3000
M  V30 BEGIN CTAB
M  V30 COUNTS 61 65 0 0 0
M  V30 BEGIN ATOM
M  V30 1 C 6.399506 -1.918438 6.724570 0
M  V30 2 N 5.595234 -1.281078 5.733071 0
M  V30 3 C 6.145093 -0.073206 5.182876 0
M  V30 4 C 5.638498 0.251401 3.814183 0
M  V30 5 C 4.134846 0.314159 3.918375 0
M  V30 6 N 3.256416 0.949241 3.174860 0
M  V30 7 C 2.137692 1.027289 3.209694 0
M  V30 8 N 1.200862 1.789090 2.303621 0
M  V30 9 C 0.803496 0.983147 1.228342 0
M  V30 10 O 1.293977 -0.177278 1.234630 0
M  V30 11 C -0.108665 1.520521 0.223404 0
M  V30 12 C -0.632097 2.795144 0.235984 0
M  V30 13 C -1.492271 3.214186 -0.761414 0
M  V30 14 C -1.867861 2.381256 -1.814222 0
M  V30 15 C -1.360059 1.093578 -1.857701 0
M  V30 16 C -1.707356 0.133616 -2.945029 0 CFG=2
M  V30 17 N -2.017699 -1.184209 -2.439669 0
M  V30 18 C -3.276549 -1.884930 -2.433665 0
M  V30 19 O -4.310925 -1.367497 -2.910304 0
M  V30 20 N -3.185152 -3.182485 -1.840152 0
M  V30 21 C -4.372402 -3.962406 -1.781405 0
M  V30 22 C -5.142325 -3.804008 -0.644708 0
M  V30 23 C -6.315400 -4.489820 -0.446495 0
M  V30 24 C -6.712733 -5.359249 -1.433353 0
M  V30 25 C -7.924725 -6.133456 -1.336219 0
M  V30 26 N -8.904009 -6.773763 -1.243127 0
M  V30 27 C -5.983231 -5.569008 -2.609342 0
M  V30 28 C -4.816510 -4.847084 -2.740509 0
M  V30 29 C -0.752329 0.135311 -4.087471 0
M  V30 30 C -0.601877 1.444726 -4.811306 0
M  V30 31 C 0.545756 0.831160 -4.038509 0
M  V30 32 C -0.494761 0.695688 -0.840189 0
M  V30 33 S 1.834142 -0.076540 4.730706 0
M  V30 34 C 3.548883 -0.395276 4.944662 0
M  V30 35 C 4.206818 -1.242247 5.999607 0
M  V30 36 H 6.056673 -1.561264 7.734922 0
M  V30 37 H 6.265336 -3.027312 6.643258 0
M  V30 38 H 7.440939 -1.616414 6.596602 0
M  V30 39 H 5.838919 0.753729 5.861384 0
M  V30 40 H 7.252059 -0.085133 5.149474 0
M  V30 41 H 5.898784 -0.522769 3.061734 0
M  V30 42 H 6.073182 1.215156 3.514525 0
M  V30 43 H 0.913377 2.752923 2.473596 0
M  V30 44 H -0.357007 3.446906 1.031762 0
M  V30 45 H -1.874614 4.224150 -0.704241 0
M  V30 46 H -2.532424 2.726944 -2.570643 0
M  V30 47 H -2.685573 0.522384 -3.354521 0
M  V30 48 H -1.140675 -1.566701 -2.061148 0
M  V30 49 H -2.317184 -3.585645 -1.454429 0
M  V30 50 H -4.846980 -3.124233 0.144519 0
M  V30 51 H -6.928081 -4.373478 0.441314 0
M  V30 52 H -6.302948 -6.255590 -3.381445 0
M  V30 53 H -4.194197 -4.949630 -3.618451 0
M  V30 54 H -0.832837 -0.745680 -4.744105 0
M  V30 55 H -1.080553 2.359615 -4.443460 0
M  V30 56 H -0.406444 1.437737 -5.914205 0
M  V30 57 H 1.387792 0.368674 -4.565561 0
M  V30 58 H 0.865789 1.448487 -3.177223 0
M  V30 59 H -0.085258 -0.308277 -0.854296 0
M  V30 60 H 3.794062 -2.270936 5.995811 0
M  V30 61 H 4.007766 -0.761794 6.986460 0
M  V30 END ATOM
M  V30 BEGIN BOND
M  V30 1 1 1 2
M  V30 2 1 2 3
M  V30 3 1 3 4
M  V30 4 1 4 5
M  V30 5 1 5 6
M  V30 6 2 6 7
M  V30 7 1 7 8
M  V30 8 1 8 9
M  V30 9 2 9 10
M  V30 10 1 9 11
M  V30 11 2 11 12
M  V30 12 1 12 13
M  V30 13 2 13 14
M  V30 14 1 14 15
M  V30 15 1 15 16
M  V30 16 1 16 17
M  V30 17 1 17 18
M  V30 18 2 18 19
M  V30 19 1 18 20
M  V30 20 1 20 21
M  V30 21 2 21 22
M  V30 22 1 22 23
M  V30 23 2 23 24
M  V30 24 1 24 25
M  V30 25 3 25 26
M  V30 26 1 24 27
M  V30 27 2 27 28
M  V30 28 1 16 29
M  V30 29 1 29 30
M  V30 30 1 30 31
M  V30 31 2 15 32
M  V30 32 1 7 33
M  V30 33 1 33 34
M  V30 34 1 34 35
M  V30 35 1 35 2
M  V30 36 2 34 5
M  V30 37 1 32 11
M  V30 38 1 28 21
M  V30 39 1 31 29
M  V30 40 1 1 36
M  V30 41 1 1 37
M  V30 42 1 1 38
M  V30 43 1 3 39
M  V30 44 1 3 40
M  V30 45 1 4 41
M  V30 46 1 4 42
M  V30 47 1 8 43
M  V30 48 1 12 44
M  V30 49 1 13 45
M  V30 50 1 14 46
M  V30 51 1 16 47 CFG=3
M  V30 52 1 17 48
M  V30 53 1 20 49
M  V30 54 1 22 50
M  V30 55 1 23 51
M  V30 56 1 27 52
M  V30 57 1 28 53
M  V30 58 1 29 54
M  V30 59 1 30 55
M  V30 60 1 30 56
M  V30 61 1 31 57
M  V30 62 1 31 58
M  V30 63 1 32 59
M  V30 64 1 35 60
M  V30 65 1 35 61
M  V30 END BOND
M  V30 END CTAB
M  END
>  <Dataset>  (923) 
ChEMBL_Kinases

>  <Ligand_Instance>  (923) 
nan

>  <PDB_ID>  (923) 
nan

>  <Standardized_SMILES>  (923) 
CN1CCc2nc(NC(=O)c3cccc([C@H](NC(=O)Nc4ccc(C#N)cc4)C4CC4)c3)sc2C1

>  <Name>  (923) 
nan

>  <Pocket>  (923) 
nan

>  <ATP_Site>  (923) 
nan

>  <Peripheral>  (923) 
nan

>  <Num_H_Atoms_ProtBoundConf>  (923) 
nan

>  <Num_Resolved_Atoms>  (923) 
nan

>  <Num_Not_Resolved_Atoms>  (923) 
nan

$$$$
CHEMBL3729554
     RDKit          3D

  0  0  0  0  0  0  0  0  0  0999 V3000
M  V30 BEGIN CTAB
M  V30 COUNTS 50 53 0 0 0
M  V30 BEGIN ATOM
M  V30 1 C 1.247545 -3.531874 3.175895 0
M  V30 2 C 1.855398 -2.616520 2.138148 0
M  V30 3 C 1.132388 -2.820818 0.846548 0
M  V30 4 C 1.845568 -1.178202 2.567194 0 CFG=2
M  V30 5 N 2.636032 -1.127090 3.807816 0
M  V30 6 C 0.478692 -0.686185 2.947015 0
M  V30 7 O -0.450099 -0.648607 1.911250 0
M  V30 8 C -0.315234 0.092323 0.756565 0
M  V30 9 N 0.787175 0.834708 0.610419 0
M  V30 10 C 1.089203 1.601754 -0.415065 0
M  V30 11 C 2.279799 2.408753 -0.581722 0
M  V30 12 C 2.537389 3.192063 -1.683110 0
M  V30 13 C 3.702837 3.903789 -1.709440 0
M  V30 14 N 4.597939 3.863134 -0.701864 0
M  V30 15 C 4.340746 3.093142 0.376627 0
M  V30 16 C 3.176846 2.337534 0.481374 0
M  V30 17 N 0.214604 1.651098 -1.415090 0
M  V30 18 C -0.958312 0.881135 -1.294400 0
M  V30 19 S -2.422544 0.672009 -2.458100 0
M  V30 20 C -3.264087 -0.435130 -1.401627 0
M  V30 21 C -2.468280 -0.566094 -0.341557 0
M  V30 22 C -1.269301 0.086985 -0.230922 0
M  V30 23 C -3.108135 -1.511689 0.642344 0
M  V30 24 C -3.372091 -2.775279 -0.147356 0
M  V30 25 C -4.462488 -2.603102 -1.149246 0
M  V30 26 C -4.550990 -1.141181 -1.510685 0
M  V30 27 H 1.450722 -4.574496 2.836974 0
M  V30 28 H 1.673182 -3.401135 4.180904 0
M  V30 29 H 0.123771 -3.444617 3.166690 0
M  V30 30 H 2.909265 -2.936286 2.025703 0
M  V30 31 H 1.311236 -3.833342 0.446700 0
M  V30 32 H 0.040755 -2.770835 1.046184 0
M  V30 33 H 1.471230 -2.086281 0.070021 0
M  V30 34 H 2.305342 -0.567071 1.788977 0
M  V30 35 H 3.402606 -1.829033 3.720002 0
M  V30 36 H 2.991638 -0.157602 3.965927 0
M  V30 37 H 0.577438 0.337396 3.360656 0
M  V30 38 H 0.081485 -1.302848 3.775489 0
M  V30 39 H 1.809112 3.218951 -2.492080 0
M  V30 40 H 3.840249 4.503608 -2.615462 0
M  V30 41 H 5.059558 3.056842 1.192170 0
M  V30 42 H 3.038832 1.753027 1.359954 0
M  V30 43 H -4.069854 -1.142735 1.011257 0
M  V30 44 H -2.415855 -1.803735 1.452342 0
M  V30 45 H -3.666691 -3.574965 0.563911 0
M  V30 46 H -2.466919 -3.146767 -0.655782 0
M  V30 47 H -5.412249 -2.991888 -0.728027 0
M  V30 48 H -4.209922 -3.188274 -2.055428 0
M  V30 49 H -5.353981 -0.680153 -0.899019 0
M  V30 50 H -4.870030 -1.055854 -2.569811 0
M  V30 END ATOM
M  V30 BEGIN BOND
M  V30 1 1 1 2
M  V30 2 1 2 3
M  V30 3 1 2 4
M  V30 4 1 4 5
M  V30 5 1 4 6
M  V30 6 1 6 7
M  V30 7 1 7 8
M  V30 8 2 8 9
M  V30 9 1 9 10
M  V30 10 1 10 11
M  V30 11 2 11 12
M  V30 12 1 12 13
M  V30 13 2 13 14
M  V30 14 1 14 15
M  V30 15 2 15 16
M  V30 16 2 10 17
M  V30 17 1 17 18
M  V30 18 1 18 19
M  V30 19 1 19 20
M  V30 20 2 20 21
M  V30 21 1 21 22
M  V30 22 1 21 23
M  V30 23 1 23 24
M  V30 24 1 24 25
M  V30 25 1 25 26
M  V30 26 1 22 8
M  V30 27 1 16 11
M  V30 28 2 22 18
M  V30 29 1 26 20
M  V30 30 1 1 27
M  V30 31 1 1 28
M  V30 32 1 1 29
M  V30 33 1 2 30
M  V30 34 1 3 31
M  V30 35 1 3 32
M  V30 36 1 3 33
M  V30 37 1 4 34 CFG=3
M  V30 38 1 5 35
M  V30 39 1 5 36
M  V30 40 1 6 37
M  V30 41 1 6 38
M  V30 42 1 12 39
M  V30 43 1 13 40
M  V30 44 1 15 41
M  V30 45 1 16 42
M  V30 46 1 23 43
M  V30 47 1 23 44
M  V30 48 1 24 45
M  V30 49 1 24 46
M  V30 50 1 25 47
M  V30 51 1 25 48
M  V30 52 1 26 49
M  V30 53 1 26 50
M  V30 END BOND
M  V30 END CTAB
M  END
>  <Dataset>  (924) 
ChEMBL_Kinases

>  <Ligand_Instance>  (924) 
nan

>  <PDB_ID>  (924) 
nan

>  <Standardized_SMILES>  (924) 
CC(C)[C@H](N)COc1nc(-c2ccncc2)nc2sc3c(c12)CCCC3

>  <Name>  (924) 
nan

>  <Pocket>  (924) 
nan

>  <ATP_Site>  (924) 
nan

>  <Peripheral>  (924) 
nan

>  <Num_H_Atoms_ProtBoundConf>  (924) 
nan

>  <Num_Resolved_Atoms>  (924) 
nan

>  <Num_Not_Resolved_Atoms>  (924) 
nan

$$$$
CHEMBL3704648
     RDKit          3D

  0  0  0  0  0  0  0  0  0  0999 V3000
M  V30 BEGIN CTAB
M  V30 COUNTS 33 36 0 0 0
M  V30 BEGIN ATOM
M  V30 1 C -0.165785 -2.768926 3.819065 0
M  V30 2 C 0.324469 -2.994005 2.419714 0
M  V30 3 C 0.058573 -4.159058 1.731124 0
M  V30 4 C 0.556376 -4.259129 0.454674 0
M  V30 5 C 1.299083 -3.234756 -0.129771 0
M  V30 6 C 1.539852 -2.076397 0.610041 0
M  V30 7 N 2.296876 -1.019639 0.028528 0
M  V30 8 N 3.593150 -1.095092 -0.191199 0
M  V30 9 C 4.003065 0.060075 -0.746063 0
M  V30 10 C 2.936619 0.912239 -0.890559 0
M  V30 11 C 1.865483 0.186016 -0.384356 0
M  V30 12 C 0.489445 0.647290 -0.308042 0
M  V30 13 C -0.079295 1.804547 -0.674490 0
M  V30 14 C -1.425789 1.984138 -0.487914 0
M  V30 15 C -2.230066 3.065762 -0.777664 0
M  V30 16 N -3.521811 3.060387 -0.525534 0
M  V30 17 C -4.226139 2.060096 0.022598 0
M  V30 18 C -3.485125 0.948053 0.337107 0
M  V30 19 C -2.121895 0.911451 0.088432 0
M  V30 20 S -0.864666 -0.322376 0.353196 0
M  V30 21 N 1.041440 -1.987354 1.875510 0
M  V30 22 H -0.739395 -3.650285 4.185507 0
M  V30 23 H -0.858676 -1.898941 3.873769 0
M  V30 24 H 0.692403 -2.660448 4.514601 0
M  V30 25 H -0.522336 -4.948907 2.201061 0
M  V30 26 H 0.376666 -5.164418 -0.143269 0
M  V30 27 H 1.696623 -3.308456 -1.142159 0
M  V30 28 H 5.010314 0.360935 -1.064791 0
M  V30 29 H 2.861807 1.920728 -1.291259 0
M  V30 30 H 0.564629 2.559767 -1.110026 0
M  V30 31 H -1.842478 3.967294 -1.223855 0
M  V30 32 H -5.285165 2.054230 0.229914 0
M  V30 33 H -3.897271 0.063108 0.781217 0
M  V30 END ATOM
M  V30 BEGIN BOND
M  V30 1 1 1 2
M  V30 2 2 2 3
M  V30 3 1 3 4
M  V30 4 2 4 5
M  V30 5 1 5 6
M  V30 6 1 6 7
M  V30 7 1 7 8
M  V30 8 2 8 9
M  V30 9 1 9 10
M  V30 10 2 10 11
M  V30 11 1 11 12
M  V30 12 2 12 13
M  V30 13 1 13 14
M  V30 14 2 14 15
M  V30 15 1 15 16
M  V30 16 2 16 17
M  V30 17 1 17 18
M  V30 18 2 18 19
M  V30 19 1 19 20
M  V30 20 2 6 21
M  V30 21 1 21 2
M  V30 22 1 11 7
M  V30 23 1 20 12
M  V30 24 1 19 14
M  V30 25 1 1 22
M  V30 26 1 1 23
M  V30 27 1 1 24
M  V30 28 1 3 25
M  V30 29 1 4 26
M  V30 30 1 5 27
M  V30 31 1 9 28
M  V30 32 1 10 29
M  V30 33 1 13 30
M  V30 34 1 15 31
M  V30 35 1 17 32
M  V30 36 1 18 33
M  V30 END BOND
M  V30 END CTAB
M  END
>  <Dataset>  (925) 
ChEMBL_Kinases

>  <Ligand_Instance>  (925) 
nan

>  <PDB_ID>  (925) 
nan

>  <Standardized_SMILES>  (925) 
Cc1cccc(-n2nccc2-c2cc3cnccc3s2)n1

>  <Name>  (925) 
nan

>  <Pocket>  (925) 
nan

>  <ATP_Site>  (925) 
nan

>  <Peripheral>  (925) 
nan

>  <Num_H_Atoms_ProtBoundConf>  (925) 
nan

>  <Num_Resolved_Atoms>  (925) 
nan

>  <Num_Not_Resolved_Atoms>  (925) 
nan

$$$$
CHEMBL3704649
     RDKit          3D

  0  0  0  0  0  0  0  0  0  0999 V3000
M  V30 BEGIN CTAB
M  V30 COUNTS 36 39 0 0 0
M  V30 BEGIN ATOM
M  V30 1 C 0.882882 -4.167227 2.861544 0
M  V30 2 C 1.501897 -2.965433 2.281850 0
M  V30 3 C 2.400939 -2.209560 2.997561 0
M  V30 4 C 3.033240 -1.056747 2.523105 0
M  V30 5 C 2.723769 -0.646683 1.221707 0
M  V30 6 C 1.816766 -1.439252 0.546890 0
M  V30 7 N 1.494642 -1.034762 -0.777972 0
M  V30 8 N 2.203096 -1.418212 -1.851115 0
M  V30 9 C 1.632578 -0.859421 -2.955948 0
M  V30 10 C 2.082759 -1.010197 -4.369361 0
M  V30 11 C 0.554685 -0.124951 -2.512988 0
M  V30 12 C 0.473306 -0.239603 -1.139767 0
M  V30 13 C -0.511074 0.374485 -0.288798 0
M  V30 14 C -0.778145 0.404438 1.017664 0
M  V30 15 C -1.842862 1.125194 1.492898 0
M  V30 16 C -2.285218 1.285111 2.788656 0
M  V30 17 N -3.343762 2.029802 3.039839 0
M  V30 18 C -4.105974 2.698460 2.178251 0
M  V30 19 C -3.713399 2.577561 0.862853 0
M  V30 20 C -2.607862 1.806865 0.544996 0
M  V30 21 S -1.789579 1.401429 -0.989085 0
M  V30 22 N 1.210850 -2.563053 1.031601 0
M  V30 23 H 0.139556 -3.933644 3.640317 0
M  V30 24 H 1.687426 -4.766799 3.357973 0
M  V30 25 H 0.453333 -4.821417 2.056304 0
M  V30 26 H 2.660529 -2.501574 4.007422 0
M  V30 27 H 3.727500 -0.495446 3.111057 0
M  V30 28 H 3.149932 0.214889 0.768781 0
M  V30 29 H 2.845292 -1.809084 -4.396320 0
M  V30 30 H 1.218565 -1.336315 -4.983657 0
M  V30 31 H 2.466714 -0.078567 -4.797961 0
M  V30 32 H -0.088080 0.434198 -3.203211 0
M  V30 33 H -0.100501 -0.170862 1.632735 0
M  V30 34 H -1.803483 0.820483 3.663926 0
M  V30 35 H -4.969909 3.302758 2.410780 0
M  V30 36 H -4.206740 3.046265 0.022458 0
M  V30 END ATOM
M  V30 BEGIN BOND
M  V30 1 1 1 2
M  V30 2 2 2 3
M  V30 3 1 3 4
M  V30 4 2 4 5
M  V30 5 1 5 6
M  V30 6 1 6 7
M  V30 7 1 7 8
M  V30 8 2 8 9
M  V30 9 1 9 10
M  V30 10 1 9 11
M  V30 11 2 11 12
M  V30 12 1 12 13
M  V30 13 2 13 14
M  V30 14 1 14 15
M  V30 15 2 15 16
M  V30 16 1 16 17
M  V30 17 2 17 18
M  V30 18 1 18 19
M  V30 19 2 19 20
M  V30 20 1 20 21
M  V30 21 2 6 22
M  V30 22 1 22 2
M  V30 23 1 12 7
M  V30 24 1 21 13
M  V30 25 1 20 15
M  V30 26 1 1 23
M  V30 27 1 1 24
M  V30 28 1 1 25
M  V30 29 1 3 26
M  V30 30 1 4 27
M  V30 31 1 5 28
M  V30 32 1 10 29
M  V30 33 1 10 30
M  V30 34 1 10 31
M  V30 35 1 11 32
M  V30 36 1 14 33
M  V30 37 1 16 34
M  V30 38 1 18 35
M  V30 39 1 19 36
M  V30 END BOND
M  V30 END CTAB
M  END
>  <Dataset>  (926) 
ChEMBL_Kinases

>  <Ligand_Instance>  (926) 
nan

>  <PDB_ID>  (926) 
nan

>  <Standardized_SMILES>  (926) 
Cc1cccc(-n2nc(C)cc2-c2cc3cnccc3s2)n1

>  <Name>  (926) 
nan

>  <Pocket>  (926) 
nan

>  <ATP_Site>  (926) 
nan

>  <Peripheral>  (926) 
nan

>  <Num_H_Atoms_ProtBoundConf>  (926) 
nan

>  <Num_Resolved_Atoms>  (926) 
nan

>  <Num_Not_Resolved_Atoms>  (926) 
nan

$$$$
CHEMBL3729655
     RDKit          3D

  0  0  0  0  0  0  0  0  0  0999 V3000
M  V30 BEGIN CTAB
M  V30 COUNTS 57 61 0 0 0
M  V30 BEGIN ATOM
M  V30 1 C 4.884967 -0.257028 -1.130815 0
M  V30 2 C 5.302744 -0.824969 0.176157 0
M  V30 3 N 6.437842 -1.472257 0.554334 0
M  V30 4 O 6.367279 -1.791403 1.803680 0
M  V30 5 C 5.239934 -1.396874 2.307646 0
M  V30 6 C 4.798085 -1.584643 3.717856 0
M  V30 7 C 4.505069 -0.767905 1.319355 0
M  V30 8 C 3.182124 -0.160704 1.399956 0
M  V30 9 C 3.200228 1.207697 1.750436 0
M  V30 10 S 1.356565 1.670807 1.764828 0
M  V30 11 C 0.835978 0.091416 1.332158 0
M  V30 12 C -0.438872 -0.430898 1.126970 0
M  V30 13 N -1.522756 0.469165 1.295742 0
M  V30 14 C -2.861132 -0.044590 1.089172 0
M  V30 15 C -3.918106 0.998865 1.295976 0 CFG=1
M  V30 16 N -3.888823 1.538633 2.646727 0
M  V30 17 C -3.754283 2.108408 0.286927 0
M  V30 18 C -3.883323 1.528829 -1.067489 0
M  V30 19 C -2.914663 1.034881 -1.909386 0
M  V30 20 C -3.253729 0.530433 -3.147017 0
M  V30 21 C -4.551513 0.496688 -3.592724 0
M  V30 22 C -5.536523 0.988026 -2.761610 0
M  V30 23 C -5.195583 1.492314 -1.523707 0
M  V30 24 N -0.641605 -1.734072 0.782774 0
M  V30 25 C 0.510261 -2.462222 0.661719 0
M  V30 26 C 0.361192 -3.885441 0.289927 0
M  V30 27 C 1.475517 -4.683006 0.149116 0
M  V30 28 C 1.272127 -5.999184 -0.198376 0
M  V30 29 N 0.030858 -6.513334 -0.399606 0
M  V30 30 C -1.021783 -5.687109 -0.248000 0
M  V30 31 C -0.918505 -4.352739 0.098494 0
M  V30 32 N 1.742985 -1.969140 0.857068 0
M  V30 33 C 1.933629 -0.680043 1.196987 0
M  V30 34 H 4.567382 0.816358 -1.027689 0
M  V30 35 H 5.772175 -0.237407 -1.800781 0
M  V30 36 H 4.119982 -0.864453 -1.637121 0
M  V30 37 H 4.460608 -2.645113 3.876998 0
M  V30 38 H 3.916429 -0.945625 3.923623 0
M  V30 39 H 5.573189 -1.303181 4.452586 0
M  V30 40 H 3.985894 1.905881 1.972994 0
M  V30 41 H -1.410083 1.454976 1.553805 0
M  V30 42 H -3.023662 -0.940820 1.730773 0
M  V30 43 H -2.924267 -0.424904 0.052425 0
M  V30 44 H -4.899374 0.528944 1.078616 0
M  V30 45 H -3.049831 1.257661 3.168023 0
M  V30 46 H -4.070095 2.569175 2.641787 0
M  V30 47 H -4.486823 2.928440 0.460451 0
M  V30 48 H -2.750364 2.556538 0.448933 0
M  V30 49 H -1.911201 1.097110 -1.487328 0
M  V30 50 H -2.419300 0.162949 -3.740825 0
M  V30 51 H -4.697511 0.076519 -4.584760 0
M  V30 52 H -6.549394 0.947149 -3.142462 0
M  V30 53 H -6.069577 1.849545 -0.964375 0
M  V30 54 H 2.466011 -4.285261 0.306503 0
M  V30 55 H 2.147313 -6.627164 -0.309364 0
M  V30 56 H -2.015708 -6.102973 -0.410189 0
M  V30 57 H -1.805964 -3.746692 0.203193 0
M  V30 END ATOM
M  V30 BEGIN BOND
M  V30 1 1 1 2
M  V30 2 2 2 3
M  V30 3 1 3 4
M  V30 4 1 4 5
M  V30 5 1 5 6
M  V30 6 2 5 7
M  V30 7 1 7 8
M  V30 8 2 8 9
M  V30 9 1 9 10
M  V30 10 1 10 11
M  V30 11 2 11 12
M  V30 12 1 12 13
M  V30 13 1 13 14
M  V30 14 1 14 15
M  V30 15 1 15 16
M  V30 16 1 15 17
M  V30 17 1 17 18
M  V30 18 2 18 19
M  V30 19 1 19 20
M  V30 20 2 20 21
M  V30 21 1 21 22
M  V30 22 2 22 23
M  V30 23 1 12 24
M  V30 24 2 24 25
M  V30 25 1 25 26
M  V30 26 2 26 27
M  V30 27 1 27 28
M  V30 28 2 28 29
M  V30 29 1 29 30
M  V30 30 2 30 31
M  V30 31 1 25 32
M  V30 32 2 32 33
M  V30 33 1 7 2
M  V30 34 1 33 8
M  V30 35 1 33 11
M  V30 36 1 23 18
M  V30 37 1 31 26
M  V30 38 1 1 34
M  V30 39 1 1 35
M  V30 40 1 1 36
M  V30 41 1 6 37
M  V30 42 1 6 38
M  V30 43 1 6 39
M  V30 44 1 9 40
M  V30 45 1 13 41
M  V30 46 1 14 42
M  V30 47 1 14 43
M  V30 48 1 15 44 CFG=3
M  V30 49 1 16 45
M  V30 50 1 16 46
M  V30 51 1 17 47
M  V30 52 1 17 48
M  V30 53 1 19 49
M  V30 54 1 20 50
M  V30 55 1 21 51
M  V30 56 1 22 52
M  V30 57 1 23 53
M  V30 58 1 27 54
M  V30 59 1 28 55
M  V30 60 1 30 56
M  V30 61 1 31 57
M  V30 END BOND
M  V30 END CTAB
M  END
>  <Dataset>  (927) 
ChEMBL_Kinases

>  <Ligand_Instance>  (927) 
nan

>  <PDB_ID>  (927) 
nan

>  <Standardized_SMILES>  (927) 
Cc1noc(C)c1-c1csc2c(NC[C@@H](N)Cc3ccccc3)nc(-c3ccncc3)nc12

>  <Name>  (927) 
nan

>  <Pocket>  (927) 
nan

>  <ATP_Site>  (927) 
nan

>  <Peripheral>  (927) 
nan

>  <Num_H_Atoms_ProtBoundConf>  (927) 
nan

>  <Num_Resolved_Atoms>  (927) 
nan

>  <Num_Not_Resolved_Atoms>  (927) 
nan

$$$$
CHEMBL3729212
     RDKit          3D

  0  0  0  0  0  0  0  0  0  0999 V3000
M  V30 BEGIN CTAB
M  V30 COUNTS 37 40 0 0 0
M  V30 BEGIN ATOM
M  V30 1 O 2.336622 -4.568920 1.376436 0
M  V30 2 C 1.107600 -3.876770 1.428849 0 CFG=1
M  V30 3 C 0.187129 -4.707278 2.263146 0
M  V30 4 N -0.378141 -3.892824 3.301545 0
M  V30 5 C 0.293072 -2.634920 3.345675 0
M  V30 6 C 1.343393 -2.629387 2.245763 0 CFG=2
M  V30 7 N 1.283423 -1.407377 1.547287 0
M  V30 8 C 0.512338 -0.539612 0.737617 0
M  V30 9 N 0.962551 0.674864 0.282057 0
M  V30 10 C 0.185477 1.446924 -0.484942 0
M  V30 11 C 0.780197 2.708667 -0.901150 0
M  V30 12 C -0.019371 3.505756 -1.691734 0
M  V30 13 C 0.561349 4.715209 -2.085891 0
M  V30 14 N 1.820004 5.092207 -1.724930 0
M  V30 15 C 2.527077 4.250617 -0.951779 0
M  V30 16 C 2.058249 3.019511 -0.495657 0
M  V30 17 N -1.042140 1.036214 -0.813765 0
M  V30 18 C -1.546135 -0.141426 -0.402451 0
M  V30 19 C -2.804914 -0.472121 -0.791309 0
M  V30 20 C -3.270816 -1.725939 -0.324682 0
M  V30 21 S -1.777161 -2.325756 0.672212 0
M  V30 22 C -0.760542 -0.924247 0.374218 0
M  V30 23 H 2.414711 -5.086086 0.537054 0
M  V30 24 H 0.816535 -3.711405 0.394611 0
M  V30 25 H -0.663562 -5.084418 1.635656 0
M  V30 26 H 0.686475 -5.608978 2.715983 0
M  V30 27 H -0.385332 -4.380837 4.208403 0
M  V30 28 H -0.449595 -1.822277 3.253600 0
M  V30 29 H 0.780213 -2.444137 4.343439 0
M  V30 30 H 2.344086 -2.711363 2.775478 0
M  V30 31 H 2.229748 -0.918048 1.682469 0
M  V30 32 H -1.003792 3.242028 -1.990907 0
M  V30 33 H -0.012742 5.406595 -2.718012 0
M  V30 34 H 3.526818 4.548679 -0.664315 0
M  V30 35 H 2.657683 2.368506 0.125980 0
M  V30 36 H -3.578045 -0.024313 -1.381403 0
M  V30 37 H -4.124818 -2.333763 -0.381581 0
M  V30 END ATOM
M  V30 BEGIN BOND
M  V30 1 1 1 2
M  V30 2 1 2 3
M  V30 3 1 3 4
M  V30 4 1 4 5
M  V30 5 1 5 6
M  V30 6 1 6 7
M  V30 7 1 7 8
M  V30 8 2 8 9
M  V30 9 1 9 10
M  V30 10 1 10 11
M  V30 11 2 11 12
M  V30 12 1 12 13
M  V30 13 2 13 14
M  V30 14 1 14 15
M  V30 15 2 15 16
M  V30 16 2 10 17
M  V30 17 1 17 18
M  V30 18 1 18 19
M  V30 19 2 19 20
M  V30 20 1 20 21
M  V30 21 1 21 22
M  V30 22 1 6 2
M  V30 23 1 22 8
M  V30 24 1 16 11
M  V30 25 2 22 18
M  V30 26 1 1 23
M  V30 27 1 2 24 CFG=3
M  V30 28 1 3 25
M  V30 29 1 3 26
M  V30 30 1 4 27
M  V30 31 1 5 28
M  V30 32 1 5 29
M  V30 33 1 6 30 CFG=1
M  V30 34 1 7 31
M  V30 35 1 12 32
M  V30 36 1 13 33
M  V30 37 1 15 34
M  V30 38 1 16 35
M  V30 39 1 19 36
M  V30 40 1 20 37
M  V30 END BOND
M  V30 END CTAB
M  END
>  <Dataset>  (928) 
ChEMBL_Kinases

>  <Ligand_Instance>  (928) 
nan

>  <PDB_ID>  (928) 
nan

>  <Standardized_SMILES>  (928) 
O[C@H]1CNC[C@@H]1Nc1nc(-c2ccncc2)nc2ccsc12

>  <Name>  (928) 
nan

>  <Pocket>  (928) 
nan

>  <ATP_Site>  (928) 
nan

>  <Peripheral>  (928) 
nan

>  <Num_H_Atoms_ProtBoundConf>  (928) 
nan

>  <Num_Resolved_Atoms>  (928) 
nan

>  <Num_Not_Resolved_Atoms>  (928) 
nan

$$$$
CHEMBL3729210
     RDKit          3D

  0  0  0  0  0  0  0  0  0  0999 V3000
M  V30 BEGIN CTAB
M  V30 COUNTS 60 64 0 0 0
M  V30 BEGIN ATOM
M  V30 1 C 6.437723 -0.401794 0.748506 0
M  V30 2 C 5.460895 0.746675 0.776958 0
M  V30 3 C 4.753513 0.703869 2.125561 0
M  V30 4 S 4.223630 0.536688 -0.509055 0
M  V30 5 O 4.905375 0.531603 -1.844723 0
M  V30 6 O 3.536042 -0.786300 -0.328287 0
M  V30 7 C 3.074383 1.853330 -0.454973 0
M  V30 8 C 3.172739 3.046472 -1.139073 0
M  V30 9 C 2.178222 3.987955 -0.987415 0
M  V30 10 C 1.084861 3.772943 -0.170329 0
M  V30 11 C 0.954672 2.573622 0.537490 0
M  V30 12 N -0.151806 2.310857 1.390099 0
M  V30 13 C -0.228584 1.064393 2.072758 0
M  V30 14 C -0.866864 0.004334 1.516412 0
M  V30 15 C -0.871328 -1.141188 2.273876 0
M  V30 16 C -1.559632 -2.329464 1.711390 0
M  V30 17 N -2.147834 -2.244201 0.479264 0
M  V30 18 C -2.745988 -3.366305 0.058511 0
M  V30 19 N -3.405373 -3.488860 -1.177065 0
M  V30 20 C -3.399176 -2.283764 -1.992459 0 CFG=2
M  V30 21 C -4.125773 -1.210137 -1.244246 0
M  V30 22 C -5.454609 -1.118881 -1.918080 0
M  V30 23 N -5.272063 -1.604532 -3.261814 0
M  V30 24 C -4.139436 -2.462756 -3.265542 0
M  V30 25 C -2.750840 -4.530394 0.850042 0
M  V30 26 S -3.426755 -6.108963 0.588514 0
M  V30 27 C -2.837510 -6.815172 2.249674 0
M  V30 28 C -2.158590 -5.705661 2.840141 0
M  V30 29 C -2.148821 -4.574968 2.081421 0
M  V30 30 N -1.560811 -3.426443 2.463931 0
M  V30 31 C -0.254057 -1.156823 3.507675 0
M  V30 32 C 0.381166 -0.046485 4.024094 0
M  V30 33 N 0.378225 1.064725 3.275234 0
M  V30 34 C 1.967866 1.647364 0.365764 0
M  V30 35 H 7.462956 -0.105750 1.096260 0
M  V30 36 H 6.564137 -0.859098 -0.254217 0
M  V30 37 H 6.151749 -1.226661 1.454977 0
M  V30 38 H 5.986597 1.703715 0.611431 0
M  V30 39 H 5.507383 0.570496 2.914711 0
M  V30 40 H 4.170552 1.623008 2.336013 0
M  V30 41 H 4.008088 -0.112378 2.047282 0
M  V30 42 H 4.046316 3.159887 -1.761427 0
M  V30 43 H 2.265138 4.923772 -1.530308 0
M  V30 44 H 0.308525 4.527960 -0.062444 0
M  V30 45 H -0.874130 3.075570 1.471117 0
M  V30 46 H -1.336166 0.065613 0.545230 0
M  V30 47 H -3.872864 -4.345811 -1.524557 0
M  V30 48 H -2.330617 -2.004288 -2.182529 0
M  V30 49 H -3.535134 -0.272020 -1.308943 0
M  V30 50 H -4.293426 -1.515775 -0.191850 0
M  V30 51 H -5.821461 -0.084552 -1.851632 0
M  V30 52 H -6.182967 -1.780418 -1.391649 0
M  V30 53 H -5.075640 -0.745448 -3.857506 0
M  V30 54 H -4.445439 -3.543713 -3.319669 0
M  V30 55 H -3.443560 -2.227253 -4.113959 0
M  V30 56 H -2.944744 -7.838125 2.739833 0
M  V30 57 H -1.730699 -5.878958 3.813004 0
M  V30 58 H -0.311828 -2.113966 4.032577 0
M  V30 59 H 0.842858 -0.107160 4.979270 0
M  V30 60 H 1.837592 0.724653 0.929599 0
M  V30 END ATOM
M  V30 BEGIN BOND
M  V30 1 1 1 2
M  V30 2 1 2 3
M  V30 3 1 2 4
M  V30 4 2 4 5
M  V30 5 2 4 6
M  V30 6 1 4 7
M  V30 7 2 7 8
M  V30 8 1 8 9
M  V30 9 2 9 10
M  V30 10 1 10 11
M  V30 11 1 11 12
M  V30 12 1 12 13
M  V30 13 2 13 14
M  V30 14 1 14 15
M  V30 15 1 15 16
M  V30 16 2 16 17
M  V30 17 1 17 18
M  V30 18 1 18 19
M  V30 19 1 19 20
M  V30 20 1 20 21
M  V30 21 1 21 22
M  V30 22 1 22 23
M  V30 23 1 23 24
M  V30 24 2 18 25
M  V30 25 1 25 26
M  V30 26 1 26 27
M  V30 27 2 27 28
M  V30 28 1 28 29
M  V30 29 2 29 30
M  V30 30 2 15 31
M  V30 31 1 31 32
M  V30 32 2 32 33
M  V30 33 2 11 34
M  V30 34 1 34 7
M  V30 35 1 33 13
M  V30 36 1 30 16
M  V30 37 1 24 20
M  V30 38 1 29 25
M  V30 39 1 1 35
M  V30 40 1 1 36
M  V30 41 1 1 37
M  V30 42 1 2 38
M  V30 43 1 3 39
M  V30 44 1 3 40
M  V30 45 1 3 41
M  V30 46 1 8 42
M  V30 47 1 9 43
M  V30 48 1 10 44
M  V30 49 1 12 45
M  V30 50 1 14 46
M  V30 51 1 19 47
M  V30 52 1 20 48 CFG=3
M  V30 53 1 21 49
M  V30 54 1 21 50
M  V30 55 1 22 51
M  V30 56 1 22 52
M  V30 57 1 23 53
M  V30 58 1 24 54
M  V30 59 1 24 55
M  V30 60 1 27 56
M  V30 61 1 28 57
M  V30 62 1 31 58
M  V30 63 1 32 59
M  V30 64 1 34 60
M  V30 END BOND
M  V30 END CTAB
M  END
>  <Dataset>  (929) 
ChEMBL_Kinases

>  <Ligand_Instance>  (929) 
nan

>  <PDB_ID>  (929) 
nan

>  <Standardized_SMILES>  (929) 
CC(C)S(=O)(=O)c1cccc(Nc2cc(-c3nc(N[C@@H]4CCNC4)c4sccc4n3)ccn2)c1

>  <Name>  (929) 
nan

>  <Pocket>  (929) 
nan

>  <ATP_Site>  (929) 
nan

>  <Peripheral>  (929) 
nan

>  <Num_H_Atoms_ProtBoundConf>  (929) 
nan

>  <Num_Resolved_Atoms>  (929) 
nan

>  <Num_Not_Resolved_Atoms>  (929) 
nan

$$$$
CHEMBL3729173
     RDKit          3D

  0  0  0  0  0  0  0  0  0  0999 V3000
M  V30 BEGIN CTAB
M  V30 COUNTS 60 64 0 0 0
M  V30 BEGIN ATOM
M  V30 1 N 7.237182 -5.532767 2.082945 0
M  V30 2 C 6.251412 -5.028305 3.012145 0
M  V30 3 C 5.429840 -3.933782 2.399890 0
M  V30 4 C 5.842615 -2.621643 2.515296 0
M  V30 5 C 5.146917 -1.541729 1.981060 0
M  V30 6 C 3.978134 -1.817819 1.299296 0
M  V30 7 C 3.164870 -0.764230 0.696481 0
M  V30 8 C 3.874058 0.195812 -0.028684 0
M  V30 9 S 2.505830 1.364967 -0.641533 0
M  V30 10 C 1.239623 0.451636 0.119943 0
M  V30 11 C -0.129222 0.687563 0.128505 0
M  V30 12 N -0.621087 1.823158 -0.567980 0
M  V30 13 C -2.033387 2.061665 -0.555987 0
M  V30 14 C -2.449713 3.283857 -1.319039 0 CFG=1
M  V30 15 N -2.071558 3.187299 -2.696499 0
M  V30 16 C -3.957786 3.381818 -1.218517 0
M  V30 17 C -4.612896 2.200285 -1.786182 0
M  V30 18 C -4.953648 1.035164 -1.120424 0
M  V30 19 C -5.570380 -0.034079 -1.730266 0
M  V30 20 C -5.867872 0.051448 -3.074171 0
M  V30 21 C -5.552573 1.189314 -3.794564 0
M  V30 22 C -4.930514 2.234386 -3.121112 0
M  V30 23 N -0.968326 -0.160150 0.794492 0
M  V30 24 C -0.362938 -1.216173 1.424375 0
M  V30 25 C -1.167853 -2.204110 2.179483 0
M  V30 26 C -0.608031 -3.273402 2.823949 0
M  V30 27 C -1.367060 -4.187548 3.524274 0
M  V30 28 N -2.709931 -4.016940 3.572748 0
M  V30 29 C -3.228382 -2.955994 2.928840 0
M  V30 30 C -2.529830 -1.995686 2.205063 0
M  V30 31 F -3.192695 -0.975711 1.605885 0
M  V30 32 N 0.962720 -1.420768 1.400171 0
M  V30 33 C 1.806106 -0.597403 0.749874 0
M  V30 34 C 3.528416 -3.117285 1.160128 0
M  V30 35 C 4.244478 -4.188970 1.705895 0
M  V30 36 H 6.807188 -6.288591 1.529885 0
M  V30 37 H 8.072222 -5.914693 2.592999 0
M  V30 38 H 5.624759 -5.893031 3.323338 0
M  V30 39 H 6.683823 -4.591245 3.923137 0
M  V30 40 H 6.775767 -2.454319 3.065083 0
M  V30 41 H 5.497020 -0.524113 2.088793 0
M  V30 42 H 4.900571 0.330765 -0.242839 0
M  V30 43 H 0.015146 2.464811 -1.072006 0
M  V30 44 H -2.496304 1.189554 -1.102242 0
M  V30 45 H -2.442374 2.030025 0.454377 0
M  V30 46 H -2.070679 4.227898 -0.840085 0
M  V30 47 H -1.061995 3.149521 -2.863640 0
M  V30 48 H -2.566576 3.939048 -3.222475 0
M  V30 49 H -4.188416 3.378392 -0.114467 0
M  V30 50 H -4.360519 4.338994 -1.596571 0
M  V30 51 H -4.699201 1.009454 -0.053805 0
M  V30 52 H -5.792320 -0.894675 -1.119023 0
M  V30 53 H -6.358872 -0.796305 -3.565917 0
M  V30 54 H -5.807280 1.203604 -4.842397 0
M  V30 55 H -4.731987 3.077611 -3.795953 0
M  V30 56 H 0.479488 -3.385811 2.767571 0
M  V30 57 H -0.905639 -5.029036 4.028915 0
M  V30 58 H -4.305971 -2.870315 3.001852 0
M  V30 59 H 2.620714 -3.383693 0.636004 0
M  V30 60 H 3.941588 -5.222692 1.628557 0
M  V30 END ATOM
M  V30 BEGIN BOND
M  V30 1 1 1 2
M  V30 2 1 2 3
M  V30 3 2 3 4
M  V30 4 1 4 5
M  V30 5 2 5 6
M  V30 6 1 6 7
M  V30 7 2 7 8
M  V30 8 1 8 9
M  V30 9 1 9 10
M  V30 10 2 10 11
M  V30 11 1 11 12
M  V30 12 1 12 13
M  V30 13 1 13 14
M  V30 14 1 14 15
M  V30 15 1 14 16
M  V30 16 1 16 17
M  V30 17 2 17 18
M  V30 18 1 18 19
M  V30 19 2 19 20
M  V30 20 1 20 21
M  V30 21 2 21 22
M  V30 22 1 11 23
M  V30 23 2 23 24
M  V30 24 1 24 25
M  V30 25 2 25 26
M  V30 26 1 26 27
M  V30 27 2 27 28
M  V30 28 1 28 29
M  V30 29 2 29 30
M  V30 30 1 30 31
M  V30 31 1 24 32
M  V30 32 2 32 33
M  V30 33 1 6 34
M  V30 34 2 34 35
M  V30 35 1 35 3
M  V30 36 1 33 7
M  V30 37 1 33 10
M  V30 38 1 22 17
M  V30 39 1 30 25
M  V30 40 1 1 36
M  V30 41 1 1 37
M  V30 42 1 2 38
M  V30 43 1 2 39
M  V30 44 1 4 40
M  V30 45 1 5 41
M  V30 46 1 8 42
M  V30 47 1 12 43
M  V30 48 1 13 44
M  V30 49 1 13 45
M  V30 50 1 14 46 CFG=1
M  V30 51 1 15 47
M  V30 52 1 15 48
M  V30 53 1 16 49
M  V30 54 1 16 50
M  V30 55 1 18 51
M  V30 56 1 19 52
M  V30 57 1 20 53
M  V30 58 1 21 54
M  V30 59 1 22 55
M  V30 60 1 26 56
M  V30 61 1 27 57
M  V30 62 1 29 58
M  V30 63 1 34 59
M  V30 64 1 35 60
M  V30 END BOND
M  V30 END CTAB
M  END
>  <Dataset>  (930) 
ChEMBL_Kinases

>  <Ligand_Instance>  (930) 
nan

>  <PDB_ID>  (930) 
nan

>  <Standardized_SMILES>  (930) 
NCc1ccc(-c2csc3c(NC[C@@H](N)Cc4ccccc4)nc(-c4ccncc4F)nc23)cc1

>  <Name>  (930) 
nan

>  <Pocket>  (930) 
nan

>  <ATP_Site>  (930) 
nan

>  <Peripheral>  (930) 
nan

>  <Num_H_Atoms_ProtBoundConf>  (930) 
nan

>  <Num_Resolved_Atoms>  (930) 
nan

>  <Num_Not_Resolved_Atoms>  (930) 
nan

$$$$
CHEMBL3729171
     RDKit          3D

  0  0  0  0  0  0  0  0  0  0999 V3000
M  V30 BEGIN CTAB
M  V30 COUNTS 58 63 0 0 0
M  V30 BEGIN ATOM
M  V30 1 Br 1.123734 1.842748 3.957003 0
M  V30 2 C 2.693334 0.795606 4.115064 0
M  V30 3 C 2.987601 0.297870 5.368368 0
M  V30 4 N 4.106507 -0.460029 5.540564 0
M  V30 5 C 4.898567 -0.698015 4.453892 0
M  V30 6 C 4.608655 -0.197950 3.179255 0
M  V30 7 C 3.461461 0.581869 2.991329 0
M  V30 8 C 3.154645 1.104078 1.651024 0
M  V30 9 N 2.091369 0.368406 0.973627 0
M  V30 10 C 2.431516 -1.015037 0.807848 0
M  V30 11 C 1.500510 -1.821937 -0.021794 0
M  V30 12 N 0.426999 -0.956498 -0.546766 0
M  V30 13 C -1.014124 -0.864384 -0.579945 0
M  V30 14 N -1.339147 0.174654 0.213100 0
M  V30 15 C -2.573468 0.588363 0.489162 0
M  V30 16 C -3.004991 1.695578 1.327012 0
M  V30 17 C -2.080720 2.519069 1.983835 0
M  V30 18 C -2.452929 3.576686 2.784010 0
M  V30 19 N -3.758970 3.821103 2.935059 0
M  V30 20 C -4.677381 3.075507 2.338012 0
M  V30 21 C -4.341694 2.004605 1.526584 0
M  V30 22 N -3.534721 -0.136331 -0.106591 0
M  V30 23 C -3.257690 -1.202878 -0.923701 0
M  V30 24 S -4.225798 -2.314064 -1.822046 0
M  V30 25 C -2.895328 -3.237903 -2.494233 0
M  V30 26 C -1.778530 -2.650244 -1.997989 0
M  V30 27 C -2.011285 -1.603838 -1.190368 0
M  V30 28 C -0.606077 -3.386758 -2.551435 0
M  V30 29 C -0.713699 -4.839662 -2.133994 0
M  V30 30 C -1.836493 -5.464444 -2.914359 0
M  V30 31 C -2.821931 -4.442389 -3.425128 0
M  V30 32 C 1.096629 0.150852 -1.243074 0
M  V30 33 C 1.668356 1.052249 -0.203511 0
M  V30 34 H 2.348152 0.498125 6.213659 0
M  V30 35 H 5.808327 -1.308497 4.571189 0
M  V30 36 H 5.295409 -0.442181 2.392267 0
M  V30 37 H 2.899290 2.173941 1.681548 0
M  V30 38 H 4.067537 1.024272 1.010864 0
M  V30 39 H 2.451359 -1.467187 1.836090 0
M  V30 40 H 3.476934 -1.066070 0.435838 0
M  V30 41 H 1.055632 -2.677951 0.525501 0
M  V30 42 H 2.090745 -2.244416 -0.864510 0
M  V30 43 H -1.052163 2.243692 1.799616 0
M  V30 44 H -1.706013 4.183380 3.269999 0
M  V30 45 H -5.772604 3.172972 2.382076 0
M  V30 46 H -5.054891 1.347094 1.002652 0
M  V30 47 H -0.720344 -3.341231 -3.677907 0
M  V30 48 H 0.361586 -2.965815 -2.300360 0
M  V30 49 H -0.994153 -4.916553 -1.064306 0
M  V30 50 H 0.250442 -5.326754 -2.379623 0
M  V30 51 H -2.395443 -6.240486 -2.352157 0
M  V30 52 H -1.361396 -6.000777 -3.785880 0
M  V30 53 H -3.849827 -4.850419 -3.471571 0
M  V30 54 H -2.526072 -4.149092 -4.439104 0
M  V30 55 H 1.908108 -0.219538 -1.895931 0
M  V30 56 H 0.400586 0.705904 -1.907519 0
M  V30 57 H 2.497188 1.637710 -0.690613 0
M  V30 58 H 0.941308 1.835145 0.115633 0
M  V30 END ATOM
M  V30 BEGIN BOND
M  V30 1 1 1 2
M  V30 2 2 2 3
M  V30 3 1 3 4
M  V30 4 2 4 5
M  V30 5 1 5 6
M  V30 6 2 6 7
M  V30 7 1 7 8
M  V30 8 1 8 9
M  V30 9 1 9 10
M  V30 10 1 10 11
M  V30 11 1 11 12
M  V30 12 1 12 13
M  V30 13 2 13 14
M  V30 14 1 14 15
M  V30 15 1 15 16
M  V30 16 2 16 17
M  V30 17 1 17 18
M  V30 18 2 18 19
M  V30 19 1 19 20
M  V30 20 2 20 21
M  V30 21 2 15 22
M  V30 22 1 22 23
M  V30 23 1 23 24
M  V30 24 1 24 25
M  V30 25 2 25 26
M  V30 26 1 26 27
M  V30 27 1 26 28
M  V30 28 1 28 29
M  V30 29 1 29 30
M  V30 30 1 30 31
M  V30 31 1 12 32
M  V30 32 1 32 33
M  V30 33 1 7 2
M  V30 34 1 33 9
M  V30 35 1 27 13
M  V30 36 1 21 16
M  V30 37 2 27 23
M  V30 38 1 31 25
M  V30 39 1 3 34
M  V30 40 1 5 35
M  V30 41 1 6 36
M  V30 42 1 8 37
M  V30 43 1 8 38
M  V30 44 1 10 39
M  V30 45 1 10 40
M  V30 46 1 11 41
M  V30 47 1 11 42
M  V30 48 1 17 43
M  V30 49 1 18 44
M  V30 50 1 20 45
M  V30 51 1 21 46
M  V30 52 1 28 47
M  V30 53 1 28 48
M  V30 54 1 29 49
M  V30 55 1 29 50
M  V30 56 1 30 51
M  V30 57 1 30 52
M  V30 58 1 31 53
M  V30 59 1 31 54
M  V30 60 1 32 55
M  V30 61 1 32 56
M  V30 62 1 33 57
M  V30 63 1 33 58
M  V30 END BOND
M  V30 END CTAB
M  END
>  <Dataset>  (931) 
ChEMBL_Kinases

>  <Ligand_Instance>  (931) 
nan

>  <PDB_ID>  (931) 
nan

>  <Standardized_SMILES>  (931) 
Brc1cnccc1CN1CCN(c2nc(-c3ccncc3)nc3sc4c(c23)CCCC4)CC1

>  <Name>  (931) 
nan

>  <Pocket>  (931) 
nan

>  <ATP_Site>  (931) 
nan

>  <Peripheral>  (931) 
nan

>  <Num_H_Atoms_ProtBoundConf>  (931) 
nan

>  <Num_Resolved_Atoms>  (931) 
nan

>  <Num_Not_Resolved_Atoms>  (931) 
nan

$$$$
CHEMBL3729166
     RDKit          3D

  0  0  0  0  0  0  0  0  0  0999 V3000
M  V30 BEGIN CTAB
M  V30 COUNTS 62 66 0 0 0
M  V30 BEGIN ATOM
M  V30 1 C 4.661371 -0.185202 4.451809 0
M  V30 2 O 3.858376 0.093123 3.318960 0
M  V30 3 C 3.640879 1.430109 3.013379 0
M  V30 4 C 4.167156 2.464415 3.757484 0
M  V30 5 C 3.926447 3.780585 3.419108 0
M  V30 6 C 3.143853 4.015581 2.314486 0
M  V30 7 F 2.913646 5.303852 1.990480 0
M  V30 8 C 2.599860 2.999129 1.545328 0
M  V30 9 C 2.859905 1.689868 1.911045 0
M  V30 10 C 2.241779 0.677263 1.036499 0
M  V30 11 C 3.035459 0.299220 -0.017502 0
M  V30 12 C 4.361192 0.657331 -0.494023 0
M  V30 13 S 2.006997 -0.946157 -0.902046 0
M  V30 14 C 0.616547 -0.783981 0.295937 0
M  V30 15 C -0.617904 -1.463164 0.292002 0
M  V30 16 N -0.869670 -2.399998 -0.711912 0
M  V30 17 C -2.031180 -3.208156 -0.946299 0
M  V30 18 C -3.251073 -2.489713 -1.422679 0 CFG=1
M  V30 19 N -3.781150 -1.493417 -0.583301 0
M  V30 20 C -3.081917 -1.993029 -2.856625 0
M  V30 21 C -2.836821 -3.111620 -3.776994 0
M  V30 22 C -1.606902 -3.607987 -4.106932 0
M  V30 23 C -1.374982 -4.658830 -4.971451 0
M  V30 24 C -2.500982 -5.251376 -5.546977 0
M  V30 25 C -3.768084 -4.773229 -5.235000 0
M  V30 26 C -3.946289 -3.719345 -4.364129 0
M  V30 27 N -1.448947 -1.147082 1.292283 0
M  V30 28 C -1.066850 -0.234934 2.203792 0
M  V30 29 C -1.948439 0.149687 3.329279 0
M  V30 30 C -3.165483 -0.467032 3.395731 0
M  V30 31 C -3.955985 -0.076800 4.464015 0
M  V30 32 N -3.630087 0.831825 5.410039 0
M  V30 33 C -2.421391 1.419127 5.311382 0
M  V30 34 C -1.583277 1.081725 4.277713 0
M  V30 35 N 0.124958 0.378831 2.153082 0
M  V30 36 C 1.027332 0.126758 1.185174 0
M  V30 37 H 5.001673 -1.256322 4.405555 0
M  V30 38 H 4.086955 -0.085869 5.392760 0
M  V30 39 H 5.600240 0.404542 4.436369 0
M  V30 40 H 4.775228 2.262131 4.615700 0
M  V30 41 H 4.363282 4.559178 4.036718 0
M  V30 42 H 1.998278 3.258719 0.696261 0
M  V30 43 H 4.441510 1.761008 -0.439309 0
M  V30 44 H 4.430337 0.425015 -1.577060 0
M  V30 45 H 5.194562 0.139270 0.002468 0
M  V30 46 H -0.114907 -2.570707 -1.433781 0
M  V30 47 H -1.810510 -4.019473 -1.684844 0
M  V30 48 H -2.348292 -3.759571 -0.020541 0
M  V30 49 H -4.046424 -3.296944 -1.518843 0
M  V30 50 H -3.352309 -0.564206 -0.601971 0
M  V30 51 H -3.949975 -1.814872 0.362899 0
M  V30 52 H -3.971061 -1.393080 -3.097461 0
M  V30 53 H -2.198124 -1.317015 -2.880186 0
M  V30 54 H -0.734728 -3.163589 -3.673591 0
M  V30 55 H -0.380613 -5.014568 -5.200040 0
M  V30 56 H -2.316387 -6.085516 -6.233582 0
M  V30 57 H -4.616576 -5.259919 -5.702277 0
M  V30 58 H -4.947066 -3.388276 -4.156572 0
M  V30 59 H -3.549296 -1.209435 2.706094 0
M  V30 60 H -4.948679 -0.535344 4.575895 0
M  V30 61 H -2.098430 2.162385 6.045302 0
M  V30 62 H -0.608212 1.552839 4.194604 0
M  V30 END ATOM
M  V30 BEGIN BOND
M  V30 1 1 1 2
M  V30 2 1 2 3
M  V30 3 2 3 4
M  V30 4 1 4 5
M  V30 5 2 5 6
M  V30 6 1 6 7
M  V30 7 1 6 8
M  V30 8 2 8 9
M  V30 9 1 9 10
M  V30 10 2 10 11
M  V30 11 1 11 12
M  V30 12 1 11 13
M  V30 13 1 13 14
M  V30 14 2 14 15
M  V30 15 1 15 16
M  V30 16 1 16 17
M  V30 17 1 17 18
M  V30 18 1 18 19
M  V30 19 1 18 20
M  V30 20 1 20 21
M  V30 21 2 21 22
M  V30 22 1 22 23
M  V30 23 2 23 24
M  V30 24 1 24 25
M  V30 25 2 25 26
M  V30 26 1 15 27
M  V30 27 2 27 28
M  V30 28 1 28 29
M  V30 29 2 29 30
M  V30 30 1 30 31
M  V30 31 2 31 32
M  V30 32 1 32 33
M  V30 33 2 33 34
M  V30 34 1 28 35
M  V30 35 2 35 36
M  V30 36 1 9 3
M  V30 37 1 36 10
M  V30 38 1 36 14
M  V30 39 1 26 21
M  V30 40 1 34 29
M  V30 41 1 1 37
M  V30 42 1 1 38
M  V30 43 1 1 39
M  V30 44 1 4 40
M  V30 45 1 5 41
M  V30 46 1 8 42
M  V30 47 1 12 43
M  V30 48 1 12 44
M  V30 49 1 12 45
M  V30 50 1 16 46
M  V30 51 1 17 47
M  V30 52 1 17 48
M  V30 53 1 18 49 CFG=3
M  V30 54 1 19 50
M  V30 55 1 19 51
M  V30 56 1 20 52
M  V30 57 1 20 53
M  V30 58 1 22 54
M  V30 59 1 23 55
M  V30 60 1 24 56
M  V30 61 1 25 57
M  V30 62 1 26 58
M  V30 63 1 30 59
M  V30 64 1 31 60
M  V30 65 1 33 61
M  V30 66 1 34 62
M  V30 END BOND
M  V30 END CTAB
M  END
>  <Dataset>  (932) 
ChEMBL_Kinases

>  <Ligand_Instance>  (932) 
nan

>  <PDB_ID>  (932) 
nan

>  <Standardized_SMILES>  (932) 
COc1ccc(F)cc1-c1c(C)sc2c(NC[C@@H](N)Cc3ccccc3)nc(-c3ccncc3)nc12

>  <Name>  (932) 
nan

>  <Pocket>  (932) 
nan

>  <ATP_Site>  (932) 
nan

>  <Peripheral>  (932) 
nan

>  <Num_H_Atoms_ProtBoundConf>  (932) 
nan

>  <Num_Resolved_Atoms>  (932) 
nan

>  <Num_Not_Resolved_Atoms>  (932) 
nan

$$$$
CHEMBL3729159
     RDKit          3D

  0  0  0  0  0  0  0  0  0  0999 V3000
M  V30 BEGIN CTAB
M  V30 COUNTS 48 51 0 0 0
M  V30 BEGIN ATOM
M  V30 1 N 3.254626 -4.776162 0.604638 0
M  V30 2 C 2.152536 -4.103796 1.215172 0
M  V30 3 C 2.018003 -2.761913 0.600286 0
M  V30 4 N 0.945533 -1.920683 1.090807 0
M  V30 5 C 0.752548 -0.625620 0.549371 0
M  V30 6 N 1.640052 -0.271113 -0.380149 0
M  V30 7 C 1.730689 0.872716 -1.037931 0
M  V30 8 C 2.748608 1.141767 -2.035005 0
M  V30 9 C 3.680875 0.166182 -2.327220 0
M  V30 10 C 4.673790 0.382088 -3.276149 0
M  V30 11 N 4.688657 1.559956 -3.887246 0
M  V30 12 C 3.781289 2.507234 -3.601691 0
M  V30 13 C 2.772077 2.363387 -2.675604 0
M  V30 14 N 0.792504 1.744781 -0.688580 0
M  V30 15 C -0.144987 1.432541 0.261052 0
M  V30 16 S -1.453296 2.454779 0.855033 0
M  V30 17 C -2.092180 1.265307 1.998815 0
M  V30 18 C -1.228893 0.143499 1.832152 0
M  V30 19 C -0.233143 0.242316 0.939021 0
M  V30 20 C -1.374890 -1.120678 2.558227 0
M  V30 21 C -2.651221 -1.182617 3.400636 0
M  V30 22 C -3.783007 -1.546043 2.477403 0
M  V30 23 C -4.376706 -0.332812 1.796290 0
M  V30 24 C -4.461558 0.843577 2.713781 0
M  V30 25 C -3.245145 1.704118 2.770595 0
M  V30 26 H 3.057834 -5.742819 0.270327 0
M  V30 27 H 4.154365 -4.676714 1.117812 0
M  V30 28 H 2.406297 -3.934882 2.304572 0
M  V30 29 H 1.240163 -4.700699 1.239733 0
M  V30 30 H 2.959650 -2.150999 0.739661 0
M  V30 31 H 1.963679 -2.850009 -0.528367 0
M  V30 32 H 0.585055 -2.574993 1.782458 0
M  V30 33 H 3.660180 -0.791582 -1.823037 0
M  V30 34 H 5.434910 -0.336761 -3.554180 0
M  V30 35 H 3.880450 3.434908 -4.156906 0
M  V30 36 H 2.048428 3.151559 -2.464481 0
M  V30 37 H -1.524010 -2.012613 1.969565 0
M  V30 38 H -0.572797 -1.304670 3.298611 0
M  V30 39 H -2.804310 -0.347669 4.058497 0
M  V30 40 H -2.522961 -2.089083 4.065974 0
M  V30 41 H -3.405007 -2.221344 1.697979 0
M  V30 42 H -4.551993 -2.074838 3.056281 0
M  V30 43 H -3.862516 -0.077922 0.839869 0
M  V30 44 H -5.397822 -0.641157 1.480658 0
M  V30 45 H -4.676479 0.487490 3.751237 0
M  V30 46 H -5.404423 1.401074 2.436674 0
M  V30 47 H -3.566129 2.698723 2.338446 0
M  V30 48 H -2.945300 2.004978 3.819637 0
M  V30 END ATOM
M  V30 BEGIN BOND
M  V30 1 1 1 2
M  V30 2 1 2 3
M  V30 3 1 3 4
M  V30 4 1 4 5
M  V30 5 2 5 6
M  V30 6 1 6 7
M  V30 7 1 7 8
M  V30 8 2 8 9
M  V30 9 1 9 10
M  V30 10 2 10 11
M  V30 11 1 11 12
M  V30 12 2 12 13
M  V30 13 2 7 14
M  V30 14 1 14 15
M  V30 15 1 15 16
M  V30 16 1 16 17
M  V30 17 2 17 18
M  V30 18 1 18 19
M  V30 19 1 18 20
M  V30 20 1 20 21
M  V30 21 1 21 22
M  V30 22 1 22 23
M  V30 23 1 23 24
M  V30 24 1 24 25
M  V30 25 1 19 5
M  V30 26 1 13 8
M  V30 27 2 19 15
M  V30 28 1 25 17
M  V30 29 1 1 26
M  V30 30 1 1 27
M  V30 31 1 2 28
M  V30 32 1 2 29
M  V30 33 1 3 30
M  V30 34 1 3 31
M  V30 35 1 4 32
M  V30 36 1 9 33
M  V30 37 1 10 34
M  V30 38 1 12 35
M  V30 39 1 13 36
M  V30 40 1 20 37
M  V30 41 1 20 38
M  V30 42 1 21 39
M  V30 43 1 21 40
M  V30 44 1 22 41
M  V30 45 1 22 42
M  V30 46 1 23 43
M  V30 47 1 23 44
M  V30 48 1 24 45
M  V30 49 1 24 46
M  V30 50 1 25 47
M  V30 51 1 25 48
M  V30 END BOND
M  V30 END CTAB
M  END
>  <Dataset>  (933) 
ChEMBL_Kinases

>  <Ligand_Instance>  (933) 
nan

>  <PDB_ID>  (933) 
nan

>  <Standardized_SMILES>  (933) 
NCCNc1nc(-c2ccncc2)nc2sc3c(c12)CCCCCC3

>  <Name>  (933) 
nan

>  <Pocket>  (933) 
nan

>  <ATP_Site>  (933) 
nan

>  <Peripheral>  (933) 
nan

>  <Num_H_Atoms_ProtBoundConf>  (933) 
nan

>  <Num_Resolved_Atoms>  (933) 
nan

>  <Num_Not_Resolved_Atoms>  (933) 
nan

$$$$
CHEMBL3729153
     RDKit          3D

  0  0  0  0  0  0  0  0  0  0999 V3000
M  V30 BEGIN CTAB
M  V30 COUNTS 62 67 0 0 0
M  V30 BEGIN ATOM
M  V30 1 F 0.903236 -0.193191 6.975686 0
M  V30 2 C 1.909525 -0.812885 6.248934 0
M  V30 3 F 3.106239 -0.763955 6.971974 0
M  V30 4 F 1.552445 -2.113067 6.030675 0
M  V30 5 C 2.141649 -0.087957 4.957614 0
M  V30 6 C 3.145832 -0.575660 4.144746 0
M  V30 7 C 3.368539 0.082574 2.954801 0
M  V30 8 C 2.655080 1.186181 2.534971 0
M  V30 9 C 2.847306 1.923723 1.284589 0
M  V30 10 N 2.068352 1.456909 0.170856 0
M  V30 11 C 2.410290 0.077622 -0.108625 0
M  V30 12 C 1.565212 -0.484086 -1.236306 0
M  V30 13 N 0.133426 -0.283283 -0.934773 0
M  V30 14 C -0.998511 -1.149561 -0.768080 0
M  V30 15 N -1.291322 -1.176305 0.544208 0
M  V30 16 C -2.255870 -1.902158 1.116364 0
M  V30 17 C -2.576942 -1.934819 2.535941 0
M  V30 18 C -3.605075 -2.736710 2.980043 0
M  V30 19 C -3.888428 -2.748971 4.331373 0
M  V30 20 N -3.186638 -2.001346 5.208064 0
M  V30 21 C -2.195194 -1.231828 4.757518 0
M  V30 22 C -1.839326 -1.157164 3.408721 0
M  V30 23 N -2.957907 -2.648742 0.249141 0
M  V30 24 C -2.710431 -2.664584 -1.092766 0
M  V30 25 S -3.414952 -3.494465 -2.443861 0
M  V30 26 C -2.335067 -2.780072 -3.689312 0
M  V30 27 C -1.480917 -1.930066 -2.984055 0
M  V30 28 C -1.730653 -1.920371 -1.641040 0
M  V30 29 C -0.565343 -1.272510 -3.949547 0
M  V30 30 C -1.435310 -0.737773 -5.101208 0
M  V30 31 C -2.008906 -1.813315 -5.954692 0
M  V30 32 C -2.353388 -3.060762 -5.177063 0
M  V30 33 C -0.122897 1.154716 -0.775800 0
M  V30 34 C 0.673439 1.637859 0.428187 0
M  V30 35 C 1.655189 1.624259 3.407353 0
M  V30 36 C 1.381582 1.012846 4.609350 0
M  V30 37 H 3.722165 -1.438636 4.445900 0
M  V30 38 H 4.144663 -0.275220 2.303862 0
M  V30 39 H 3.944807 1.888067 1.057319 0
M  V30 40 H 2.588382 2.998776 1.466263 0
M  V30 41 H 2.305915 -0.527464 0.790104 0
M  V30 42 H 3.466717 0.054192 -0.438670 0
M  V30 43 H 1.827073 -0.006348 -2.199814 0
M  V30 44 H 1.822482 -1.557817 -1.323406 0
M  V30 45 H -4.205155 -3.360610 2.321290 0
M  V30 46 H -4.675040 -3.344222 4.777576 0
M  V30 47 H -1.622409 -0.625003 5.451904 0
M  V30 48 H -1.037888 -0.538885 3.021274 0
M  V30 49 H 0.217160 -1.942691 -4.294015 0
M  V30 50 H -0.125982 -0.363451 -3.478182 0
M  V30 51 H -0.810462 -0.064905 -5.727153 0
M  V30 52 H -2.222847 -0.109827 -4.634680 0
M  V30 53 H -2.953758 -1.423925 -6.392874 0
M  V30 54 H -1.345504 -2.135874 -6.778848 0
M  V30 55 H -1.578240 -3.850751 -5.295887 0
M  V30 56 H -3.353929 -3.396226 -5.465782 0
M  V30 57 H -1.205113 1.364079 -0.648115 0
M  V30 58 H 0.301201 1.665263 -1.663411 0
M  V30 59 H 0.483830 2.727103 0.529908 0
M  V30 60 H 0.329345 1.133551 1.358126 0
M  V30 61 H 1.001197 2.488099 3.218290 0
M  V30 62 H 0.615944 1.339399 5.288748 0
M  V30 END ATOM
M  V30 BEGIN BOND
M  V30 1 1 1 2
M  V30 2 1 2 3
M  V30 3 1 2 4
M  V30 4 1 2 5
M  V30 5 2 5 6
M  V30 6 1 6 7
M  V30 7 2 7 8
M  V30 8 1 8 9
M  V30 9 1 9 10
M  V30 10 1 10 11
M  V30 11 1 11 12
M  V30 12 1 12 13
M  V30 13 1 13 14
M  V30 14 2 14 15
M  V30 15 1 15 16
M  V30 16 1 16 17
M  V30 17 2 17 18
M  V30 18 1 18 19
M  V30 19 2 19 20
M  V30 20 1 20 21
M  V30 21 2 21 22
M  V30 22 2 16 23
M  V30 23 1 23 24
M  V30 24 1 24 25
M  V30 25 1 25 26
M  V30 26 2 26 27
M  V30 27 1 27 28
M  V30 28 1 27 29
M  V30 29 1 29 30
M  V30 30 1 30 31
M  V30 31 1 31 32
M  V30 32 1 13 33
M  V30 33 1 33 34
M  V30 34 1 8 35
M  V30 35 2 35 36
M  V30 36 1 36 5
M  V30 37 1 34 10
M  V30 38 1 28 14
M  V30 39 1 22 17
M  V30 40 2 28 24
M  V30 41 1 32 26
M  V30 42 1 6 37
M  V30 43 1 7 38
M  V30 44 1 9 39
M  V30 45 1 9 40
M  V30 46 1 11 41
M  V30 47 1 11 42
M  V30 48 1 12 43
M  V30 49 1 12 44
M  V30 50 1 18 45
M  V30 51 1 19 46
M  V30 52 1 21 47
M  V30 53 1 22 48
M  V30 54 1 29 49
M  V30 55 1 29 50
M  V30 56 1 30 51
M  V30 57 1 30 52
M  V30 58 1 31 53
M  V30 59 1 31 54
M  V30 60 1 32 55
M  V30 61 1 32 56
M  V30 62 1 33 57
M  V30 63 1 33 58
M  V30 64 1 34 59
M  V30 65 1 34 60
M  V30 66 1 35 61
M  V30 67 1 36 62
M  V30 END BOND
M  V30 END CTAB
M  END
>  <Dataset>  (934) 
ChEMBL_Kinases

>  <Ligand_Instance>  (934) 
nan

>  <PDB_ID>  (934) 
nan

>  <Standardized_SMILES>  (934) 
FC(F)(F)c1ccc(CN2CCN(c3nc(-c4ccncc4)nc4sc5c(c34)CCCC5)CC2)cc1

>  <Name>  (934) 
nan

>  <Pocket>  (934) 
nan

>  <ATP_Site>  (934) 
nan

>  <Peripheral>  (934) 
nan

>  <Num_H_Atoms_ProtBoundConf>  (934) 
nan

>  <Num_Resolved_Atoms>  (934) 
nan

>  <Num_Not_Resolved_Atoms>  (934) 
nan

$$$$
CHEMBL3729122
     RDKit          3D

  0  0  0  0  0  0  0  0  0  0999 V3000
M  V30 BEGIN CTAB
M  V30 COUNTS 57 61 0 0 0
M  V30 BEGIN ATOM
M  V30 1 C 1.093511 2.750014 3.386277 0
M  V30 2 C 1.838337 1.508015 3.645722 0
M  V30 3 C 2.650585 1.556916 4.756389 0
M  V30 4 C 3.383869 0.457848 5.147047 0
M  V30 5 C 3.298908 -0.696510 4.415712 0
M  V30 6 C 2.476127 -0.698321 3.315221 0
M  V30 7 C 1.715112 0.394611 2.883047 0
M  V30 8 C 0.870315 0.290340 1.630770 0
M  V30 9 C 1.584448 0.821888 0.449424 0 CFG=2
M  V30 10 N 1.989034 2.234637 0.600652 0
M  V30 11 C 0.898559 0.771081 -0.873690 0
M  V30 12 O 0.345822 -0.375108 -1.343041 0
M  V30 13 C -0.712021 -1.084826 -0.886696 0
M  V30 14 N -1.522993 -0.841232 0.139338 0
M  V30 15 C -2.555345 -1.518059 0.589124 0
M  V30 16 C -3.382704 -1.154032 1.726177 0
M  V30 17 C -4.431423 -1.967261 2.102511 0
M  V30 18 C -5.214445 -1.605800 3.196693 0
M  V30 19 N -4.993966 -0.492889 3.908240 0
M  V30 20 C -3.976643 0.330504 3.572050 0
M  V30 21 C -3.199189 -0.022955 2.490242 0
M  V30 22 N -2.837379 -2.636426 -0.097642 0
M  V30 23 C -2.094818 -2.978030 -1.139942 0
M  V30 24 S -2.247676 -4.371026 -2.195313 0
M  V30 25 C -0.881098 -4.002635 -3.249026 0
M  V30 26 C -0.364097 -2.775041 -2.702977 0
M  V30 27 C -0.997601 -2.256107 -1.616034 0
M  V30 28 C 0.805425 -2.375862 -3.527740 0
M  V30 29 C 0.317541 -2.183976 -4.967347 0
M  V30 30 C -0.109188 -3.517218 -5.554193 0
M  V30 31 C -0.178475 -4.578030 -4.459540 0
M  V30 32 H 1.804003 3.518443 3.021398 0
M  V30 33 H 0.248221 2.648966 2.677232 0
M  V30 34 H 0.593190 3.127966 4.328249 0
M  V30 35 H 2.764600 2.430632 5.376123 0
M  V30 36 H 4.036984 0.443151 6.010999 0
M  V30 37 H 3.833917 -1.624208 4.634139 0
M  V30 38 H 2.393953 -1.617223 2.713178 0
M  V30 39 H -0.065841 0.782127 1.857621 0
M  V30 40 H 0.694783 -0.826166 1.535518 0
M  V30 41 H 2.544885 0.226392 0.361812 0
M  V30 42 H 1.211154 2.878115 0.332824 0
M  V30 43 H 2.863341 2.417510 0.077239 0
M  V30 44 H 0.120420 1.620343 -0.817806 0
M  V30 45 H 1.667306 1.206648 -1.605424 0
M  V30 46 H -4.662684 -2.873992 1.574765 0
M  V30 47 H -6.055997 -2.219403 3.531125 0
M  V30 48 H -3.819781 1.216292 4.157128 0
M  V30 49 H -2.411394 0.645727 2.253380 0
M  V30 50 H 1.554748 -3.211189 -3.572048 0
M  V30 51 H 1.260916 -1.427410 -3.221249 0
M  V30 52 H -0.506030 -1.441234 -4.935942 0
M  V30 53 H 1.103175 -1.776431 -5.619426 0
M  V30 54 H 0.554423 -3.906267 -6.321559 0
M  V30 55 H -1.145092 -3.383389 -5.927453 0
M  V30 56 H -0.880279 -5.351246 -4.869733 0
M  V30 57 H 0.790557 -5.002417 -4.202458 0
M  V30 END ATOM
M  V30 BEGIN BOND
M  V30 1 1 1 2
M  V30 2 2 2 3
M  V30 3 1 3 4
M  V30 4 2 4 5
M  V30 5 1 5 6
M  V30 6 2 6 7
M  V30 7 1 7 8
M  V30 8 1 8 9
M  V30 9 1 9 10
M  V30 10 1 9 11
M  V30 11 1 11 12
M  V30 12 1 12 13
M  V30 13 2 13 14
M  V30 14 1 14 15
M  V30 15 1 15 16
M  V30 16 2 16 17
M  V30 17 1 17 18
M  V30 18 2 18 19
M  V30 19 1 19 20
M  V30 20 2 20 21
M  V30 21 2 15 22
M  V30 22 1 22 23
M  V30 23 1 23 24
M  V30 24 1 24 25
M  V30 25 2 25 26
M  V30 26 1 26 27
M  V30 27 1 26 28
M  V30 28 1 28 29
M  V30 29 1 29 30
M  V30 30 1 30 31
M  V30 31 1 7 2
M  V30 32 1 27 13
M  V30 33 1 21 16
M  V30 34 2 27 23
M  V30 35 1 31 25
M  V30 36 1 1 32
M  V30 37 1 1 33
M  V30 38 1 1 34
M  V30 39 1 3 35
M  V30 40 1 4 36
M  V30 41 1 5 37
M  V30 42 1 6 38
M  V30 43 1 8 39
M  V30 44 1 8 40
M  V30 45 1 9 41 CFG=3
M  V30 46 1 10 42
M  V30 47 1 10 43
M  V30 48 1 11 44
M  V30 49 1 11 45
M  V30 50 1 17 46
M  V30 51 1 18 47
M  V30 52 1 20 48
M  V30 53 1 21 49
M  V30 54 1 28 50
M  V30 55 1 28 51
M  V30 56 1 29 52
M  V30 57 1 29 53
M  V30 58 1 30 54
M  V30 59 1 30 55
M  V30 60 1 31 56
M  V30 61 1 31 57
M  V30 END BOND
M  V30 END CTAB
M  END
>  <Dataset>  (935) 
ChEMBL_Kinases

>  <Ligand_Instance>  (935) 
nan

>  <PDB_ID>  (935) 
nan

>  <Standardized_SMILES>  (935) 
Cc1ccccc1C[C@H](N)COc1nc(-c2ccncc2)nc2sc3c(c12)CCCC3

>  <Name>  (935) 
nan

>  <Pocket>  (935) 
nan

>  <ATP_Site>  (935) 
nan

>  <Peripheral>  (935) 
nan

>  <Num_H_Atoms_ProtBoundConf>  (935) 
nan

>  <Num_Resolved_Atoms>  (935) 
nan

>  <Num_Not_Resolved_Atoms>  (935) 
nan

$$$$
CHEMBL3729119
     RDKit          3D

  0  0  0  0  0  0  0  0  0  0999 V3000
M  V30 BEGIN CTAB
M  V30 COUNTS 47 51 0 0 0
M  V30 BEGIN ATOM
M  V30 1 C 0.739019 -4.547668 3.917911 0
M  V30 2 C 0.231781 -5.611550 3.215282 0
M  V30 3 C 0.262148 -5.634357 1.836265 0
M  V30 4 C 0.825902 -4.537776 1.204250 0
M  V30 5 N 1.000049 -4.273395 -0.203617 0
M  V30 6 C -0.196540 -3.595291 -0.578549 0
M  V30 7 C -0.187347 -2.220288 -0.451740 0
M  V30 8 C -1.311409 -1.503965 -0.798419 0
M  V30 9 C -1.224265 -0.034587 -0.634281 0
M  V30 10 N -0.083659 0.551566 -0.158812 0
M  V30 11 C -0.081436 1.891107 -0.038348 0
M  V30 12 N 0.999908 2.639215 0.431757 0
M  V30 13 C 2.169656 1.922805 0.813135 0 CFG=2
M  V30 14 C 1.973335 0.948131 1.948261 0
M  V30 15 C 1.924507 1.866536 3.151750 0
M  V30 16 N 2.554318 3.095808 2.777089 0
M  V30 17 C 3.154077 2.893559 1.467575 0
M  V30 18 C -1.228759 2.561279 -0.404228 0
M  V30 19 S -1.589224 4.323501 -0.380152 0
M  V30 20 C -3.361204 4.139279 -1.053707 0
M  V30 21 C -3.465199 2.757662 -1.215874 0
M  V30 22 C -2.386281 1.997914 -0.883863 0
M  V30 23 N -2.299619 0.657740 -0.971315 0
M  V30 24 C -2.442572 -2.136673 -1.268871 0
M  V30 25 C -2.414457 -3.514808 -1.382300 0
M  V30 26 N -1.306242 -4.213631 -1.039810 0
M  V30 27 N 1.331456 -3.477906 1.894156 0
M  V30 28 C 1.295182 -3.468088 3.256259 0
M  V30 29 H 0.665594 -4.630832 4.993902 0
M  V30 30 H -0.227574 -6.509942 3.644075 0
M  V30 31 H -0.080100 -6.365916 1.132066 0
M  V30 32 H 1.867187 -4.576776 -0.689361 0
M  V30 33 H 0.705762 -1.708107 -0.078957 0
M  V30 34 H 0.963289 3.677754 0.504480 0
M  V30 35 H 2.657484 1.428975 -0.069432 0
M  V30 36 H 2.915750 0.356872 2.026358 0
M  V30 37 H 1.085806 0.322612 1.882938 0
M  V30 38 H 0.863936 2.046278 3.393280 0
M  V30 39 H 2.425250 1.344703 3.998224 0
M  V30 40 H 1.899725 3.904424 2.736428 0
M  V30 41 H 3.223450 3.829160 0.890945 0
M  V30 42 H 4.104376 2.351383 1.567976 0
M  V30 43 H -4.044538 4.931615 -1.236113 0
M  V30 44 H -4.412538 2.415463 -1.597585 0
M  V30 45 H -3.306226 -1.538319 -1.531278 0
M  V30 46 H -3.282291 -4.048612 -1.747357 0
M  V30 47 H 1.682622 -2.651126 3.851205 0
M  V30 END ATOM
M  V30 BEGIN BOND
M  V30 1 2 1 2
M  V30 2 1 2 3
M  V30 3 2 3 4
M  V30 4 1 4 5
M  V30 5 1 5 6
M  V30 6 2 6 7
M  V30 7 1 7 8
M  V30 8 1 8 9
M  V30 9 2 9 10
M  V30 10 1 10 11
M  V30 11 1 11 12
M  V30 12 1 12 13
M  V30 13 1 13 14
M  V30 14 1 14 15
M  V30 15 1 15 16
M  V30 16 1 16 17
M  V30 17 2 11 18
M  V30 18 1 18 19
M  V30 19 1 19 20
M  V30 20 2 20 21
M  V30 21 1 21 22
M  V30 22 2 22 23
M  V30 23 2 8 24
M  V30 24 1 24 25
M  V30 25 2 25 26
M  V30 26 1 4 27
M  V30 27 2 27 28
M  V30 28 1 28 1
M  V30 29 1 26 6
M  V30 30 1 23 9
M  V30 31 1 17 13
M  V30 32 1 22 18
M  V30 33 1 1 29
M  V30 34 1 2 30
M  V30 35 1 3 31
M  V30 36 1 5 32
M  V30 37 1 7 33
M  V30 38 1 12 34
M  V30 39 1 13 35 CFG=3
M  V30 40 1 14 36
M  V30 41 1 14 37
M  V30 42 1 15 38
M  V30 43 1 15 39
M  V30 44 1 16 40
M  V30 45 1 17 41
M  V30 46 1 17 42
M  V30 47 1 20 43
M  V30 48 1 21 44
M  V30 49 1 24 45
M  V30 50 1 25 46
M  V30 51 1 28 47
M  V30 END BOND
M  V30 END CTAB
M  END
>  <Dataset>  (936) 
ChEMBL_Kinases

>  <Ligand_Instance>  (936) 
nan

>  <PDB_ID>  (936) 
nan

>  <Standardized_SMILES>  (936) 
c1ccc(Nc2cc(-c3nc(N[C@@H]4CCNC4)c4sccc4n3)ccn2)nc1

>  <Name>  (936) 
nan

>  <Pocket>  (936) 
nan

>  <ATP_Site>  (936) 
nan

>  <Peripheral>  (936) 
nan

>  <Num_H_Atoms_ProtBoundConf>  (936) 
nan

>  <Num_Resolved_Atoms>  (936) 
nan

>  <Num_Not_Resolved_Atoms>  (936) 
nan

$$$$
CHEMBL574010
     RDKit          3D

  0  0  0  0  0  0  0  0  0  0999 V3000
M  V30 BEGIN CTAB
M  V30 COUNTS 43 46 0 0 0
M  V30 BEGIN ATOM
M  V30 1 C -1.194974 -4.174779 -4.014476 0
M  V30 2 O -0.118910 -3.298317 -4.046319 0
M  V30 3 C 0.357886 -2.593521 -2.985501 0
M  V30 4 C -0.066242 -2.568445 -1.680482 0
M  V30 5 C 0.510430 -1.793451 -0.671911 0
M  V30 6 C 1.580944 -1.008420 -1.048111 0
M  V30 7 C 2.075729 -0.969617 -2.329977 0
M  V30 8 C 1.433426 -1.779773 -3.274701 0
M  V30 9 O 1.978352 -1.697326 -4.557503 0
M  V30 10 C 3.083110 -0.860318 -4.847652 0
M  V30 11 C 1.923577 -0.331507 0.209590 0
M  V30 12 N 2.829213 0.576383 0.604761 0
M  V30 13 N 2.624372 0.810799 1.869850 0
M  V30 14 C 1.611559 0.093852 2.350437 0
M  V30 15 N 0.879932 -0.158965 3.516666 0
M  V30 16 C 0.203828 -0.341945 4.741999 0
M  V30 17 C -0.625904 0.802886 5.209684 0
M  V30 18 C -0.001115 1.823277 5.896385 0
M  V30 19 C -0.807199 2.849589 6.307020 0
M  V30 20 C -2.165911 3.004131 6.129047 0
M  V30 21 Cl -3.181395 4.318607 6.657244 0
M  V30 22 C -2.774210 1.943659 5.422946 0
M  V30 23 C -2.006750 0.893691 4.990909 0
M  V30 24 C 1.097566 -0.695484 1.283311 0
M  V30 25 C 0.119725 -1.703486 0.750140 0
M  V30 26 H -0.893190 -5.235735 -4.248098 0
M  V30 27 H -1.687507 -4.224176 -3.020384 0
M  V30 28 H -1.992770 -3.916434 -4.754624 0
M  V30 29 H -0.909796 -3.216462 -1.448757 0
M  V30 30 H 2.913855 -0.325083 -2.517059 0
M  V30 31 H 3.178926 -0.721686 -5.951964 0
M  V30 32 H 2.904974 0.159733 -4.456408 0
M  V30 33 H 4.029358 -1.239449 -4.416913 0
M  V30 34 H 3.613325 1.130150 0.232024 0
M  V30 35 H 1.434525 0.546588 4.102502 0
M  V30 36 H 0.765689 -0.830480 5.571120 0
M  V30 37 H -0.592846 -1.145879 4.511690 0
M  V30 38 H 1.040306 1.913512 6.141661 0
M  V30 39 H -0.378895 3.702930 6.854049 0
M  V30 40 H -3.834608 1.895314 5.190839 0
M  V30 41 H -2.466097 0.068985 4.454065 0
M  V30 42 H 0.399909 -2.682542 1.225108 0
M  V30 43 H -0.917229 -1.400189 0.936583 0
M  V30 END ATOM
M  V30 BEGIN BOND
M  V30 1 1 1 2
M  V30 2 1 2 3
M  V30 3 2 3 4
M  V30 4 1 4 5
M  V30 5 2 5 6
M  V30 6 1 6 7
M  V30 7 2 7 8
M  V30 8 1 8 9
M  V30 9 1 9 10
M  V30 10 1 6 11
M  V30 11 1 11 12
M  V30 12 1 12 13
M  V30 13 2 13 14
M  V30 14 1 14 15
M  V30 15 1 15 16
M  V30 16 1 16 17
M  V30 17 2 17 18
M  V30 18 1 18 19
M  V30 19 2 19 20
M  V30 20 1 20 21
M  V30 21 1 20 22
M  V30 22 2 22 23
M  V30 23 1 14 24
M  V30 24 1 24 25
M  V30 25 1 8 3
M  V30 26 2 24 11
M  V30 27 1 25 5
M  V30 28 1 23 17
M  V30 29 1 1 26
M  V30 30 1 1 27
M  V30 31 1 1 28
M  V30 32 1 4 29
M  V30 33 1 7 30
M  V30 34 1 10 31
M  V30 35 1 10 32
M  V30 36 1 10 33
M  V30 37 1 12 34
M  V30 38 1 15 35
M  V30 39 1 16 36
M  V30 40 1 16 37
M  V30 41 1 18 38
M  V30 42 1 19 39
M  V30 43 1 22 40
M  V30 44 1 23 41
M  V30 45 1 25 42
M  V30 46 1 25 43
M  V30 END BOND
M  V30 END CTAB
M  END
>  <Dataset>  (937) 
ChEMBL_Kinases

>  <Ligand_Instance>  (937) 
nan

>  <PDB_ID>  (937) 
nan

>  <Standardized_SMILES>  (937) 
COc1cc2c(cc1OC)-c1[nH]nc(NCc3ccc(Cl)cc3)c1C2

>  <Name>  (937) 
nan

>  <Pocket>  (937) 
nan

>  <ATP_Site>  (937) 
nan

>  <Peripheral>  (937) 
nan

>  <Num_H_Atoms_ProtBoundConf>  (937) 
nan

>  <Num_Resolved_Atoms>  (937) 
nan

>  <Num_Not_Resolved_Atoms>  (937) 
nan

$$$$
CHEMBL370522
     RDKit          3D

  0  0  0  0  0  0  0  0  0  0999 V3000
M  V30 BEGIN CTAB
M  V30 COUNTS 42 45 0 0 0
M  V30 BEGIN ATOM
M  V30 1 C -0.348673 -4.496810 2.810852 0
M  V30 2 C -0.278776 -3.016151 3.060259 0
M  V30 3 C -0.846911 -2.518593 4.242341 0
M  V30 4 C -0.777164 -1.160180 4.466413 0
M  V30 5 C -0.187069 -0.258826 3.608235 0
M  V30 6 C 0.348719 -0.816996 2.470563 0
M  V30 7 C 0.339658 -2.151232 2.139570 0
M  V30 8 O 0.842102 -2.803995 1.041780 0
M  V30 9 C 1.506634 -2.165291 0.022620 0
M  V30 10 N 1.830689 -0.909873 -0.201415 0
M  V30 11 C 2.488122 -0.382477 -1.234370 0
M  V30 12 N 2.635884 1.046493 -1.130252 0
M  V30 13 C 1.554672 1.862529 -0.729484 0
M  V30 14 C 1.686194 3.187892 -0.383865 0
M  V30 15 C 0.597652 3.952479 -0.027927 0
M  V30 16 C -0.683998 3.454486 0.007644 0
M  V30 17 N -1.905604 3.959462 0.307765 0
M  V30 18 C -2.799720 2.964787 0.154035 0
M  V30 19 N -2.174512 1.848592 -0.233908 0
M  V30 20 C -0.842439 2.108883 -0.339339 0
M  V30 21 C 0.254872 1.350309 -0.694708 0
M  V30 22 N 2.899927 -1.216091 -2.214232 0
M  V30 23 C 2.609315 -2.528785 -2.069380 0
M  V30 24 C 1.926238 -3.047218 -0.988306 0
M  V30 25 C 1.645653 -4.506739 -0.924571 0
M  V30 26 F 0.262290 -4.624429 -0.871777 0
M  V30 27 F 2.011857 -5.064783 -2.141465 0
M  V30 28 F 2.272510 -5.167321 0.078756 0
M  V30 29 H -0.593664 -4.974451 3.773850 0
M  V30 30 H 0.631251 -4.918100 2.514257 0
M  V30 31 H -1.129045 -4.767247 2.068152 0
M  V30 32 H -1.331258 -3.171128 4.964798 0
M  V30 33 H -1.225044 -0.775604 5.396090 0
M  V30 34 H -0.123860 0.806485 3.771331 0
M  V30 35 H 0.822795 -0.162948 1.758704 0
M  V30 36 H 3.539224 1.561262 -1.340810 0
M  V30 37 H 2.692648 3.594225 -0.405626 0
M  V30 38 H 0.739701 4.993692 0.238760 0
M  V30 39 H -2.107980 4.943137 0.603312 0
M  V30 40 H -3.892152 2.994514 0.304138 0
M  V30 41 H 0.008244 0.345239 -0.943794 0
M  V30 42 H 2.965910 -3.161743 -2.897284 0
M  V30 END ATOM
M  V30 BEGIN BOND
M  V30 1 1 1 2
M  V30 2 2 2 3
M  V30 3 1 3 4
M  V30 4 2 4 5
M  V30 5 1 5 6
M  V30 6 2 6 7
M  V30 7 1 7 8
M  V30 8 1 8 9
M  V30 9 2 9 10
M  V30 10 1 10 11
M  V30 11 1 11 12
M  V30 12 1 12 13
M  V30 13 2 13 14
M  V30 14 1 14 15
M  V30 15 2 15 16
M  V30 16 1 16 17
M  V30 17 1 17 18
M  V30 18 2 18 19
M  V30 19 1 19 20
M  V30 20 2 20 21
M  V30 21 2 11 22
M  V30 22 1 22 23
M  V30 23 2 23 24
M  V30 24 1 24 25
M  V30 25 1 25 26
M  V30 26 1 25 27
M  V30 27 1 25 28
M  V30 28 1 7 2
M  V30 29 1 24 9
M  V30 30 1 21 13
M  V30 31 1 20 16
M  V30 32 1 1 29
M  V30 33 1 1 30
M  V30 34 1 1 31
M  V30 35 1 3 32
M  V30 36 1 4 33
M  V30 37 1 5 34
M  V30 38 1 6 35
M  V30 39 1 12 36
M  V30 40 1 14 37
M  V30 41 1 15 38
M  V30 42 1 17 39
M  V30 43 1 18 40
M  V30 44 1 21 41
M  V30 45 1 23 42
M  V30 END BOND
M  V30 END CTAB
M  END
>  <Dataset>  (938) 
ChEMBL_Kinases

>  <Ligand_Instance>  (938) 
nan

>  <PDB_ID>  (938) 
nan

>  <Standardized_SMILES>  (938) 
Cc1ccccc1Oc1nc(Nc2ccc3[nH]cnc3c2)ncc1C(F)(F)F

>  <Name>  (938) 
nan

>  <Pocket>  (938) 
nan

>  <ATP_Site>  (938) 
nan

>  <Peripheral>  (938) 
nan

>  <Num_H_Atoms_ProtBoundConf>  (938) 
nan

>  <Num_Resolved_Atoms>  (938) 
nan

>  <Num_Not_Resolved_Atoms>  (938) 
nan

$$$$
CHEMBL574009
     RDKit          3D

  0  0  0  0  0  0  0  0  0  0999 V3000
M  V30 BEGIN CTAB
M  V30 COUNTS 46 49 0 0 0
M  V30 BEGIN ATOM
M  V30 1 C 4.153383 -0.090920 0.884372 0
M  V30 2 C 3.834305 -1.532661 0.788177 0
M  V30 3 C 3.847456 -2.270202 1.977848 0
M  V30 4 C 3.554364 -3.627696 1.941196 0
M  V30 5 C 3.255402 -4.228766 0.736459 0
M  V30 6 C 3.251963 -3.464338 -0.426197 0
M  V30 7 Cl 2.877793 -4.297959 -1.903825 0
M  V30 8 C 3.541134 -2.095028 -0.431874 0
M  V30 9 C 3.543997 -1.298929 -1.662190 0
M  V30 10 N 2.377008 -0.441744 -1.726936 0
M  V30 11 C 0.992826 -0.752398 -1.732952 0
M  V30 12 N 0.441619 -1.976083 -1.674836 0
M  V30 13 N -0.864786 -1.953596 -1.696832 0
M  V30 14 C -1.203730 -0.655464 -1.773145 0
M  V30 15 C -0.082157 0.144740 -1.799010 0
M  V30 16 C -0.443487 1.563501 -1.882363 0
M  V30 17 C -1.914347 1.552190 -1.904859 0
M  V30 18 C -2.823526 2.589287 -1.975845 0
M  V30 19 C -4.160153 2.249147 -1.978520 0
M  V30 20 C -4.647386 0.959604 -1.915910 0
M  V30 21 N -6.041876 0.679193 -1.922627 0
M  V30 22 C -6.549801 -0.677812 -1.857080 0
M  V30 23 C -6.963108 1.810694 -1.997879 0
M  V30 24 C -3.713054 -0.050070 -1.846018 0
M  V30 25 C -2.361512 0.231985 -1.839976 0
M  V30 26 H 4.734818 0.115034 1.828449 0
M  V30 27 H 3.298796 0.581349 0.885162 0
M  V30 28 H 4.833051 0.162771 0.030069 0
M  V30 29 H 4.077286 -1.837604 2.945967 0
M  V30 30 H 3.555047 -4.228535 2.841835 0
M  V30 31 H 3.026856 -5.287249 0.705693 0
M  V30 32 H 3.416487 -2.019744 -2.528489 0
M  V30 33 H 4.473569 -0.778500 -1.870694 0
M  V30 34 H 2.612372 0.593783 -1.777484 0
M  V30 35 H -1.433850 -2.817161 -1.658763 0
M  V30 36 H -0.010627 2.073694 -2.783675 0
M  V30 37 H -0.101292 2.144759 -0.995509 0
M  V30 38 H -2.494803 3.625581 -2.026816 0
M  V30 39 H -4.866101 3.079321 -2.034915 0
M  V30 40 H -5.932461 -1.286774 -2.554846 0
M  V30 41 H -7.625699 -0.668371 -2.192031 0
M  V30 42 H -6.426583 -1.100948 -0.839463 0
M  V30 43 H -6.848332 2.488883 -1.124463 0
M  V30 44 H -8.006930 1.432570 -1.975292 0
M  V30 45 H -6.842864 2.394937 -2.924041 0
M  V30 46 H -4.049444 -1.092420 -1.794424 0
M  V30 END ATOM
M  V30 BEGIN BOND
M  V30 1 1 1 2
M  V30 2 2 2 3
M  V30 3 1 3 4
M  V30 4 2 4 5
M  V30 5 1 5 6
M  V30 6 1 6 7
M  V30 7 2 6 8
M  V30 8 1 8 9
M  V30 9 1 9 10
M  V30 10 1 10 11
M  V30 11 2 11 12
M  V30 12 1 12 13
M  V30 13 1 13 14
M  V30 14 2 14 15
M  V30 15 1 15 16
M  V30 16 1 16 17
M  V30 17 2 17 18
M  V30 18 1 18 19
M  V30 19 2 19 20
M  V30 20 1 20 21
M  V30 21 1 21 22
M  V30 22 1 21 23
M  V30 23 1 20 24
M  V30 24 2 24 25
M  V30 25 1 8 2
M  V30 26 1 15 11
M  V30 27 1 25 17
M  V30 28 1 25 14
M  V30 29 1 1 26
M  V30 30 1 1 27
M  V30 31 1 1 28
M  V30 32 1 3 29
M  V30 33 1 4 30
M  V30 34 1 5 31
M  V30 35 1 9 32
M  V30 36 1 9 33
M  V30 37 1 10 34
M  V30 38 1 13 35
M  V30 39 1 16 36
M  V30 40 1 16 37
M  V30 41 1 18 38
M  V30 42 1 19 39
M  V30 43 1 22 40
M  V30 44 1 22 41
M  V30 45 1 22 42
M  V30 46 1 23 43
M  V30 47 1 23 44
M  V30 48 1 23 45
M  V30 49 1 24 46
M  V30 END BOND
M  V30 END CTAB
M  END
>  <Dataset>  (939) 
ChEMBL_Kinases

>  <Ligand_Instance>  (939) 
nan

>  <PDB_ID>  (939) 
nan

>  <Standardized_SMILES>  (939) 
Cc1cccc(Cl)c1CNc1n[nH]c2c1Cc1ccc(N(C)C)cc1-2

>  <Name>  (939) 
nan

>  <Pocket>  (939) 
nan

>  <ATP_Site>  (939) 
nan

>  <Peripheral>  (939) 
nan

>  <Num_H_Atoms_ProtBoundConf>  (939) 
nan

>  <Num_Resolved_Atoms>  (939) 
nan

>  <Num_Not_Resolved_Atoms>  (939) 
nan

$$$$
CHEMBL3729106
     RDKit          3D

  0  0  0  0  0  0  0  0  0  0999 V3000
M  V30 BEGIN CTAB
M  V30 COUNTS 60 64 0 0 0
M  V30 BEGIN ATOM
M  V30 1 C 2.191415 -3.519872 5.681248 0
M  V30 2 N 1.757238 -2.429673 4.829151 0
M  V30 3 C 1.406809 -2.469723 3.448423 0
M  V30 4 C 1.010258 -1.318191 2.801942 0
M  V30 5 C 0.674860 -1.364894 1.467701 0
M  V30 6 C 0.705755 -2.509887 0.703542 0
M  V30 7 C 0.377872 -2.709902 -0.713904 0 CFG=1
M  V30 8 C 0.278725 -1.453730 -1.511447 0
M  V30 9 N -0.403896 -1.747392 -2.773091 0
M  V30 10 C -1.379995 -0.817050 -3.204849 0
M  V30 11 N -1.516276 0.254418 -2.404749 0
M  V30 12 C -2.397014 1.252013 -2.644673 0
M  V30 13 C -2.436447 2.349108 -1.698324 0
M  V30 14 C -1.569628 2.326909 -0.627517 0
M  V30 15 C -1.557014 3.338862 0.312190 0
M  V30 16 N -2.389785 4.376756 0.211581 0
M  V30 17 C -3.282978 4.481645 -0.817117 0
M  V30 18 C -3.253896 3.445931 -1.725963 0
M  V30 19 F -4.127989 3.547424 -2.733175 0
M  V30 20 C -3.140217 1.081007 -3.771980 0
M  V30 21 C -3.042664 0.009132 -4.622800 0
M  V30 22 O -3.769370 -0.076071 -5.650139 0
M  V30 23 N -2.138298 -0.934703 -4.302554 0
M  V30 24 C -2.005706 -2.085712 -5.168850 0
M  V30 25 C 0.158107 -2.976581 -3.244765 0
M  V30 26 C 1.512609 -3.269842 -2.625781 0
M  V30 27 O 1.412346 -3.478936 -1.257614 0
M  V30 28 C 1.109063 -3.679312 1.362037 0
M  V30 29 C 1.451433 -3.640079 2.717617 0
M  V30 30 C 1.698329 -1.190874 5.525595 0
M  V30 31 C 2.885788 -0.492860 5.468015 0
M  V30 32 C 3.042056 0.733692 6.077938 0
M  V30 33 C 1.949488 1.268421 6.771477 0
M  V30 34 C 0.754162 0.542589 6.816767 0
M  V30 35 N 0.649159 -0.654129 6.204183 0
M  V30 36 H 3.087505 -3.266400 6.268913 0
M  V30 37 H 1.373156 -3.827834 6.395393 0
M  V30 38 H 2.431775 -4.435621 5.101080 0
M  V30 39 H 0.944297 -0.354554 3.292116 0
M  V30 40 H 0.361835 -0.478307 0.937644 0
M  V30 41 H -0.589673 -3.267912 -0.870176 0
M  V30 42 H -0.343800 -0.703556 -0.929722 0
M  V30 43 H 1.296095 -1.054601 -1.681376 0
M  V30 44 H -0.843806 1.561134 -0.415553 0
M  V30 45 H -0.893554 3.356095 1.163411 0
M  V30 46 H -3.964911 5.314193 -0.915032 0
M  V30 47 H -3.862609 1.823487 -4.038918 0
M  V30 48 H -2.897276 -2.073511 -5.877540 0
M  V30 49 H -2.032140 -3.055061 -4.642110 0
M  V30 50 H -1.137055 -1.982457 -5.875982 0
M  V30 51 H -0.536090 -3.837052 -3.006566 0
M  V30 52 H 0.304191 -3.006938 -4.341338 0
M  V30 53 H 1.872307 -4.226353 -3.062541 0
M  V30 54 H 2.212172 -2.443314 -2.817544 0
M  V30 55 H 1.173315 -4.655867 0.857393 0
M  V30 56 H 1.758351 -4.575845 3.182499 0
M  V30 57 H 3.794887 -0.830303 4.949386 0
M  V30 58 H 3.950247 1.327595 6.066782 0
M  V30 59 H 1.994454 2.240193 7.283707 0
M  V30 60 H -0.111297 0.919332 7.340827 0
M  V30 END ATOM
M  V30 BEGIN BOND
M  V30 1 1 1 2
M  V30 2 1 2 3
M  V30 3 2 3 4
M  V30 4 1 4 5
M  V30 5 2 5 6
M  V30 6 1 6 7
M  V30 7 1 7 8
M  V30 8 1 8 9
M  V30 9 1 9 10
M  V30 10 2 10 11
M  V30 11 1 11 12
M  V30 12 1 12 13
M  V30 13 2 13 14
M  V30 14 1 14 15
M  V30 15 2 15 16
M  V30 16 1 16 17
M  V30 17 2 17 18
M  V30 18 1 18 19
M  V30 19 2 12 20
M  V30 20 1 20 21
M  V30 21 2 21 22
M  V30 22 1 21 23
M  V30 23 1 23 24
M  V30 24 1 9 25
M  V30 25 1 25 26
M  V30 26 1 26 27
M  V30 27 1 6 28
M  V30 28 2 28 29
M  V30 29 1 2 30
M  V30 30 2 30 31
M  V30 31 1 31 32
M  V30 32 2 32 33
M  V30 33 1 33 34
M  V30 34 2 34 35
M  V30 35 1 29 3
M  V30 36 1 35 30
M  V30 37 1 27 7
M  V30 38 1 23 10
M  V30 39 1 18 13
M  V30 40 1 1 36
M  V30 41 1 1 37
M  V30 42 1 1 38
M  V30 43 1 4 39
M  V30 44 1 5 40
M  V30 45 1 7 41 CFG=1
M  V30 46 1 8 42
M  V30 47 1 8 43
M  V30 48 1 14 44
M  V30 49 1 15 45
M  V30 50 1 17 46
M  V30 51 1 20 47
M  V30 52 1 24 48
M  V30 53 1 24 49
M  V30 54 1 24 50
M  V30 55 1 25 51
M  V30 56 1 25 52
M  V30 57 1 26 53
M  V30 58 1 26 54
M  V30 59 1 28 55
M  V30 60 1 29 56
M  V30 61 1 31 57
M  V30 62 1 32 58
M  V30 63 1 33 59
M  V30 64 1 34 60
M  V30 END BOND
M  V30 END CTAB
M  END
>  <Dataset>  (940) 
ChEMBL_Kinases

>  <Ligand_Instance>  (940) 
nan

>  <PDB_ID>  (940) 
nan

>  <Standardized_SMILES>  (940) 
CN(c1ccc([C@H]2CN(c3nc(-c4ccncc4F)cc(=O)n3C)CCO2)cc1)c1ccccn1

>  <Name>  (940) 
nan

>  <Pocket>  (940) 
nan

>  <ATP_Site>  (940) 
nan

>  <Peripheral>  (940) 
nan

>  <Num_H_Atoms_ProtBoundConf>  (940) 
nan

>  <Num_Resolved_Atoms>  (940) 
nan

>  <Num_Not_Resolved_Atoms>  (940) 
nan

$$$$
CHEMBL3729100
     RDKit          3D

  0  0  0  0  0  0  0  0  0  0999 V3000
M  V30 BEGIN CTAB
M  V30 COUNTS 56 59 0 0 0
M  V30 BEGIN ATOM
M  V30 1 C -0.193001 -2.771970 7.141349 0
M  V30 2 O 0.912782 -3.463357 6.728289 0
M  V30 3 C 0.976997 -3.721238 5.392444 0
M  V30 4 C 1.136751 -2.608225 4.464653 0
M  V30 5 C 1.276023 -1.297008 4.418056 0
M  V30 6 C 1.408351 -0.439169 3.271754 0
M  V30 7 C 1.598985 0.951570 3.543075 0
M  V30 8 S 1.606670 1.573802 1.785525 0
M  V30 9 C 1.369692 0.015506 1.102673 0
M  V30 10 C 1.373925 0.433450 -0.229950 0
M  V30 11 N 1.377905 0.819625 -1.462418 0
M  V30 12 C 1.040643 2.194924 -1.747932 0
M  V30 13 C -0.152241 2.734485 -0.998397 0 CFG=1
M  V30 14 N -0.442858 4.122945 -1.442259 0
M  V30 15 C -1.322769 1.898823 -0.817498 0
M  V30 16 C -2.090541 1.412713 -1.949260 0
M  V30 17 C -1.890953 0.293881 -2.713015 0
M  V30 18 C -2.692161 -0.124893 -3.747613 0
M  V30 19 C -3.755651 0.676837 -3.983221 0
M  V30 20 C -4.186733 1.862881 -3.353260 0
M  V30 21 C -3.235076 2.112738 -2.339358 0
M  V30 22 N 1.216864 -0.905494 -0.769040 0
M  V30 23 C 1.118760 -1.993980 0.021842 0
M  V30 24 C 0.940337 -3.390557 -0.434494 0
M  V30 25 C 0.909158 -4.581006 0.132813 0
M  V30 26 C 0.756629 -5.731454 -0.504147 0
M  V30 27 N 0.631011 -5.704762 -1.742163 0
M  V30 28 C 0.615402 -4.661902 -2.655532 0
M  V30 29 C 0.788948 -3.552583 -1.794067 0
M  V30 30 N 1.150329 -2.027963 1.396023 0
M  V30 31 C 1.296670 -0.896325 2.070862 0
M  V30 32 H -1.153286 -3.313926 6.880776 0
M  V30 33 H -0.152151 -2.754812 8.266835 0
M  V30 34 H -0.187781 -1.750705 6.817263 0
M  V30 35 H 1.847662 -4.436432 5.246280 0
M  V30 36 H 0.101765 -4.364946 5.064682 0
M  V30 37 H 1.149635 -3.045418 3.456242 0
M  V30 38 H 1.311281 -0.911531 5.416553 0
M  V30 39 H 1.717042 1.587104 4.543029 0
M  V30 40 H 1.580246 0.506185 -2.427613 0
M  V30 41 H 1.960699 2.794191 -1.521436 0
M  V30 42 H 0.826997 2.382533 -2.805949 0
M  V30 43 H 0.222303 2.995389 0.060439 0
M  V30 44 H -0.294296 4.192199 -2.481640 0
M  V30 45 H -1.407002 4.387305 -1.134876 0
M  V30 46 H -1.077393 1.039990 -0.097124 0
M  V30 47 H -2.048867 2.497668 -0.174869 0
M  V30 48 H -1.004432 -0.294755 -2.433209 0
M  V30 49 H -2.516423 -1.009462 -4.330101 0
M  V30 50 H -4.420208 0.368932 -4.813981 0
M  V30 51 H -5.033050 2.468274 -3.554706 0
M  V30 52 H -3.443593 3.036379 -1.761320 0
M  V30 53 H 1.026658 -4.465345 1.237912 0
M  V30 54 H 0.750454 -6.664086 0.046774 0
M  V30 55 H 0.511569 -4.639224 -3.705064 0
M  V30 56 H 0.814826 -2.643667 -2.457786 0
M  V30 END ATOM
M  V30 BEGIN BOND
M  V30 1 1 1 2
M  V30 2 1 2 3
M  V30 3 1 3 4
M  V30 4 2 4 5
M  V30 5 1 5 6
M  V30 6 2 6 7
M  V30 7 1 7 8
M  V30 8 1 8 9
M  V30 9 2 9 10
M  V30 10 1 10 11
M  V30 11 1 11 12
M  V30 12 1 12 13
M  V30 13 1 13 14
M  V30 14 1 13 15
M  V30 15 1 15 16
M  V30 16 2 16 17
M  V30 17 1 17 18
M  V30 18 2 18 19
M  V30 19 1 19 20
M  V30 20 2 20 21
M  V30 21 1 10 22
M  V30 22 2 22 23
M  V30 23 1 23 24
M  V30 24 2 24 25
M  V30 25 1 25 26
M  V30 26 2 26 27
M  V30 27 1 27 28
M  V30 28 2 28 29
M  V30 29 1 23 30
M  V30 30 2 30 31
M  V30 31 1 31 6
M  V30 32 1 31 9
M  V30 33 1 21 16
M  V30 34 1 29 24
M  V30 35 1 1 32
M  V30 36 1 1 33
M  V30 37 1 1 34
M  V30 38 1 3 35
M  V30 39 1 3 36
M  V30 40 1 4 37
M  V30 41 1 5 38
M  V30 42 1 7 39
M  V30 43 1 11 40
M  V30 44 1 12 41
M  V30 45 1 12 42
M  V30 46 1 13 43 CFG=1
M  V30 47 1 14 44
M  V30 48 1 14 45
M  V30 49 1 15 46
M  V30 50 1 15 47
M  V30 51 1 17 48
M  V30 52 1 18 49
M  V30 53 1 19 50
M  V30 54 1 20 51
M  V30 55 1 21 52
M  V30 56 1 25 53
M  V30 57 1 26 54
M  V30 58 1 28 55
M  V30 59 1 29 56
M  V30 END BOND
M  V30 END CTAB
M  END
>  <Dataset>  (941) 
ChEMBL_Kinases

>  <Ligand_Instance>  (941) 
nan

>  <PDB_ID>  (941) 
nan

>  <Standardized_SMILES>  (941) 
COC/C=C/c1csc2c(NC[C@@H](N)Cc3ccccc3)nc(-c3ccncc3)nc12

>  <Name>  (941) 
nan

>  <Pocket>  (941) 
nan

>  <ATP_Site>  (941) 
nan

>  <Peripheral>  (941) 
nan

>  <Num_H_Atoms_ProtBoundConf>  (941) 
nan

>  <Num_Resolved_Atoms>  (941) 
nan

>  <Num_Not_Resolved_Atoms>  (941) 
nan

$$$$
CHEMBL3729098
     RDKit          3D

  0  0  0  0  0  0  0  0  0  0999 V3000
M  V30 BEGIN CTAB
M  V30 COUNTS 36 39 0 0 0
M  V30 BEGIN ATOM
M  V30 1 Br -0.653832 1.165703 6.028158 0
M  V30 2 C 0.094608 -0.097772 4.817619 0
M  V30 3 C 0.729233 -1.284791 5.383635 0
M  V30 4 S 1.335373 -2.270492 3.886778 0
M  V30 5 C 0.749159 -1.128023 2.730894 0
M  V30 6 C 0.796160 -1.113686 1.365121 0
M  V30 7 N 1.435775 -2.225331 0.769568 0
M  V30 8 C 1.506070 -2.247366 -0.674821 0 CFG=1
M  V30 9 C 2.208634 -3.478545 -1.191820 0
M  V30 10 C 1.573262 -3.680258 -2.550352 0
M  V30 11 N 0.306281 -3.020220 -2.549499 0
M  V30 12 C 0.140598 -2.366668 -1.289311 0
M  V30 13 N 0.264515 -0.100504 0.632146 0
M  V30 14 C -0.311624 0.884989 1.386337 0
M  V30 15 C -0.914663 2.026728 0.658295 0
M  V30 16 C -1.509317 3.048727 1.369752 0
M  V30 17 C -2.034238 4.054339 0.573773 0
M  V30 18 N -1.985983 4.063748 -0.754891 0
M  V30 19 C -1.398274 3.050804 -1.418394 0
M  V30 20 C -0.834244 1.981348 -0.715643 0
M  V30 21 N -0.355007 0.866083 2.725003 0
M  V30 22 C 0.168268 -0.132120 3.459822 0
M  V30 23 H 0.791581 -1.484164 6.578325 0
M  V30 24 H 1.857790 -3.024549 1.282106 0
M  V30 25 H 1.945404 -1.304747 -1.073075 0
M  V30 26 H 1.936021 -4.327626 -0.540223 0
M  V30 27 H 3.310657 -3.314002 -1.276619 0
M  V30 28 H 2.225430 -3.265933 -3.365324 0
M  V30 29 H 1.400552 -4.765202 -2.754736 0
M  V30 30 H 0.126683 -2.419139 -3.378725 0
M  V30 31 H -0.381765 -1.382789 -1.366921 0
M  V30 32 H -0.502355 -3.034948 -0.647107 0
M  V30 33 H -1.559219 3.060265 2.451255 0
M  V30 34 H -2.524322 4.905800 1.034280 0
M  V30 35 H -1.350202 3.043217 -2.508694 0
M  V30 36 H -0.373344 1.190252 -1.281728 0
M  V30 END ATOM
M  V30 BEGIN BOND
M  V30 1 1 1 2
M  V30 2 2 2 3
M  V30 3 1 3 4
M  V30 4 1 4 5
M  V30 5 2 5 6
M  V30 6 1 6 7
M  V30 7 1 7 8
M  V30 8 1 8 9
M  V30 9 1 9 10
M  V30 10 1 10 11
M  V30 11 1 11 12
M  V30 12 1 6 13
M  V30 13 2 13 14
M  V30 14 1 14 15
M  V30 15 2 15 16
M  V30 16 1 16 17
M  V30 17 2 17 18
M  V30 18 1 18 19
M  V30 19 2 19 20
M  V30 20 1 14 21
M  V30 21 2 21 22
M  V30 22 1 22 2
M  V30 23 1 22 5
M  V30 24 1 12 8
M  V30 25 1 20 15
M  V30 26 1 3 23
M  V30 27 1 7 24
M  V30 28 1 8 25 CFG=3
M  V30 29 1 9 26
M  V30 30 1 9 27
M  V30 31 1 10 28
M  V30 32 1 10 29
M  V30 33 1 11 30
M  V30 34 1 12 31
M  V30 35 1 12 32
M  V30 36 1 16 33
M  V30 37 1 17 34
M  V30 38 1 19 35
M  V30 39 1 20 36
M  V30 END BOND
M  V30 END CTAB
M  END
>  <Dataset>  (942) 
ChEMBL_Kinases

>  <Ligand_Instance>  (942) 
nan

>  <PDB_ID>  (942) 
nan

>  <Standardized_SMILES>  (942) 
Brc1csc2c(N[C@H]3CCNC3)nc(-c3ccncc3)nc12

>  <Name>  (942) 
nan

>  <Pocket>  (942) 
nan

>  <ATP_Site>  (942) 
nan

>  <Peripheral>  (942) 
nan

>  <Num_H_Atoms_ProtBoundConf>  (942) 
nan

>  <Num_Resolved_Atoms>  (942) 
nan

>  <Num_Not_Resolved_Atoms>  (942) 
nan

$$$$
CHEMBL3729073
     RDKit          3D

  0  0  0  0  0  0  0  0  0  0999 V3000
M  V30 BEGIN CTAB
M  V30 COUNTS 41 44 0 0 0
M  V30 BEGIN ATOM
M  V30 1 C 1.936897 -3.995997 -0.448830 0
M  V30 2 C 0.413454 -3.785634 -0.369991 0 CFG=2
M  V30 3 N -0.182259 -5.101457 -0.466169 0
M  V30 4 C -0.019971 -2.873179 -1.519623 0
M  V30 5 N 0.647210 -1.590163 -1.415793 0
M  V30 6 C 0.098294 -0.960018 -0.375343 0
M  V30 7 N 1.201569 -0.059578 -0.348445 0
M  V30 8 C 1.332289 0.957378 0.545903 0
M  V30 9 C 2.461301 1.949426 0.650132 0
M  V30 10 C 3.453175 1.699360 -0.262791 0
M  V30 11 C 4.552473 2.514473 -0.285581 0
M  V30 12 N 4.604342 3.514432 0.583671 0
M  V30 13 C 3.647734 3.768819 1.477737 0
M  V30 14 C 2.529314 2.983676 1.540200 0
M  V30 15 N 0.421554 1.216008 1.504380 0
M  V30 16 C -0.678338 0.508694 1.661915 0
M  V30 17 C -0.428388 -0.354691 0.623482 0
M  V30 18 S -1.996707 -1.488948 0.664902 0
M  V30 19 C -2.814876 -0.643182 2.105952 0
M  V30 20 C -3.943800 -0.790941 2.780259 0
M  V30 21 C -4.226235 0.057742 3.810428 0
M  V30 22 C -3.262523 1.010669 4.037227 0
M  V30 23 C -2.082004 1.190380 3.354694 0
M  V30 24 Cl -1.113063 2.542888 3.956677 0
M  V30 25 C -1.834481 0.301100 2.313480 0
M  V30 26 H 2.270264 -4.041211 -1.505763 0
M  V30 27 H 2.455509 -3.226234 0.140127 0
M  V30 28 H 2.177160 -4.966803 0.016957 0
M  V30 29 H 0.258862 -3.341428 0.624192 0
M  V30 30 H 0.347076 -5.648335 -1.164129 0
M  V30 31 H -0.021096 -5.567237 0.450388 0
M  V30 32 H -1.124389 -2.807859 -1.575692 0
M  V30 33 H 0.256814 -3.403413 -2.441205 0
M  V30 34 H 1.328120 -1.513145 -2.162736 0
M  V30 35 H 3.439496 0.888866 -0.994091 0
M  V30 36 H 5.349520 2.340931 -0.998676 0
M  V30 37 H 3.643171 4.571702 2.205949 0
M  V30 38 H 1.703228 3.090816 2.209927 0
M  V30 39 H -4.533288 -1.614656 2.405032 0
M  V30 40 H -5.154379 -0.085181 4.342704 0
M  V30 41 H -3.560190 1.655878 4.883623 0
M  V30 END ATOM
M  V30 BEGIN BOND
M  V30 1 1 1 2
M  V30 2 1 2 3
M  V30 3 1 2 4
M  V30 4 1 4 5
M  V30 5 1 5 6
M  V30 6 2 6 7
M  V30 7 1 7 8
M  V30 8 1 8 9
M  V30 9 2 9 10
M  V30 10 1 10 11
M  V30 11 2 11 12
M  V30 12 1 12 13
M  V30 13 2 13 14
M  V30 14 2 8 15
M  V30 15 1 15 16
M  V30 16 2 16 17
M  V30 17 1 17 18
M  V30 18 1 18 19
M  V30 19 2 19 20
M  V30 20 1 20 21
M  V30 21 2 21 22
M  V30 22 1 22 23
M  V30 23 1 23 24
M  V30 24 2 23 25
M  V30 25 1 17 6
M  V30 26 1 25 19
M  V30 27 1 14 9
M  V30 28 1 25 16
M  V30 29 1 1 26
M  V30 30 1 1 27
M  V30 31 1 1 28
M  V30 32 1 2 29 CFG=1
M  V30 33 1 3 30
M  V30 34 1 3 31
M  V30 35 1 4 32
M  V30 36 1 4 33
M  V30 37 1 5 34
M  V30 38 1 10 35
M  V30 39 1 11 36
M  V30 40 1 13 37
M  V30 41 1 14 38
M  V30 42 1 20 39
M  V30 43 1 21 40
M  V30 44 1 22 41
M  V30 END BOND
M  V30 END CTAB
M  END
>  <Dataset>  (943) 
ChEMBL_Kinases

>  <Ligand_Instance>  (943) 
nan

>  <PDB_ID>  (943) 
nan

>  <Standardized_SMILES>  (943) 
C[C@H](N)CNc1nc(-c2ccncc2)nc2c1sc1cccc(Cl)c12

>  <Name>  (943) 
nan

>  <Pocket>  (943) 
nan

>  <ATP_Site>  (943) 
nan

>  <Peripheral>  (943) 
nan

>  <Num_H_Atoms_ProtBoundConf>  (943) 
nan

>  <Num_Resolved_Atoms>  (943) 
nan

>  <Num_Not_Resolved_Atoms>  (943) 
nan

$$$$
CHEMBL3729071
     RDKit          3D

  0  0  0  0  0  0  0  0  0  0999 V3000
M  V30 BEGIN CTAB
M  V30 COUNTS 43 47 0 0 0
M  V30 BEGIN ATOM
M  V30 1 N -4.018088 -2.881504 0.051824 0
M  V30 2 C -2.596633 -3.073498 0.256675 0 CFG=1
M  V30 3 C -1.686994 -3.089033 -0.904427 0
M  V30 4 C -1.644885 -1.933714 0.111622 0 CFG=2
M  V30 5 N -0.499903 -1.822806 0.957321 0
M  V30 6 C 0.343940 -0.678341 0.710056 0
M  V30 7 N -0.070639 0.103288 -0.295658 0
M  V30 8 C 0.530515 1.218278 -0.734214 0
M  V30 9 C -0.003067 2.001591 -1.840686 0
M  V30 10 C -1.161128 1.574745 -2.447785 0
M  V30 11 C -1.562022 2.415667 -3.492024 0
M  V30 12 N -0.916077 3.514013 -3.879122 0
M  V30 13 C 0.210060 3.877911 -3.245578 0
M  V30 14 C 0.698395 3.131158 -2.207759 0
M  V30 15 N 1.650184 1.547640 -0.076925 0
M  V30 16 C 2.120504 0.789439 0.956031 0
M  V30 17 S 3.521837 0.968247 1.973858 0
M  V30 18 C 3.229384 -0.481670 2.953830 0
M  V30 19 C 2.034585 -1.035272 2.425302 0
M  V30 20 C 1.497567 -0.331486 1.381991 0
M  V30 21 C 1.859882 -2.213152 3.290872 0
M  V30 22 C 1.781187 -1.682339 4.733999 0
M  V30 23 C 3.163681 -1.386758 5.262319 0
M  V30 24 C 4.043125 -1.025683 4.079519 0
M  V30 25 H -4.530208 -3.099658 0.927707 0
M  V30 26 H -4.242770 -1.960451 -0.369707 0
M  V30 27 H -2.372978 -3.853537 1.031986 0
M  V30 28 H -2.125318 -2.900148 -1.892302 0
M  V30 29 H -0.795487 -3.753913 -0.893372 0
M  V30 30 H -2.165941 -0.987411 -0.212483 0
M  V30 31 H -0.561699 -2.640125 1.570911 0
M  V30 32 H -1.711582 0.693392 -2.163994 0
M  V30 33 H -2.460529 2.187978 -4.050359 0
M  V30 34 H 0.735468 4.774069 -3.562789 0
M  V30 35 H 1.607320 3.443394 -1.712045 0
M  V30 36 H 0.902883 -2.697162 3.118430 0
M  V30 37 H 2.717865 -2.929094 3.216858 0
M  V30 38 H 1.153729 -0.769240 4.680501 0
M  V30 39 H 1.295237 -2.401713 5.397108 0
M  V30 40 H 3.091230 -0.480565 5.896678 0
M  V30 41 H 3.619146 -2.194082 5.837888 0
M  V30 42 H 4.827096 -0.322713 4.348793 0
M  V30 43 H 4.466097 -1.995120 3.697941 0
M  V30 END ATOM
M  V30 BEGIN BOND
M  V30 1 1 1 2
M  V30 2 1 2 3
M  V30 3 1 3 4
M  V30 4 1 4 5
M  V30 5 1 5 6
M  V30 6 2 6 7
M  V30 7 1 7 8
M  V30 8 1 8 9
M  V30 9 2 9 10
M  V30 10 1 10 11
M  V30 11 2 11 12
M  V30 12 1 12 13
M  V30 13 2 13 14
M  V30 14 2 8 15
M  V30 15 1 15 16
M  V30 16 1 16 17
M  V30 17 1 17 18
M  V30 18 2 18 19
M  V30 19 1 19 20
M  V30 20 1 19 21
M  V30 21 1 21 22
M  V30 22 1 22 23
M  V30 23 1 23 24
M  V30 24 1 4 2
M  V30 25 1 20 6
M  V30 26 1 14 9
M  V30 27 2 20 16
M  V30 28 1 24 18
M  V30 29 1 1 25
M  V30 30 1 1 26
M  V30 31 1 2 27 CFG=1
M  V30 32 1 3 28
M  V30 33 1 3 29
M  V30 34 1 4 30 CFG=3
M  V30 35 1 5 31
M  V30 36 1 10 32
M  V30 37 1 11 33
M  V30 38 1 13 34
M  V30 39 1 14 35
M  V30 40 1 21 36
M  V30 41 1 21 37
M  V30 42 1 22 38
M  V30 43 1 22 39
M  V30 44 1 23 40
M  V30 45 1 23 41
M  V30 46 1 24 42
M  V30 47 1 24 43
M  V30 END BOND
M  V30 END CTAB
M  END
>  <Dataset>  (944) 
ChEMBL_Kinases

>  <Ligand_Instance>  (944) 
nan

>  <PDB_ID>  (944) 
nan

>  <Standardized_SMILES>  (944) 
N[C@H]1C[C@@H]1Nc1nc(-c2ccncc2)nc2sc3c(c12)CCCC3

>  <Name>  (944) 
nan

>  <Pocket>  (944) 
nan

>  <ATP_Site>  (944) 
nan

>  <Peripheral>  (944) 
nan

>  <Num_H_Atoms_ProtBoundConf>  (944) 
nan

>  <Num_Resolved_Atoms>  (944) 
nan

>  <Num_Not_Resolved_Atoms>  (944) 
nan

$$$$
CHEMBL3729052
     RDKit          3D

  0  0  0  0  0  0  0  0  0  0999 V3000
M  V30 BEGIN CTAB
M  V30 COUNTS 36 37 0 0 0
M  V30 BEGIN ATOM
M  V30 1 C -1.327602 -3.365694 1.778865 0
M  V30 2 C 0.134647 -3.561932 1.551694 0
M  V30 3 C 0.828261 -4.443314 2.374821 0
M  V30 4 C 2.170942 -4.620432 2.162679 0
M  V30 5 C 2.795127 -3.927240 1.148333 0
M  V30 6 C 2.164385 -3.040519 0.299230 0
M  V30 7 N 2.845460 -2.362297 -0.719825 0
M  V30 8 C 2.195803 -1.422481 -1.612499 0
M  V30 9 C 1.664020 -0.312277 -0.781747 0
M  V30 10 O 1.572953 0.106934 0.400220 0
M  V30 11 N 1.002148 0.663376 -1.590217 0
M  V30 12 N 0.423777 1.806701 -0.976966 0
M  V30 13 C -0.668323 1.668052 -0.276171 0
M  V30 14 C -1.287984 2.820894 0.366567 0
M  V30 15 C -0.685794 4.052892 0.211506 0
M  V30 16 Cl 0.781060 4.261915 -0.723195 0
M  V30 17 C -1.293115 5.126463 0.829981 0
M  V30 18 N -2.422910 4.971960 1.551242 0
M  V30 19 C -2.968576 3.748487 1.670367 0
M  V30 20 C -2.446045 2.604317 1.094252 0
M  V30 21 Cl -3.178830 1.023962 1.266489 0
M  V30 22 C 0.816173 -2.898121 0.553988 0
M  V30 23 H -1.796557 -3.265487 0.786498 0
M  V30 24 H -1.512603 -2.488956 2.407452 0
M  V30 25 H -1.734820 -4.309067 2.234481 0
M  V30 26 H 0.270027 -4.945803 3.143255 0
M  V30 27 H 2.682014 -5.304055 2.809548 0
M  V30 28 H 3.846561 -4.126952 1.054126 0
M  V30 29 H 3.865936 -2.544157 -0.838777 0
M  V30 30 H 1.395230 -1.974838 -2.137270 0
M  V30 31 H 2.895515 -1.030064 -2.376758 0
M  V30 32 H 0.816303 0.757537 -2.633214 0
M  V30 33 H -1.077981 0.669761 -0.201660 0
M  V30 34 H -0.881909 6.142569 0.758903 0
M  V30 35 H -3.888729 3.622470 2.257799 0
M  V30 36 H 0.219100 -2.231477 -0.049015 0
M  V30 END ATOM
M  V30 BEGIN BOND
M  V30 1 1 1 2
M  V30 2 2 2 3
M  V30 3 1 3 4
M  V30 4 2 4 5
M  V30 5 1 5 6
M  V30 6 1 6 7
M  V30 7 1 7 8
M  V30 8 1 8 9
M  V30 9 2 9 10
M  V30 10 1 9 11
M  V30 11 1 11 12
M  V30 12 2 12 13
M  V30 13 1 13 14
M  V30 14 2 14 15
M  V30 15 1 15 16
M  V30 16 1 15 17
M  V30 17 2 17 18
M  V30 18 1 18 19
M  V30 19 2 19 20
M  V30 20 1 20 21
M  V30 21 2 6 22
M  V30 22 1 22 2
M  V30 23 1 20 14
M  V30 24 1 1 23
M  V30 25 1 1 24
M  V30 26 1 1 25
M  V30 27 1 3 26
M  V30 28 1 4 27
M  V30 29 1 5 28
M  V30 30 1 7 29
M  V30 31 1 8 30
M  V30 32 1 8 31
M  V30 33 1 11 32
M  V30 34 1 13 33
M  V30 35 1 17 34
M  V30 36 1 19 35
M  V30 37 1 22 36
M  V30 END BOND
M  V30 END CTAB
M  END
>  <Dataset>  (945) 
ChEMBL_Kinases

>  <Ligand_Instance>  (945) 
nan

>  <PDB_ID>  (945) 
nan

>  <Standardized_SMILES>  (945) 
Cc1cccc(NCC(=O)N/N=C/c2c(Cl)cncc2Cl)c1

>  <Name>  (945) 
nan

>  <Pocket>  (945) 
nan

>  <ATP_Site>  (945) 
nan

>  <Peripheral>  (945) 
nan

>  <Num_H_Atoms_ProtBoundConf>  (945) 
nan

>  <Num_Resolved_Atoms>  (945) 
nan

>  <Num_Not_Resolved_Atoms>  (945) 
nan

$$$$
CHEMBL524054
     RDKit          3D

  0  0  0  0  0  0  0  0  0  0999 V3000
M  V30 BEGIN CTAB
M  V30 COUNTS 49 53 0 0 0
M  V30 BEGIN ATOM
M  V30 1 C 0.731136 -0.532523 -3.180252 0
M  V30 2 C 2.101925 -0.503136 -2.612075 0
M  V30 3 C 3.242273 -0.371044 -3.371771 0
M  V30 4 C 4.543358 -0.334664 -2.930360 0
M  V30 5 C 4.682663 -0.445108 -1.574825 0
M  V30 6 C 5.886245 -0.431997 -0.930384 0
M  V30 7 N 7.207203 -0.312509 -1.427020 0
M  V30 8 N 5.979393 -0.551625 0.500729 0
M  V30 9 S 4.185172 -0.694467 0.951721 0
M  V30 10 C 3.546462 -0.579709 -0.783546 0
M  V30 11 C 2.251272 -0.613620 -1.249384 0
M  V30 12 C 1.178603 -0.756990 -0.314172 0
M  V30 13 C 0.486143 0.248786 0.331855 0
M  V30 14 C -0.527275 -0.050876 1.208734 0
M  V30 15 C -0.915226 -1.341684 1.498991 0
M  V30 16 C -1.944016 -1.557912 2.390705 0
M  V30 17 N -2.650867 -0.512371 3.060999 0
M  V30 18 C -2.181953 0.505189 4.011709 0
M  V30 19 C -2.896353 1.787685 3.642612 0
M  V30 20 O -4.211470 1.639380 4.108584 0
M  V30 21 C -4.825894 0.491673 3.693553 0
M  V30 22 C -4.051288 -0.397350 2.791831 0 CFG=2
M  V30 23 C -4.628216 -1.819620 2.778769 0
M  V30 24 N -2.214958 -2.862053 2.575295 0
M  V30 25 N -1.579999 -3.853892 1.979815 0
M  V30 26 C -0.575633 -3.646422 1.109397 0
M  V30 27 C -0.219547 -2.339290 0.850319 0
M  V30 28 C 0.804016 -2.064091 -0.036413 0
M  V30 29 H 0.070482 0.231347 -2.717340 0
M  V30 30 H 0.270090 -1.549013 -3.164772 0
M  V30 31 H 0.727768 -0.262852 -4.260769 0
M  V30 32 H 3.088969 -0.284701 -4.460981 0
M  V30 33 H 5.349520 -0.227609 -3.623899 0
M  V30 34 H 7.811584 -1.134946 -1.640754 0
M  V30 35 H 7.405687 0.708380 -1.517072 0
M  V30 36 H 0.827194 1.244369 0.071408 0
M  V30 37 H -1.015295 0.776731 1.666042 0
M  V30 38 H -2.581949 0.209166 5.028295 0
M  V30 39 H -1.089144 0.588816 4.040912 0
M  V30 40 H -2.444452 2.671936 4.131858 0
M  V30 41 H -2.905912 1.939278 2.550215 0
M  V30 42 H -5.750805 0.812974 3.130248 0
M  V30 43 H -5.236833 -0.054995 4.575902 0
M  V30 44 H -4.142155 -0.054945 1.722522 0
M  V30 45 H -5.728675 -1.703297 2.964798 0
M  V30 46 H -4.254641 -2.353436 3.676010 0
M  V30 47 H -4.412339 -2.336563 1.843868 0
M  V30 48 H -0.089107 -4.498237 0.649494 0
M  V30 49 H 1.289744 -2.929613 -0.495797 0
M  V30 END ATOM
M  V30 BEGIN BOND
M  V30 1 1 1 2
M  V30 2 2 2 3
M  V30 3 1 3 4
M  V30 4 2 4 5
M  V30 5 1 5 6
M  V30 6 1 6 7
M  V30 7 2 6 8
M  V30 8 1 8 9
M  V30 9 1 9 10
M  V30 10 2 10 11
M  V30 11 1 11 12
M  V30 12 2 12 13
M  V30 13 1 13 14
M  V30 14 2 14 15
M  V30 15 1 15 16
M  V30 16 1 16 17
M  V30 17 1 17 18
M  V30 18 1 18 19
M  V30 19 1 19 20
M  V30 20 1 20 21
M  V30 21 1 21 22
M  V30 22 1 22 23
M  V30 23 2 16 24
M  V30 24 1 24 25
M  V30 25 2 25 26
M  V30 26 1 26 27
M  V30 27 2 27 28
M  V30 28 1 11 2
M  V30 29 1 28 12
M  V30 30 1 10 5
M  V30 31 1 27 15
M  V30 32 1 22 17
M  V30 33 1 1 29
M  V30 34 1 1 30
M  V30 35 1 1 31
M  V30 36 1 3 32
M  V30 37 1 4 33
M  V30 38 1 7 34
M  V30 39 1 7 35
M  V30 40 1 13 36
M  V30 41 1 14 37
M  V30 42 1 18 38
M  V30 43 1 18 39
M  V30 44 1 19 40
M  V30 45 1 19 41
M  V30 46 1 21 42
M  V30 47 1 21 43
M  V30 48 1 22 44 CFG=3
M  V30 49 1 23 45
M  V30 50 1 23 46
M  V30 51 1 23 47
M  V30 52 1 26 48
M  V30 53 1 28 49
M  V30 END BOND
M  V30 END CTAB
M  END
>  <Dataset>  (946) 
ChEMBL_Kinases

>  <Ligand_Instance>  (946) 
nan

>  <PDB_ID>  (946) 
nan

>  <Standardized_SMILES>  (946) 
Cc1ccc2c(N)nsc2c1-c1ccc2c(N3CCOC[C@@H]3C)nncc2c1

>  <Name>  (946) 
nan

>  <Pocket>  (946) 
nan

>  <ATP_Site>  (946) 
nan

>  <Peripheral>  (946) 
nan

>  <Num_H_Atoms_ProtBoundConf>  (946) 
nan

>  <Num_Resolved_Atoms>  (946) 
nan

>  <Num_Not_Resolved_Atoms>  (946) 
nan

$$$$
CHEMBL3729030
     RDKit          3D

  0  0  0  0  0  0  0  0  0  0999 V3000
M  V30 BEGIN CTAB
M  V30 COUNTS 51 54 0 0 0
M  V30 BEGIN ATOM
M  V30 1 C 2.450258 -2.930884 0.187206 0
M  V30 2 C 1.703132 -1.673866 0.424583 0
M  V30 3 C 2.469486 -0.566359 0.824047 0
M  V30 4 C 3.900060 -0.434046 1.050987 0
M  V30 5 C 5.071616 -0.309549 1.250164 0
M  V30 6 C 6.499514 -0.162515 1.471060 0
M  V30 7 C 7.225795 0.283832 0.224118 0
M  V30 8 C 7.022350 -1.520304 1.926104 0
M  V30 9 O 6.798223 0.739135 2.493206 0
M  V30 10 S 1.245372 0.806521 1.028327 0
M  V30 11 C -0.174478 -0.180886 0.573644 0
M  V30 12 C -1.481297 0.133967 0.483313 0
M  V30 13 N -1.847385 1.454918 0.788442 0
M  V30 14 C -3.224601 1.818495 0.701757 0 CFG=2
M  V30 15 C -3.497804 3.251519 1.049398 0
M  V30 16 C -4.612253 3.257802 2.071293 0
M  V30 17 N -5.049266 1.884902 2.211820 0
M  V30 18 C -3.991753 1.049036 1.733352 0
M  V30 19 N -2.389686 -0.799190 0.111727 0
M  V30 20 C -1.851290 -2.030074 -0.146224 0
M  V30 21 C -2.796537 -3.091496 -0.557068 0
M  V30 22 C -2.342252 -4.359927 -0.836524 0
M  V30 23 C -3.266273 -5.313137 -1.215536 0
M  V30 24 N -4.590785 -5.017483 -1.313157 0
M  V30 25 C -5.013277 -3.753074 -1.030534 0
M  V30 26 C -4.130008 -2.753991 -0.644663 0
M  V30 27 N -0.548808 -2.333383 -0.053383 0
M  V30 28 C 0.367375 -1.418904 0.314233 0
M  V30 29 H 3.281970 -2.711520 -0.532685 0
M  V30 30 H 1.752835 -3.668289 -0.232808 0
M  V30 31 H 2.834316 -3.368548 1.128664 0
M  V30 32 H 7.415144 -0.558874 -0.464016 0
M  V30 33 H 8.145728 0.813481 0.547652 0
M  V30 34 H 6.593826 1.076038 -0.260709 0
M  V30 35 H 7.996545 -1.347206 2.441899 0
M  V30 36 H 7.239926 -2.179062 1.066884 0
M  V30 37 H 6.307864 -1.908758 2.654044 0
M  V30 38 H 6.144442 1.488112 2.409393 0
M  V30 39 H -1.183474 2.200878 1.077174 0
M  V30 40 H -3.582140 1.576779 -0.327780 0
M  V30 41 H -3.785258 3.779693 0.110979 0
M  V30 42 H -2.646614 3.788597 1.497712 0
M  V30 43 H -5.474309 3.866645 1.744514 0
M  V30 44 H -4.288190 3.678389 3.045293 0
M  V30 45 H -5.943466 1.701461 1.696295 0
M  V30 46 H -4.400546 0.151840 1.217674 0
M  V30 47 H -3.302251 0.708259 2.534594 0
M  V30 48 H -1.267756 -4.586687 -0.753823 0
M  V30 49 H -2.949500 -6.322941 -1.444007 0
M  V30 50 H -6.064244 -3.579085 -1.124240 0
M  V30 51 H -4.522572 -1.756972 -0.429736 0
M  V30 END ATOM
M  V30 BEGIN BOND
M  V30 1 1 1 2
M  V30 2 2 2 3
M  V30 3 1 3 4
M  V30 4 3 4 5
M  V30 5 1 5 6
M  V30 6 1 6 7
M  V30 7 1 6 8
M  V30 8 1 6 9
M  V30 9 1 3 10
M  V30 10 1 10 11
M  V30 11 2 11 12
M  V30 12 1 12 13
M  V30 13 1 13 14
M  V30 14 1 14 15
M  V30 15 1 15 16
M  V30 16 1 16 17
M  V30 17 1 17 18
M  V30 18 1 12 19
M  V30 19 2 19 20
M  V30 20 1 20 21
M  V30 21 2 21 22
M  V30 22 1 22 23
M  V30 23 2 23 24
M  V30 24 1 24 25
M  V30 25 2 25 26
M  V30 26 1 20 27
M  V30 27 2 27 28
M  V30 28 1 28 2
M  V30 29 1 28 11
M  V30 30 1 18 14
M  V30 31 1 26 21
M  V30 32 1 1 29
M  V30 33 1 1 30
M  V30 34 1 1 31
M  V30 35 1 7 32
M  V30 36 1 7 33
M  V30 37 1 7 34
M  V30 38 1 8 35
M  V30 39 1 8 36
M  V30 40 1 8 37
M  V30 41 1 9 38
M  V30 42 1 13 39
M  V30 43 1 14 40 CFG=3
M  V30 44 1 15 41
M  V30 45 1 15 42
M  V30 46 1 16 43
M  V30 47 1 16 44
M  V30 48 1 17 45
M  V30 49 1 18 46
M  V30 50 1 18 47
M  V30 51 1 22 48
M  V30 52 1 23 49
M  V30 53 1 25 50
M  V30 54 1 26 51
M  V30 END BOND
M  V30 END CTAB
M  END
>  <Dataset>  (947) 
ChEMBL_Kinases

>  <Ligand_Instance>  (947) 
nan

>  <PDB_ID>  (947) 
nan

>  <Standardized_SMILES>  (947) 
Cc1c(C#CC(C)(C)O)sc2c(N[C@@H]3CCNC3)nc(-c3ccncc3)nc12

>  <Name>  (947) 
nan

>  <Pocket>  (947) 
nan

>  <ATP_Site>  (947) 
nan

>  <Peripheral>  (947) 
nan

>  <Num_H_Atoms_ProtBoundConf>  (947) 
nan

>  <Num_Resolved_Atoms>  (947) 
nan

>  <Num_Not_Resolved_Atoms>  (947) 
nan

$$$$
CHEMBL3729003
     RDKit          3D

  0  0  0  0  0  0  0  0  0  0999 V3000
M  V30 BEGIN CTAB
M  V30 COUNTS 45 49 0 0 0
M  V30 BEGIN ATOM
M  V30 1 C 2.189386 -5.883031 -1.616380 0
M  V30 2 C 1.794670 -5.030701 -0.587157 0
M  V30 3 C 1.516682 -3.721204 -0.922702 0
M  V30 4 C 1.099783 -2.788971 0.116620 0
M  V30 5 N 0.808947 -1.517416 -0.087045 0
M  V30 6 C 0.421050 -0.605735 0.813765 0
M  V30 7 O 0.154991 0.698387 0.416893 0
M  V30 8 C 0.250895 1.184756 -0.869881 0 CFG=2
M  V30 9 C 1.222183 2.304502 -1.067890 0
M  V30 10 C 0.725877 2.932417 -2.356260 0
M  V30 11 N -0.696110 2.792284 -2.330765 0
M  V30 12 C -1.033616 1.694008 -1.460782 0
M  V30 13 C 0.300391 -1.011246 2.124187 0
M  V30 14 C -0.075118 -0.256322 3.187178 0
M  V30 15 C -0.130056 -0.892063 4.458332 0
M  V30 16 S 0.353961 -2.556433 4.121762 0
M  V30 17 C 0.599466 -2.352574 2.384081 0
M  V30 18 N 0.985445 -3.196052 1.392495 0
M  V30 19 C -0.541004 -0.069260 5.626602 0
M  V30 20 C -1.923993 0.495997 5.277253 0
M  V30 21 C -1.872252 1.223349 3.947858 0
M  V30 22 C -0.468736 1.168628 3.355135 0
M  V30 23 C 1.620327 -3.252763 -2.227969 0
M  V30 24 C 2.023780 -4.182598 -3.192305 0
M  V30 25 N 2.303055 -5.462716 -2.908196 0
M  V30 26 H 2.434430 -6.943194 -1.461386 0
M  V30 27 H 1.723601 -5.425063 0.417235 0
M  V30 28 H 0.581038 0.333715 -1.525805 0
M  V30 29 H 1.279211 3.028571 -0.233568 0
M  V30 30 H 2.233087 1.874117 -1.306010 0
M  V30 31 H 1.181413 2.431325 -3.234758 0
M  V30 32 H 1.094886 3.977087 -2.365898 0
M  V30 33 H -1.221367 3.655841 -2.099539 0
M  V30 34 H -1.798283 1.979337 -0.701235 0
M  V30 35 H -1.532590 0.911199 -2.075068 0
M  V30 36 H -0.653220 -0.778556 6.458339 0
M  V30 37 H 0.194171 0.719389 5.782109 0
M  V30 38 H -2.610753 -0.374738 5.246521 0
M  V30 39 H -2.211983 1.136346 6.124711 0
M  V30 40 H -2.146138 2.277768 4.140689 0
M  V30 41 H -2.542218 0.702585 3.254320 0
M  V30 42 H 0.222780 1.715054 4.003042 0
M  V30 43 H -0.532447 1.720705 2.401200 0
M  V30 44 H 1.403697 -2.225134 -2.500150 0
M  V30 45 H 2.099512 -3.804602 -4.199435 0
M  V30 END ATOM
M  V30 BEGIN BOND
M  V30 1 2 1 2
M  V30 2 1 2 3
M  V30 3 1 3 4
M  V30 4 2 4 5
M  V30 5 1 5 6
M  V30 6 1 6 7
M  V30 7 1 7 8
M  V30 8 1 8 9
M  V30 9 1 9 10
M  V30 10 1 10 11
M  V30 11 1 11 12
M  V30 12 2 6 13
M  V30 13 1 13 14
M  V30 14 2 14 15
M  V30 15 1 15 16
M  V30 16 1 16 17
M  V30 17 2 17 18
M  V30 18 1 15 19
M  V30 19 1 19 20
M  V30 20 1 20 21
M  V30 21 1 21 22
M  V30 22 2 3 23
M  V30 23 1 23 24
M  V30 24 2 24 25
M  V30 25 1 25 1
M  V30 26 1 18 4
M  V30 27 1 12 8
M  V30 28 1 17 13
M  V30 29 1 22 14
M  V30 30 1 1 26
M  V30 31 1 2 27
M  V30 32 1 8 28 CFG=3
M  V30 33 1 9 29
M  V30 34 1 9 30
M  V30 35 1 10 31
M  V30 36 1 10 32
M  V30 37 1 11 33
M  V30 38 1 12 34
M  V30 39 1 12 35
M  V30 40 1 19 36
M  V30 41 1 19 37
M  V30 42 1 20 38
M  V30 43 1 20 39
M  V30 44 1 21 40
M  V30 45 1 21 41
M  V30 46 1 22 42
M  V30 47 1 22 43
M  V30 48 1 23 44
M  V30 49 1 24 45
M  V30 END BOND
M  V30 END CTAB
M  END
>  <Dataset>  (948) 
ChEMBL_Kinases

>  <Ligand_Instance>  (948) 
nan

>  <PDB_ID>  (948) 
nan

>  <Standardized_SMILES>  (948) 
c1cc(-c2nc(O[C@@H]3CCNC3)c3c4c(sc3n2)CCCC4)ccn1

>  <Name>  (948) 
nan

>  <Pocket>  (948) 
nan

>  <ATP_Site>  (948) 
nan

>  <Peripheral>  (948) 
nan

>  <Num_H_Atoms_ProtBoundConf>  (948) 
nan

>  <Num_Resolved_Atoms>  (948) 
nan

>  <Num_Not_Resolved_Atoms>  (948) 
nan

$$$$
CHEMBL3728994
     RDKit          3D

  0  0  0  0  0  0  0  0  0  0999 V3000
M  V30 BEGIN CTAB
M  V30 COUNTS 55 58 0 0 0
M  V30 BEGIN ATOM
M  V30 1 C 2.667235 -5.717489 -0.095203 0
M  V30 2 C 4.062176 -5.448596 -0.612464 0
M  V30 3 C 4.891436 -4.668309 0.371829 0
M  V30 4 C 4.295048 -3.329077 0.698165 0
M  V30 5 C 4.145120 -2.451574 -0.490347 0
M  V30 6 O 4.407470 -2.581119 -1.730946 0
M  V30 7 N 3.571561 -1.194851 -0.077412 0
M  V30 8 C 3.156939 -0.693092 1.182290 0
M  V30 9 C 1.654717 -0.608971 1.318943 0
M  V30 10 C 1.039625 0.175313 0.221223 0
M  V30 11 C 1.893421 0.376274 -0.836347 0
M  V30 12 S 1.040973 1.329716 -1.977183 0
M  V30 13 C -0.516577 1.425883 -0.932810 0
M  V30 14 N -1.702468 2.072493 -1.234153 0
M  V30 15 C -2.685205 2.008484 -0.349514 0
M  V30 16 C -3.932353 2.677250 -0.642652 0
M  V30 17 C -4.120793 3.373431 -1.814811 0
M  V30 18 C -5.345180 3.978492 -2.006186 0
M  V30 19 N -6.330806 3.909197 -1.106013 0
M  V30 20 C -6.119125 3.224875 0.025530 0
M  V30 21 C -4.915555 2.574304 0.319392 0
M  V30 22 N -2.394924 1.318803 0.727329 0
M  V30 23 C -1.266501 0.686659 1.045687 0
M  V30 24 N -1.264338 -0.010998 2.284741 0
M  V30 25 C -2.420834 0.008399 3.159340 0
M  V30 26 C -3.648089 -0.625159 2.546440 0
M  V30 27 N -4.747080 -0.553273 3.506582 0
M  V30 28 C -0.195728 0.703455 0.186886 0
M  V30 29 C 3.304755 -0.130035 -1.019224 0
M  V30 30 H 2.685311 -5.783368 1.021034 0
M  V30 31 H 1.999912 -4.875341 -0.364900 0
M  V30 32 H 2.233603 -6.653349 -0.487964 0
M  V30 33 H 3.974903 -4.870732 -1.550530 0
M  V30 34 H 4.572639 -6.399778 -0.825995 0
M  V30 35 H 5.923119 -4.606139 -0.009175 0
M  V30 36 H 4.908686 -5.246579 1.317129 0
M  V30 37 H 3.317846 -3.521753 1.209899 0
M  V30 38 H 4.931709 -2.868035 1.490573 0
M  V30 39 H 3.540744 -1.327204 2.029659 0
M  V30 40 H 3.581144 0.310581 1.396633 0
M  V30 41 H 1.202638 -1.570657 1.523517 0
M  V30 42 H 1.525238 0.039030 2.249931 0
M  V30 43 H -3.332296 3.428276 -2.533724 0
M  V30 44 H -5.489822 4.523384 -2.926048 0
M  V30 45 H -6.962610 3.210136 0.711632 0
M  V30 46 H -4.862608 2.054539 1.263549 0
M  V30 47 H -0.575598 -0.597474 2.759561 0
M  V30 48 H -2.274191 -0.380486 4.157890 0
M  V30 49 H -2.686152 1.111992 3.230012 0
M  V30 50 H -4.002517 -0.153291 1.634161 0
M  V30 51 H -3.510483 -1.709194 2.346711 0
M  V30 52 H -5.254320 0.342317 3.331757 0
M  V30 53 H -5.402676 -1.335013 3.415396 0
M  V30 54 H 4.029489 0.702163 -0.922992 0
M  V30 55 H 3.346452 -0.595446 -2.029582 0
M  V30 END ATOM
M  V30 BEGIN BOND
M  V30 1 1 1 2
M  V30 2 1 2 3
M  V30 3 1 3 4
M  V30 4 1 4 5
M  V30 5 2 5 6
M  V30 6 1 5 7
M  V30 7 1 7 8
M  V30 8 1 8 9
M  V30 9 1 9 10
M  V30 10 2 10 11
M  V30 11 1 11 12
M  V30 12 1 12 13
M  V30 13 2 13 14
M  V30 14 1 14 15
M  V30 15 1 15 16
M  V30 16 2 16 17
M  V30 17 1 17 18
M  V30 18 2 18 19
M  V30 19 1 19 20
M  V30 20 2 20 21
M  V30 21 2 15 22
M  V30 22 1 22 23
M  V30 23 1 23 24
M  V30 24 1 24 25
M  V30 25 1 25 26
M  V30 26 1 26 27
M  V30 27 2 23 28
M  V30 28 1 11 29
M  V30 29 1 29 7
M  V30 30 1 28 10
M  V30 31 1 28 13
M  V30 32 1 21 16
M  V30 33 1 1 30
M  V30 34 1 1 31
M  V30 35 1 1 32
M  V30 36 1 2 33
M  V30 37 1 2 34
M  V30 38 1 3 35
M  V30 39 1 3 36
M  V30 40 1 4 37
M  V30 41 1 4 38
M  V30 42 1 8 39
M  V30 43 1 8 40
M  V30 44 1 9 41
M  V30 45 1 9 42
M  V30 46 1 17 43
M  V30 47 1 18 44
M  V30 48 1 20 45
M  V30 49 1 21 46
M  V30 50 1 24 47
M  V30 51 1 25 48
M  V30 52 1 25 49
M  V30 53 1 26 50
M  V30 54 1 26 51
M  V30 55 1 27 52
M  V30 56 1 27 53
M  V30 57 1 29 54
M  V30 58 1 29 55
M  V30 END BOND
M  V30 END CTAB
M  END
>  <Dataset>  (949) 
ChEMBL_Kinases

>  <Ligand_Instance>  (949) 
nan

>  <PDB_ID>  (949) 
nan

>  <Standardized_SMILES>  (949) 
CCCCC(=O)N1CCc2c(sc3nc(-c4ccncc4)nc(NCCN)c23)C1

>  <Name>  (949) 
nan

>  <Pocket>  (949) 
nan

>  <ATP_Site>  (949) 
nan

>  <Peripheral>  (949) 
nan

>  <Num_H_Atoms_ProtBoundConf>  (949) 
nan

>  <Num_Resolved_Atoms>  (949) 
nan

>  <Num_Not_Resolved_Atoms>  (949) 
nan

$$$$
CHEMBL3729107
     RDKit          3D

  0  0  0  0  0  0  0  0  0  0999 V3000
M  V30 BEGIN CTAB
M  V30 COUNTS 48 51 0 0 0
M  V30 BEGIN ATOM
M  V30 1 C 5.259308 -3.460668 1.713143 0
M  V30 2 N 3.861470 -3.844455 1.706038 0
M  V30 3 C 3.278726 -4.701490 2.736078 0
M  V30 4 C 3.102288 -3.323758 0.621621 0
M  V30 5 O 3.827545 -2.617620 -0.126062 0
M  V30 6 N 1.720308 -3.652235 0.539067 0
M  V30 7 C 0.726640 -3.286487 -0.412339 0
M  V30 8 C -0.003852 -2.145919 -0.198067 0
M  V30 9 C -0.962836 -1.798931 -1.122284 0
M  V30 10 C -1.716920 -0.568185 -0.845007 0
M  V30 11 N -1.476788 0.172857 0.252987 0
M  V30 12 C -2.196527 1.278756 0.445672 0
M  V30 13 N -2.080057 2.170472 1.535235 0
M  V30 14 C -1.056325 1.740819 2.457601 0 CFG=2
M  V30 15 C -0.939765 2.700189 3.618770 0
M  V30 16 C 0.274487 3.517109 3.347975 0
M  V30 17 N 0.936806 3.011137 2.191470 0
M  V30 18 C 0.278428 1.805528 1.764468 0
M  V30 19 C -3.160443 1.576934 -0.534859 0
M  V30 20 S -4.349845 2.999716 -0.640095 0
M  V30 21 C -5.109005 2.389415 -2.297201 0
M  V30 22 C -4.395345 1.248651 -2.534641 0
M  V30 23 C -3.423964 0.807144 -1.694310 0
M  V30 24 N -2.637157 -0.273893 -1.771038 0
M  V30 25 C -1.150160 -2.607671 -2.221353 0
M  V30 26 C -0.400263 -3.750066 -2.411506 0
M  V30 27 N 0.546827 -4.080130 -1.485550 0
M  V30 28 H 5.820844 -3.915972 0.873331 0
M  V30 29 H 5.276300 -2.352725 1.636504 0
M  V30 30 H 5.737537 -3.706135 2.687849 0
M  V30 31 H 2.336869 -4.206638 3.055162 0
M  V30 32 H 3.957016 -4.746638 3.590845 0
M  V30 33 H 3.075527 -5.726019 2.340589 0
M  V30 34 H 1.316349 -4.264656 1.280211 0
M  V30 35 H 0.187561 -1.561464 0.671414 0
M  V30 36 H -2.680406 3.016550 1.616224 0
M  V30 37 H -1.230997 0.729911 2.874627 0
M  V30 38 H -0.825199 2.171658 4.591084 0
M  V30 39 H -1.871254 3.284039 3.679617 0
M  V30 40 H -0.050088 4.569447 3.114465 0
M  V30 41 H 0.933224 3.593796 4.234649 0
M  V30 42 H 1.958732 2.912215 2.294897 0
M  V30 43 H 0.867757 0.904762 2.029326 0
M  V30 44 H 0.157566 1.857226 0.661529 0
M  V30 45 H -5.838422 2.914880 -2.725183 0
M  V30 46 H -4.670713 0.734892 -3.441925 0
M  V30 47 H -1.897004 -2.316165 -2.918847 0
M  V30 48 H -0.570758 -4.367399 -3.287454 0
M  V30 END ATOM
M  V30 BEGIN BOND
M  V30 1 1 1 2
M  V30 2 1 2 3
M  V30 3 1 2 4
M  V30 4 2 4 5
M  V30 5 1 4 6
M  V30 6 1 6 7
M  V30 7 2 7 8
M  V30 8 1 8 9
M  V30 9 1 9 10
M  V30 10 2 10 11
M  V30 11 1 11 12
M  V30 12 1 12 13
M  V30 13 1 13 14
M  V30 14 1 14 15
M  V30 15 1 15 16
M  V30 16 1 16 17
M  V30 17 1 17 18
M  V30 18 2 12 19
M  V30 19 1 19 20
M  V30 20 1 20 21
M  V30 21 2 21 22
M  V30 22 1 22 23
M  V30 23 2 23 24
M  V30 24 2 9 25
M  V30 25 1 25 26
M  V30 26 2 26 27
M  V30 27 1 27 7
M  V30 28 1 24 10
M  V30 29 1 18 14
M  V30 30 1 23 19
M  V30 31 1 1 28
M  V30 32 1 1 29
M  V30 33 1 1 30
M  V30 34 1 3 31
M  V30 35 1 3 32
M  V30 36 1 3 33
M  V30 37 1 6 34
M  V30 38 1 8 35
M  V30 39 1 13 36
M  V30 40 1 14 37 CFG=1
M  V30 41 1 15 38
M  V30 42 1 15 39
M  V30 43 1 16 40
M  V30 44 1 16 41
M  V30 45 1 17 42
M  V30 46 1 18 43
M  V30 47 1 18 44
M  V30 48 1 21 45
M  V30 49 1 22 46
M  V30 50 1 25 47
M  V30 51 1 26 48
M  V30 END BOND
M  V30 END CTAB
M  END
>  <Dataset>  (950) 
ChEMBL_Kinases

>  <Ligand_Instance>  (950) 
nan

>  <PDB_ID>  (950) 
nan

>  <Standardized_SMILES>  (950) 
CN(C)C(=O)Nc1cc(-c2nc(N[C@@H]3CCNC3)c3sccc3n2)ccn1

>  <Name>  (950) 
nan

>  <Pocket>  (950) 
nan

>  <ATP_Site>  (950) 
nan

>  <Peripheral>  (950) 
nan

>  <Num_H_Atoms_ProtBoundConf>  (950) 
nan

>  <Num_Resolved_Atoms>  (950) 
nan

>  <Num_Not_Resolved_Atoms>  (950) 
nan

$$$$
CHEMBL574159
     RDKit          3D

  0  0  0  0  0  0  0  0  0  0999 V3000
M  V30 BEGIN CTAB
M  V30 COUNTS 43 46 0 0 0
M  V30 BEGIN ATOM
M  V30 1 C 0.884725 -7.393748 1.280075 0
M  V30 2 C 0.913987 -5.976275 0.809026 0
M  V30 3 S 2.524957 -5.262185 1.102719 0 CHG=1 VAL=3
M  V30 4 O 2.766547 -5.351416 2.779947 0 CHG=-1 VAL=1
M  V30 5 C 2.552194 -3.599361 0.571445 0
M  V30 6 C 2.902352 -3.206413 -0.697517 0
M  V30 7 C 2.896512 -1.867951 -1.032920 0
M  V30 8 C 2.549774 -0.869159 -0.144296 0
M  V30 9 C 2.535578 0.551908 -0.473717 0
M  V30 10 C 3.511382 1.270702 -1.171125 0
M  V30 11 O 3.150025 2.528325 -1.274263 0
M  V30 12 C 1.992072 2.745862 -0.700566 0
M  V30 13 C 1.180201 3.851345 -0.524344 0
M  V30 14 C -0.030164 3.780701 0.146003 0
M  V30 15 C -0.411662 2.551575 0.643518 0
M  V30 16 C -1.682373 2.428978 1.358787 0
M  V30 17 C -2.192340 1.269639 1.909081 0
M  V30 18 C -3.406884 1.578272 2.491767 0
M  V30 19 C -3.573672 2.948705 2.256872 0
M  V30 20 C -4.806644 3.616054 2.764449 0
M  V30 21 O -2.526085 3.409598 1.581874 0
M  V30 22 C 0.390169 1.442063 0.473673 0
M  V30 23 C 1.587418 1.517237 -0.190663 0
M  V30 24 C 2.195952 -1.277507 1.140942 0
M  V30 25 C 2.201017 -2.630433 1.482761 0
M  V30 26 H -0.157365 -7.749492 1.423781 0
M  V30 27 H 1.338724 -8.035101 0.493450 0
M  V30 28 H 1.458054 -7.545813 2.215507 0
M  V30 29 H 0.151420 -5.375992 1.348981 0
M  V30 30 H 0.697515 -5.909958 -0.269408 0
M  V30 31 H 3.179084 -3.977831 -1.413544 0
M  V30 32 H 3.171921 -1.552178 -2.032753 0
M  V30 33 H 4.432619 0.818536 -1.561350 0
M  V30 34 H 1.507254 4.802922 -0.926640 0
M  V30 35 H -0.679510 4.634897 0.294063 0
M  V30 36 H -1.741855 0.263750 1.904331 0
M  V30 37 H -4.040251 0.873729 3.000853 0
M  V30 38 H -5.669050 2.992082 2.451303 0
M  V30 39 H -4.897000 4.574015 2.209371 0
M  V30 40 H -4.749352 3.762784 3.858060 0
M  V30 41 H 0.043768 0.505338 0.882861 0
M  V30 42 H 1.906749 -0.594192 1.921874 0
M  V30 43 H 1.917204 -2.923392 2.504521 0
M  V30 END ATOM
M  V30 BEGIN BOND
M  V30 1 1 1 2
M  V30 2 1 2 3
M  V30 3 1 3 4
M  V30 4 1 3 5
M  V30 5 2 5 6
M  V30 6 1 6 7
M  V30 7 2 7 8
M  V30 8 1 8 9
M  V30 9 2 9 10
M  V30 10 1 10 11
M  V30 11 1 11 12
M  V30 12 2 12 13
M  V30 13 1 13 14
M  V30 14 2 14 15
M  V30 15 1 15 16
M  V30 16 2 16 17
M  V30 17 1 17 18
M  V30 18 2 18 19
M  V30 19 1 19 20
M  V30 20 1 19 21
M  V30 21 1 15 22
M  V30 22 2 22 23
M  V30 23 1 8 24
M  V30 24 2 24 25
M  V30 25 1 25 5
M  V30 26 1 23 9
M  V30 27 1 23 12
M  V30 28 1 21 16
M  V30 29 1 1 26
M  V30 30 1 1 27
M  V30 31 1 1 28
M  V30 32 1 2 29
M  V30 33 1 2 30
M  V30 34 1 6 31
M  V30 35 1 7 32
M  V30 36 1 10 33
M  V30 37 1 13 34
M  V30 38 1 14 35
M  V30 39 1 17 36
M  V30 40 1 18 37
M  V30 41 1 20 38
M  V30 42 1 20 39
M  V30 43 1 20 40
M  V30 44 1 22 41
M  V30 45 1 24 42
M  V30 46 1 25 43
M  V30 END BOND
M  V30 END CTAB
M  END
>  <Dataset>  (951) 
ChEMBL_Kinases

>  <Ligand_Instance>  (951) 
nan

>  <PDB_ID>  (951) 
nan

>  <Standardized_SMILES>  (951) 
CC[S+]([O-])c1ccc(-c2coc3ccc(-c4ccc(C)o4)cc23)cc1

>  <Name>  (951) 
nan

>  <Pocket>  (951) 
nan

>  <ATP_Site>  (951) 
nan

>  <Peripheral>  (951) 
nan

>  <Num_H_Atoms_ProtBoundConf>  (951) 
nan

>  <Num_Resolved_Atoms>  (951) 
nan

>  <Num_Not_Resolved_Atoms>  (951) 
nan

$$$$
CHEMBL3729415
     RDKit          3D

  0  0  0  0  0  0  0  0  0  0999 V3000
M  V30 BEGIN CTAB
M  V30 COUNTS 47 51 0 0 0
M  V30 BEGIN ATOM
M  V30 1 C 1.857170 -5.647977 4.534989 0
M  V30 2 C 1.254324 -4.619066 3.666940 0
M  V30 3 C -0.045581 -4.511175 3.239748 0
M  V30 4 C -0.565118 -3.534071 2.429779 0
M  V30 5 C -2.008349 -3.601186 2.083633 0
M  V30 6 C 0.251711 -2.525175 1.961364 0
M  V30 7 C 1.543252 -2.669284 2.411058 0
M  V30 8 N 2.040512 -3.624501 3.199962 0
M  V30 9 S 2.405031 -1.188876 1.632727 0
M  V30 10 C 0.987946 -0.587060 0.835845 0
M  V30 11 C 0.885783 0.511758 0.058650 0
M  V30 12 N 1.960163 1.371685 -0.242801 0
M  V30 13 C 1.644353 2.549967 -1.066931 0
M  V30 14 C 1.992418 3.821027 -0.377968 0
M  V30 15 N 2.765622 3.704690 0.791285 0
M  V30 16 C 3.657731 2.622257 0.891455 0
M  V30 17 C 3.338452 1.412446 0.047093 0
M  V30 18 N -0.348124 0.793128 -0.466588 0
M  V30 19 C -1.361221 -0.045370 -0.168367 0
M  V30 20 C -2.699641 0.199530 -0.697093 0
M  V30 21 C -2.895036 1.300483 -1.500839 0
M  V30 22 C -4.122863 1.589525 -2.029781 0
M  V30 23 N -5.164536 0.776918 -1.757000 0
M  V30 24 C -5.003854 -0.307770 -0.973727 0
M  V30 25 C -3.765973 -0.599075 -0.440525 0
M  V30 26 N -1.203825 -1.120685 0.607625 0
M  V30 27 C -0.023160 -1.456953 1.156038 0
M  V30 28 H 2.750623 -6.145158 4.094271 0
M  V30 29 H 2.213583 -5.220625 5.499795 0
M  V30 30 H 1.074880 -6.393207 4.751626 0
M  V30 31 H -0.712778 -5.299055 3.597626 0
M  V30 32 H -2.334071 -4.641492 2.174553 0
M  V30 33 H -2.231643 -3.209560 1.068699 0
M  V30 34 H -2.527101 -2.956631 2.844646 0
M  V30 35 H 0.602503 2.509179 -1.436313 0
M  V30 36 H 2.275177 2.492522 -1.995109 0
M  V30 37 H 2.503004 4.549288 -1.062350 0
M  V30 38 H 1.022368 4.325104 -0.103923 0
M  V30 39 H 2.314490 4.012167 1.674203 0
M  V30 40 H 3.711962 2.333142 1.982803 0
M  V30 41 H 4.688867 2.955862 0.653176 0
M  V30 42 H 3.909578 1.554800 -0.920789 0
M  V30 43 H 3.798749 0.513681 0.485834 0
M  V30 44 H -2.076225 1.964240 -1.732312 0
M  V30 45 H -4.238347 2.467185 -2.659624 0
M  V30 46 H -5.888070 -0.916107 -0.797723 0
M  V30 47 H -3.644650 -1.454793 0.175934 0
M  V30 END ATOM
M  V30 BEGIN BOND
M  V30 1 1 1 2
M  V30 2 2 2 3
M  V30 3 1 3 4
M  V30 4 1 4 5
M  V30 5 2 4 6
M  V30 6 1 6 7
M  V30 7 2 7 8
M  V30 8 1 7 9
M  V30 9 1 9 10
M  V30 10 2 10 11
M  V30 11 1 11 12
M  V30 12 1 12 13
M  V30 13 1 13 14
M  V30 14 1 14 15
M  V30 15 1 15 16
M  V30 16 1 16 17
M  V30 17 1 11 18
M  V30 18 2 18 19
M  V30 19 1 19 20
M  V30 20 2 20 21
M  V30 21 1 21 22
M  V30 22 2 22 23
M  V30 23 1 23 24
M  V30 24 2 24 25
M  V30 25 1 19 26
M  V30 26 2 26 27
M  V30 27 1 8 2
M  V30 28 1 27 10
M  V30 29 1 27 6
M  V30 30 1 17 12
M  V30 31 1 25 20
M  V30 32 1 1 28
M  V30 33 1 1 29
M  V30 34 1 1 30
M  V30 35 1 3 31
M  V30 36 1 5 32
M  V30 37 1 5 33
M  V30 38 1 5 34
M  V30 39 1 13 35
M  V30 40 1 13 36
M  V30 41 1 14 37
M  V30 42 1 14 38
M  V30 43 1 15 39
M  V30 44 1 16 40
M  V30 45 1 16 41
M  V30 46 1 17 42
M  V30 47 1 17 43
M  V30 48 1 21 44
M  V30 49 1 22 45
M  V30 50 1 24 46
M  V30 51 1 25 47
M  V30 END BOND
M  V30 END CTAB
M  END
>  <Dataset>  (952) 
ChEMBL_Kinases

>  <Ligand_Instance>  (952) 
nan

>  <PDB_ID>  (952) 
nan

>  <Standardized_SMILES>  (952) 
Cc1cc(C)c2c(n1)sc1c(N3CCNCC3)nc(-c3ccncc3)nc12

>  <Name>  (952) 
nan

>  <Pocket>  (952) 
nan

>  <ATP_Site>  (952) 
nan

>  <Peripheral>  (952) 
nan

>  <Num_H_Atoms_ProtBoundConf>  (952) 
nan

>  <Num_Resolved_Atoms>  (952) 
nan

>  <Num_Not_Resolved_Atoms>  (952) 
nan

$$$$
CHEMBL3729412
     RDKit          3D

  0  0  0  0  0  0  0  0  0  0999 V3000
M  V30 BEGIN CTAB
M  V30 COUNTS 40 41 0 0 0
M  V30 BEGIN ATOM
M  V30 1 C 0.417979 -5.671190 1.382234 0
M  V30 2 C 0.918032 -4.601686 2.279107 0
M  V30 3 O 1.674171 -3.597108 1.735757 0
M  V30 4 C 1.424939 -2.672916 0.775733 0
M  V30 5 C 0.236828 -2.540284 0.081920 0
M  V30 6 C 0.026296 -1.585383 -0.888209 0
M  V30 7 C 1.075526 -0.706128 -1.181626 0
M  V30 8 C 2.274731 -0.816521 -0.503039 0
M  V30 9 N 3.351512 0.082946 -0.778216 0
M  V30 10 C 3.069111 1.090373 -1.749269 0
M  V30 11 C 2.064645 2.069743 -1.274605 0
M  V30 12 O 1.714180 2.974884 -2.071142 0
M  V30 13 N 1.542910 1.952883 0.041186 0
M  V30 14 N 0.582758 2.722706 0.735658 0
M  V30 15 C -0.529644 2.130380 1.043374 0
M  V30 16 C -1.863705 2.193134 1.670262 0
M  V30 17 C -1.795160 1.941713 3.022016 0
M  V30 18 Cl -0.344062 1.589089 3.922531 0
M  V30 19 C -2.979791 1.965941 3.765422 0
M  V30 20 N -4.108864 2.233282 3.109150 0
M  V30 21 C -4.157026 2.474916 1.794323 0
M  V30 22 C -3.025341 2.468222 0.994252 0
M  V30 23 Cl -2.936831 2.761716 -0.714786 0
M  V30 24 C 2.450072 -1.778420 0.456575 0
M  V30 25 H -0.660063 -5.480977 1.118303 0
M  V30 26 H 0.355082 -6.615691 1.997409 0
M  V30 27 H 1.036225 -5.913041 0.510533 0
M  V30 28 H 1.502065 -5.041682 3.133648 0
M  V30 29 H 0.039494 -4.122185 2.799772 0
M  V30 30 H -0.575967 -3.225993 0.314814 0
M  V30 31 H -0.922787 -1.506456 -1.417903 0
M  V30 32 H 0.889259 0.028704 -1.941365 0
M  V30 33 H 4.266916 -0.009598 -0.292134 0
M  V30 34 H 3.991532 1.686883 -1.965281 0
M  V30 35 H 2.700950 0.709444 -2.720929 0
M  V30 36 H 1.833025 1.229944 0.748901 0
M  V30 37 H -0.607129 1.082951 0.724090 0
M  V30 38 H -3.042385 1.782992 4.830002 0
M  V30 39 H -5.087779 2.694528 1.252073 0
M  V30 40 H 3.401775 -1.830562 0.965289 0
M  V30 END ATOM
M  V30 BEGIN BOND
M  V30 1 1 1 2
M  V30 2 1 2 3
M  V30 3 1 3 4
M  V30 4 2 4 5
M  V30 5 1 5 6
M  V30 6 2 6 7
M  V30 7 1 7 8
M  V30 8 1 8 9
M  V30 9 1 9 10
M  V30 10 1 10 11
M  V30 11 2 11 12
M  V30 12 1 11 13
M  V30 13 1 13 14
M  V30 14 2 14 15
M  V30 15 1 15 16
M  V30 16 2 16 17
M  V30 17 1 17 18
M  V30 18 1 17 19
M  V30 19 2 19 20
M  V30 20 1 20 21
M  V30 21 2 21 22
M  V30 22 1 22 23
M  V30 23 2 8 24
M  V30 24 1 24 4
M  V30 25 1 22 16
M  V30 26 1 1 25
M  V30 27 1 1 26
M  V30 28 1 1 27
M  V30 29 1 2 28
M  V30 30 1 2 29
M  V30 31 1 5 30
M  V30 32 1 6 31
M  V30 33 1 7 32
M  V30 34 1 9 33
M  V30 35 1 10 34
M  V30 36 1 10 35
M  V30 37 1 13 36
M  V30 38 1 15 37
M  V30 39 1 19 38
M  V30 40 1 21 39
M  V30 41 1 24 40
M  V30 END BOND
M  V30 END CTAB
M  END
>  <Dataset>  (953) 
ChEMBL_Kinases

>  <Ligand_Instance>  (953) 
nan

>  <PDB_ID>  (953) 
nan

>  <Standardized_SMILES>  (953) 
CCOc1cccc(NCC(=O)N/N=C/c2c(Cl)cncc2Cl)c1

>  <Name>  (953) 
nan

>  <Pocket>  (953) 
nan

>  <ATP_Site>  (953) 
nan

>  <Peripheral>  (953) 
nan

>  <Num_H_Atoms_ProtBoundConf>  (953) 
nan

>  <Num_Resolved_Atoms>  (953) 
nan

>  <Num_Not_Resolved_Atoms>  (953) 
nan

$$$$
CHEMBL3729396
     RDKit          3D

  0  0  0  0  0  0  0  0  0  0999 V3000
M  V30 BEGIN CTAB
M  V30 COUNTS 36 39 0 0 0
M  V30 BEGIN ATOM
M  V30 1 N 1.152655 -3.292949 4.507220 0
M  V30 2 C 0.470569 -2.875678 3.304999 0 CFG=2
M  V30 3 C 0.299516 -4.041798 2.336449 0
M  V30 4 C 0.586028 -3.438497 0.976302 0
M  V30 5 N 0.599053 -1.998548 1.164620 0
M  V30 6 C 0.122444 -0.903888 0.413403 0
M  V30 7 N 0.908390 0.079463 -0.055590 0
M  V30 8 C 0.262015 1.054316 -0.762170 0
M  V30 9 C 1.021331 2.191595 -1.329921 0
M  V30 10 C 2.381346 2.211526 -1.111532 0
M  V30 11 C 3.193160 3.205861 -1.582818 0
M  V30 12 N 2.626997 4.214644 -2.296592 0
M  V30 13 C 1.309750 4.202921 -2.512758 0
M  V30 14 C 0.445946 3.213624 -2.053372 0
M  V30 15 N -1.058193 1.080804 -1.002180 0
M  V30 16 C -1.890427 0.122068 -0.556109 0
M  V30 17 C -3.240177 0.038873 -0.733963 0
M  V30 18 C -3.895149 -1.022218 -0.195165 0
M  V30 19 S -2.525237 -2.029791 0.654106 0
M  V30 20 C -1.238303 -0.867066 0.160194 0
M  V30 21 C 1.294468 -1.940513 2.449700 0
M  V30 22 H 0.877009 -4.275894 4.764785 0
M  V30 23 H 0.902879 -2.703453 5.324709 0
M  V30 24 H -0.506216 -2.409046 3.551415 0
M  V30 25 H 1.088457 -4.789883 2.631656 0
M  V30 26 H -0.669681 -4.537807 2.416071 0
M  V30 27 H -0.186607 -3.764637 0.243332 0
M  V30 28 H 1.610824 -3.733775 0.688496 0
M  V30 29 H 2.865884 1.430787 -0.551246 0
M  V30 30 H 4.253823 3.197153 -1.397644 0
M  V30 31 H 0.862135 5.001017 -3.077416 0
M  V30 32 H -0.603931 3.192329 -2.218329 0
M  V30 33 H -3.846122 0.749764 -1.272028 0
M  V30 34 H -4.935421 -1.313637 -0.193022 0
M  V30 35 H 1.405698 -0.932839 2.846530 0
M  V30 36 H 2.268754 -2.441698 2.262850 0
M  V30 END ATOM
M  V30 BEGIN BOND
M  V30 1 1 1 2
M  V30 2 1 2 3
M  V30 3 1 3 4
M  V30 4 1 4 5
M  V30 5 1 5 6
M  V30 6 2 6 7
M  V30 7 1 7 8
M  V30 8 1 8 9
M  V30 9 2 9 10
M  V30 10 1 10 11
M  V30 11 2 11 12
M  V30 12 1 12 13
M  V30 13 2 13 14
M  V30 14 2 8 15
M  V30 15 1 15 16
M  V30 16 1 16 17
M  V30 17 2 17 18
M  V30 18 1 18 19
M  V30 19 1 19 20
M  V30 20 1 5 21
M  V30 21 1 21 2
M  V30 22 1 20 6
M  V30 23 1 14 9
M  V30 24 2 20 16
M  V30 25 1 1 22
M  V30 26 1 1 23
M  V30 27 1 2 24 CFG=1
M  V30 28 1 3 25
M  V30 29 1 3 26
M  V30 30 1 4 27
M  V30 31 1 4 28
M  V30 32 1 10 29
M  V30 33 1 11 30
M  V30 34 1 13 31
M  V30 35 1 14 32
M  V30 36 1 17 33
M  V30 37 1 18 34
M  V30 38 1 21 35
M  V30 39 1 21 36
M  V30 END BOND
M  V30 END CTAB
M  END
>  <Dataset>  (954) 
ChEMBL_Kinases

>  <Ligand_Instance>  (954) 
nan

>  <PDB_ID>  (954) 
nan

>  <Standardized_SMILES>  (954) 
N[C@@H]1CCN(c2nc(-c3ccncc3)nc3ccsc23)C1

>  <Name>  (954) 
nan

>  <Pocket>  (954) 
nan

>  <ATP_Site>  (954) 
nan

>  <Peripheral>  (954) 
nan

>  <Num_H_Atoms_ProtBoundConf>  (954) 
nan

>  <Num_Resolved_Atoms>  (954) 
nan

>  <Num_Not_Resolved_Atoms>  (954) 
nan

$$$$
CHEMBL3729375
     RDKit          3D

  0  0  0  0  0  0  0  0  0  0999 V3000
M  V30 BEGIN CTAB
M  V30 COUNTS 54 57 0 0 0
M  V30 BEGIN ATOM
M  V30 1 C 6.859135 -4.440272 4.903119 0
M  V30 2 O 6.585493 -4.370240 3.494794 0
M  V30 3 C 5.387505 -3.842880 3.025346 0
M  V30 4 O 4.609926 -3.453069 3.945846 0
M  V30 5 N 5.119289 -3.774990 1.624051 0
M  V30 6 C 3.837889 -3.200471 1.360362 0
M  V30 7 C 3.762122 -1.830709 1.188380 0
M  V30 8 C 2.521919 -1.279712 0.933964 0
M  V30 9 C 1.333091 -2.015711 0.838079 0
M  V30 10 C 0.021814 -1.375042 0.558970 0 CFG=1
M  V30 11 C -0.294914 -1.347733 -0.922385 0
M  V30 12 N -1.723651 -1.067496 -0.969440 0
M  V30 13 C -2.298486 0.178198 -1.350523 0
M  V30 14 N -2.550228 1.140203 -0.430668 0
M  V30 15 C -3.092699 2.327756 -0.757420 0
M  V30 16 C -3.312599 3.267942 0.312782 0
M  V30 17 C -2.958462 2.893864 1.592033 0
M  V30 18 C -3.144526 3.753461 2.669973 0
M  V30 19 N -3.672110 4.976489 2.521008 0
M  V30 20 C -4.041392 5.400949 1.277713 0
M  V30 21 C -3.843974 4.529665 0.241654 0
M  V30 22 F -4.221618 4.988058 -0.967890 0
M  V30 23 C -3.357664 2.456231 -2.094920 0
M  V30 24 C -3.111101 1.494579 -3.046470 0
M  V30 25 O -3.391379 1.710095 -4.253204 0
M  V30 26 N -2.564822 0.320507 -2.660479 0
M  V30 27 C -2.277145 -0.737197 -3.609433 0
M  V30 28 C -2.424456 -2.274909 -0.564333 0
M  V30 29 C -1.943186 -2.622315 0.820291 0
M  V30 30 O -1.005461 -1.792097 1.355973 0
M  V30 31 C 1.505251 -3.372516 1.023430 0
M  V30 32 C 2.701160 -4.009692 1.281143 0
M  V30 33 H 6.169904 -5.114042 5.423259 0
M  V30 34 H 7.915953 -4.607289 5.100867 0
M  V30 35 H 6.633348 -3.404022 5.280002 0
M  V30 36 H 5.842207 -4.130141 0.961808 0
M  V30 37 H 4.641086 -1.200281 1.249501 0
M  V30 38 H 2.473007 -0.204455 0.800219 0
M  V30 39 H 0.186917 -0.284131 0.814655 0
M  V30 40 H 0.183109 -0.481122 -1.441935 0
M  V30 41 H -0.026047 -2.292317 -1.441725 0
M  V30 42 H -2.521670 1.924680 1.830773 0
M  V30 43 H -2.858926 3.435810 3.661907 0
M  V30 44 H -4.467791 6.383019 1.141637 0
M  V30 45 H -3.793603 3.381998 -2.431111 0
M  V30 46 H -2.721130 -1.716019 -3.322333 0
M  V30 47 H -1.200017 -0.801478 -3.854602 0
M  V30 48 H -2.780361 -0.460747 -4.559191 0
M  V30 49 H -3.523585 -2.158856 -0.646387 0
M  V30 50 H -2.123413 -3.095076 -1.275352 0
M  V30 51 H -1.714221 -3.718354 0.913064 0
M  V30 52 H -2.860582 -2.512792 1.476362 0
M  V30 53 H 0.656199 -4.022219 0.969394 0
M  V30 54 H 2.765855 -5.076563 1.416140 0
M  V30 END ATOM
M  V30 BEGIN BOND
M  V30 1 1 1 2
M  V30 2 1 2 3
M  V30 3 2 3 4
M  V30 4 1 3 5
M  V30 5 1 5 6
M  V30 6 2 6 7
M  V30 7 1 7 8
M  V30 8 2 8 9
M  V30 9 1 9 10
M  V30 10 1 10 11
M  V30 11 1 11 12
M  V30 12 1 12 13
M  V30 13 2 13 14
M  V30 14 1 14 15
M  V30 15 1 15 16
M  V30 16 2 16 17
M  V30 17 1 17 18
M  V30 18 2 18 19
M  V30 19 1 19 20
M  V30 20 2 20 21
M  V30 21 1 21 22
M  V30 22 2 15 23
M  V30 23 1 23 24
M  V30 24 2 24 25
M  V30 25 1 24 26
M  V30 26 1 26 27
M  V30 27 1 12 28
M  V30 28 1 28 29
M  V30 29 1 29 30
M  V30 30 1 9 31
M  V30 31 2 31 32
M  V30 32 1 32 6
M  V30 33 1 30 10
M  V30 34 1 26 13
M  V30 35 1 21 16
M  V30 36 1 1 33
M  V30 37 1 1 34
M  V30 38 1 1 35
M  V30 39 1 5 36
M  V30 40 1 7 37
M  V30 41 1 8 38
M  V30 42 1 10 39 CFG=1
M  V30 43 1 11 40
M  V30 44 1 11 41
M  V30 45 1 17 42
M  V30 46 1 18 43
M  V30 47 1 20 44
M  V30 48 1 23 45
M  V30 49 1 27 46
M  V30 50 1 27 47
M  V30 51 1 27 48
M  V30 52 1 28 49
M  V30 53 1 28 50
M  V30 54 1 29 51
M  V30 55 1 29 52
M  V30 56 1 31 53
M  V30 57 1 32 54
M  V30 END BOND
M  V30 END CTAB
M  END
>  <Dataset>  (955) 
ChEMBL_Kinases

>  <Ligand_Instance>  (955) 
nan

>  <PDB_ID>  (955) 
nan

>  <Standardized_SMILES>  (955) 
COC(=O)Nc1ccc([C@H]2CN(c3nc(-c4ccncc4F)cc(=O)n3C)CCO2)cc1

>  <Name>  (955) 
nan

>  <Pocket>  (955) 
nan

>  <ATP_Site>  (955) 
nan

>  <Peripheral>  (955) 
nan

>  <Num_H_Atoms_ProtBoundConf>  (955) 
nan

>  <Num_Resolved_Atoms>  (955) 
nan

>  <Num_Not_Resolved_Atoms>  (955) 
nan

$$$$
CHEMBL3729368
     RDKit          3D

  0  0  0  0  0  0  0  0  0  0999 V3000
M  V30 BEGIN CTAB
M  V30 COUNTS 47 51 0 0 0
M  V30 BEGIN ATOM
M  V30 1 O 0.772028 -1.798397 5.098410 0
M  V30 2 C -0.352842 -2.271831 4.792273 0
M  V30 3 N -0.620615 -2.955738 3.585442 0
M  V30 4 C 0.283012 -3.235452 2.521058 0
M  V30 5 C 0.383741 -2.299432 1.513828 0
M  V30 6 C 1.246363 -2.538176 0.471816 0
M  V30 7 C 1.300166 -1.487580 -0.572040 0
M  V30 8 N 0.534527 -0.357937 -0.490338 0
M  V30 9 C 0.656036 0.530870 -1.484553 0
M  V30 10 N -0.065303 1.737520 -1.538394 0
M  V30 11 C -0.949494 1.916937 -0.410317 0 CFG=2
M  V30 12 C -1.649757 3.257262 -0.618315 0
M  V30 13 C -0.599745 4.234096 -0.188219 0
M  V30 14 N 0.235432 3.588024 0.776297 0
M  V30 15 C -0.176870 2.201489 0.854478 0
M  V30 16 C 1.533181 0.222370 -2.483679 0
M  V30 17 S 1.943284 1.244229 -4.022078 0
M  V30 18 C 3.180261 -0.049350 -4.642340 0
M  V30 19 C 3.150208 -1.037861 -3.690272 0
M  V30 20 C 2.346436 -0.934660 -2.609842 0
M  V30 21 N 2.153876 -1.757473 -1.572367 0
M  V30 22 C 1.989638 -3.697604 0.450161 0
M  V30 23 C 1.875524 -4.622472 1.466715 0
M  V30 24 N 1.014895 -4.364121 2.487803 0
M  V30 25 C -1.526193 -2.148769 5.697604 0
M  V30 26 C -2.652223 -3.116504 5.609576 0
M  V30 27 C -2.837638 -1.773863 4.967611 0
M  V30 28 H -1.543906 -3.356175 3.310655 0
M  V30 29 H -0.213895 -1.391224 1.553319 0
M  V30 30 H 0.055612 2.405725 -2.329117 0
M  V30 31 H -1.672429 1.094845 -0.266219 0
M  V30 32 H -1.927674 3.348287 -1.698324 0
M  V30 33 H -2.518456 3.357484 0.056253 0
M  V30 34 H -1.073007 5.116589 0.289950 0
M  V30 35 H -0.043257 4.649412 -1.063479 0
M  V30 36 H 1.243506 3.675544 0.478620 0
M  V30 37 H 0.706826 1.551752 0.919462 0
M  V30 38 H -0.806430 2.017984 1.748313 0
M  V30 39 H 3.681097 0.102293 -5.513965 0
M  V30 40 H 3.799143 -1.878561 -3.866788 0
M  V30 41 H 2.654337 -3.845967 -0.385476 0
M  V30 42 H 2.472912 -5.526757 1.423974 0
M  V30 43 H -1.387458 -1.621471 6.666194 0
M  V30 44 H -3.215900 -3.341551 6.537921 0
M  V30 45 H -2.486492 -4.023903 4.992957 0
M  V30 46 H -3.504099 -1.037035 5.438196 0
M  V30 47 H -2.798268 -1.727115 3.858830 0
M  V30 END ATOM
M  V30 BEGIN BOND
M  V30 1 2 1 2
M  V30 2 1 2 3
M  V30 3 1 3 4
M  V30 4 2 4 5
M  V30 5 1 5 6
M  V30 6 1 6 7
M  V30 7 2 7 8
M  V30 8 1 8 9
M  V30 9 1 9 10
M  V30 10 1 10 11
M  V30 11 1 11 12
M  V30 12 1 12 13
M  V30 13 1 13 14
M  V30 14 1 14 15
M  V30 15 2 9 16
M  V30 16 1 16 17
M  V30 17 1 17 18
M  V30 18 2 18 19
M  V30 19 1 19 20
M  V30 20 2 20 21
M  V30 21 2 6 22
M  V30 22 1 22 23
M  V30 23 2 23 24
M  V30 24 1 2 25
M  V30 25 1 25 26
M  V30 26 1 26 27
M  V30 27 1 24 4
M  V30 28 1 27 25
M  V30 29 1 21 7
M  V30 30 1 15 11
M  V30 31 1 20 16
M  V30 32 1 3 28
M  V30 33 1 5 29
M  V30 34 1 10 30
M  V30 35 1 11 31 CFG=1
M  V30 36 1 12 32
M  V30 37 1 12 33
M  V30 38 1 13 34
M  V30 39 1 13 35
M  V30 40 1 14 36
M  V30 41 1 15 37
M  V30 42 1 15 38
M  V30 43 1 18 39
M  V30 44 1 19 40
M  V30 45 1 22 41
M  V30 46 1 23 42
M  V30 47 1 25 43
M  V30 48 1 26 44
M  V30 49 1 26 45
M  V30 50 1 27 46
M  V30 51 1 27 47
M  V30 END BOND
M  V30 END CTAB
M  END
>  <Dataset>  (956) 
ChEMBL_Kinases

>  <Ligand_Instance>  (956) 
nan

>  <PDB_ID>  (956) 
nan

>  <Standardized_SMILES>  (956) 
O=C(Nc1cc(-c2nc(N[C@@H]3CCNC3)c3sccc3n2)ccn1)C1CC1

>  <Name>  (956) 
nan

>  <Pocket>  (956) 
nan

>  <ATP_Site>  (956) 
nan

>  <Peripheral>  (956) 
nan

>  <Num_H_Atoms_ProtBoundConf>  (956) 
nan

>  <Num_Resolved_Atoms>  (956) 
nan

>  <Num_Not_Resolved_Atoms>  (956) 
nan

$$$$
CHEMBL3729359
     RDKit          3D

  0  0  0  0  0  0  0  0  0  0999 V3000
M  V30 BEGIN CTAB
M  V30 COUNTS 47 49 0 0 0
M  V30 BEGIN ATOM
M  V30 1 C -0.204040 -5.293202 4.284354 0
M  V30 2 C 0.985182 -4.520086 3.868657 0
M  V30 3 C 1.611434 -4.824635 2.688426 0
M  V30 4 C 2.724758 -4.129367 2.260843 0
M  V30 5 C 3.205648 -3.107571 3.050762 0
M  V30 6 O 4.327982 -2.464365 2.541848 0
M  V30 7 C 4.234869 -1.360410 1.704030 0
M  V30 8 C 5.374131 -0.750821 1.221366 0
M  V30 9 C 5.245997 0.343364 0.392109 0
M  V30 10 C 3.986025 0.784159 0.078474 0
M  V30 11 C 2.804460 0.226983 0.521947 0
M  V30 12 N 1.519671 0.708788 0.178691 0
M  V30 13 C 1.557355 1.862360 -0.693449 0
M  V30 14 C 0.231884 2.380611 -1.076155 0
M  V30 15 O 0.178673 3.397623 -1.849034 0
M  V30 16 N -1.029602 1.882009 -0.685738 0
M  V30 17 N -2.328104 1.483120 -0.370699 0
M  V30 18 C -3.267028 2.015194 -1.119057 0
M  V30 19 C -4.695651 2.037770 -1.321404 0
M  V30 20 C -5.512655 2.956252 -0.662571 0
M  V30 21 Cl -4.830305 4.122742 0.438599 0
M  V30 22 C -6.868013 2.888527 -0.928430 0
M  V30 23 N -7.343252 1.975342 -1.781048 0
M  V30 24 C -6.602994 1.070498 -2.439969 0
M  V30 25 C -5.259292 1.125849 -2.186468 0
M  V30 26 Cl -4.206481 -0.029946 -3.012112 0
M  V30 27 C 2.991875 -0.872970 1.354800 0
M  V30 28 C 2.584562 -2.779772 4.255904 0
M  V30 29 C 1.471883 -3.495730 4.654780 0
M  V30 30 H -0.681717 -4.800887 5.163084 0
M  V30 31 H -0.958714 -5.281425 3.445986 0
M  V30 32 H 0.013039 -6.340966 4.517786 0
M  V30 33 H 1.207000 -5.634305 2.091985 0
M  V30 34 H 3.169810 -4.416962 1.324753 0
M  V30 35 H 6.346330 -1.110274 1.478636 0
M  V30 36 H 6.140780 0.827207 0.009293 0
M  V30 37 H 3.951041 1.642929 -0.574052 0
M  V30 38 H 0.707732 0.199158 0.577012 0
M  V30 39 H 2.213791 2.661142 -0.280122 0
M  V30 40 H 2.069722 1.527976 -1.625891 0
M  V30 41 H -1.025806 1.052141 -0.055528 0
M  V30 42 H -3.005889 2.719000 -1.922921 0
M  V30 43 H -7.551371 3.588677 -0.435283 0
M  V30 44 H -7.048104 0.341868 -3.130053 0
M  V30 45 H 2.115637 -1.375090 1.751492 0
M  V30 46 H 3.031283 -1.952450 4.823914 0
M  V30 47 H 1.006550 -3.224323 5.592049 0
M  V30 END ATOM
M  V30 BEGIN BOND
M  V30 1 1 1 2
M  V30 2 2 2 3
M  V30 3 1 3 4
M  V30 4 2 4 5
M  V30 5 1 5 6
M  V30 6 1 6 7
M  V30 7 2 7 8
M  V30 8 1 8 9
M  V30 9 2 9 10
M  V30 10 1 10 11
M  V30 11 1 11 12
M  V30 12 1 12 13
M  V30 13 1 13 14
M  V30 14 2 14 15
M  V30 15 1 14 16
M  V30 16 1 16 17
M  V30 17 2 17 18
M  V30 18 1 18 19
M  V30 19 2 19 20
M  V30 20 1 20 21
M  V30 21 1 20 22
M  V30 22 2 22 23
M  V30 23 1 23 24
M  V30 24 2 24 25
M  V30 25 1 25 26
M  V30 26 2 11 27
M  V30 27 1 5 28
M  V30 28 2 28 29
M  V30 29 1 29 2
M  V30 30 1 27 7
M  V30 31 1 25 19
M  V30 32 1 1 30
M  V30 33 1 1 31
M  V30 34 1 1 32
M  V30 35 1 3 33
M  V30 36 1 4 34
M  V30 37 1 8 35
M  V30 38 1 9 36
M  V30 39 1 10 37
M  V30 40 1 12 38
M  V30 41 1 13 39
M  V30 42 1 13 40
M  V30 43 1 16 41
M  V30 44 1 18 42
M  V30 45 1 22 43
M  V30 46 1 24 44
M  V30 47 1 27 45
M  V30 48 1 28 46
M  V30 49 1 29 47
M  V30 END BOND
M  V30 END CTAB
M  END
>  <Dataset>  (957) 
ChEMBL_Kinases

>  <Ligand_Instance>  (957) 
nan

>  <PDB_ID>  (957) 
nan

>  <Standardized_SMILES>  (957) 
Cc1ccc(Oc2cccc(NCC(=O)N/N=C/c3c(Cl)cncc3Cl)c2)cc1

>  <Name>  (957) 
nan

>  <Pocket>  (957) 
nan

>  <ATP_Site>  (957) 
nan

>  <Peripheral>  (957) 
nan

>  <Num_H_Atoms_ProtBoundConf>  (957) 
nan

>  <Num_Resolved_Atoms>  (957) 
nan

>  <Num_Not_Resolved_Atoms>  (957) 
nan

$$$$
CHEMBL3729348
     RDKit          3D

  0  0  0  0  0  0  0  0  0  0999 V3000
M  V30 BEGIN CTAB
M  V30 COUNTS 48 52 0 0 0
M  V30 BEGIN ATOM
M  V30 1 N 1.451653 -7.628507 3.440725 0
M  V30 2 C 1.486656 -6.809973 2.614461 0
M  V30 3 C 1.537763 -5.807326 1.590701 0
M  V30 4 C 1.949804 -4.534914 1.941796 0
M  V30 5 C 1.978844 -3.590065 0.917503 0
M  V30 6 C 1.596858 -4.010353 -0.338921 0
M  V30 7 N 1.642628 -2.985282 -1.330585 0
M  V30 8 C 0.461136 -2.271080 -1.648032 0
M  V30 9 C 0.023251 -1.150574 -0.979845 0
M  V30 10 C -1.113380 -0.478794 -1.307276 0
M  V30 11 C -1.485831 0.716951 -0.519543 0
M  V30 12 N -0.695635 1.084526 0.535141 0
M  V30 13 C -1.099857 2.180265 1.191355 0
M  V30 14 N -0.435181 2.719252 2.319040 0
M  V30 15 C 0.728912 2.118144 2.878965 0 CFG=2
M  V30 16 C 1.881560 1.953958 1.908918 0
M  V30 17 C 2.767643 1.017228 2.733869 0
M  V30 18 N 1.842443 0.071557 3.301246 0
M  V30 19 C 0.528899 0.674116 3.327757 0
M  V30 20 C -2.249618 2.860727 0.788551 0
M  V30 21 S -3.000414 4.294140 1.448701 0
M  V30 22 C -4.398712 4.280243 0.176207 0
M  V30 23 C -4.134281 3.151925 -0.637698 0
M  V30 24 C -3.033443 2.474743 -0.277367 0
M  V30 25 N -2.573492 1.369235 -0.892146 0
M  V30 26 C -1.895247 -0.929427 -2.374174 0
M  V30 27 C -1.440958 -2.065975 -3.044311 0
M  V30 28 N -0.309120 -2.700789 -2.686470 0
M  V30 29 N 1.199378 -5.255075 -0.657798 0
M  V30 30 C 1.157800 -6.208628 0.320015 0
M  V30 31 H 2.230359 -4.312427 2.967906 0
M  V30 32 H 2.292312 -2.584434 1.140182 0
M  V30 33 H 2.413281 -2.627360 -1.908874 0
M  V30 34 H 0.677917 -0.855999 -0.162807 0
M  V30 35 H -0.759425 3.586164 2.804971 0
M  V30 36 H 1.130084 2.718563 3.738860 0
M  V30 37 H 1.604232 1.377277 1.012556 0
M  V30 38 H 2.382163 2.911168 1.678659 0
M  V30 39 H 3.546630 0.540561 2.132578 0
M  V30 40 H 3.203320 1.616807 3.566057 0
M  V30 41 H 1.883504 -0.807748 2.747880 0
M  V30 42 H 0.052325 0.601417 4.323938 0
M  V30 43 H -0.083012 0.162845 2.592369 0
M  V30 44 H -5.374132 4.988033 -0.041831 0
M  V30 45 H -4.822771 2.953064 -1.441035 0
M  V30 46 H -2.788488 -0.378853 -2.611097 0
M  V30 47 H -2.057749 -2.400297 -3.867072 0
M  V30 48 H 0.843418 -7.196244 0.080700 0
M  V30 END ATOM
M  V30 BEGIN BOND
M  V30 1 3 1 2
M  V30 2 1 2 3
M  V30 3 2 3 4
M  V30 4 1 4 5
M  V30 5 2 5 6
M  V30 6 1 6 7
M  V30 7 1 7 8
M  V30 8 2 8 9
M  V30 9 1 9 10
M  V30 10 1 10 11
M  V30 11 2 11 12
M  V30 12 1 12 13
M  V30 13 1 13 14
M  V30 14 1 14 15
M  V30 15 1 15 16
M  V30 16 1 16 17
M  V30 17 1 17 18
M  V30 18 1 18 19
M  V30 19 2 13 20
M  V30 20 1 20 21
M  V30 21 1 21 22
M  V30 22 2 22 23
M  V30 23 1 23 24
M  V30 24 2 24 25
M  V30 25 2 10 26
M  V30 26 1 26 27
M  V30 27 2 27 28
M  V30 28 1 6 29
M  V30 29 2 29 30
M  V30 30 1 30 3
M  V30 31 1 28 8
M  V30 32 1 25 11
M  V30 33 1 19 15
M  V30 34 1 24 20
M  V30 35 1 4 31
M  V30 36 1 5 32
M  V30 37 1 7 33
M  V30 38 1 9 34
M  V30 39 1 14 35
M  V30 40 1 15 36 CFG=1
M  V30 41 1 16 37
M  V30 42 1 16 38
M  V30 43 1 17 39
M  V30 44 1 17 40
M  V30 45 1 18 41
M  V30 46 1 19 42
M  V30 47 1 19 43
M  V30 48 1 22 44
M  V30 49 1 23 45
M  V30 50 1 26 46
M  V30 51 1 27 47
M  V30 52 1 30 48
M  V30 END BOND
M  V30 END CTAB
M  END
>  <Dataset>  (958) 
ChEMBL_Kinases

>  <Ligand_Instance>  (958) 
nan

>  <PDB_ID>  (958) 
nan

>  <Standardized_SMILES>  (958) 
N#Cc1ccc(Nc2cc(-c3nc(N[C@@H]4CCNC4)c4sccc4n3)ccn2)nc1

>  <Name>  (958) 
nan

>  <Pocket>  (958) 
nan

>  <ATP_Site>  (958) 
nan

>  <Peripheral>  (958) 
nan

>  <Num_H_Atoms_ProtBoundConf>  (958) 
nan

>  <Num_Resolved_Atoms>  (958) 
nan

>  <Num_Not_Resolved_Atoms>  (958) 
nan

$$$$
CHEMBL574060
     RDKit          3D

  0  0  0  0  0  0  0  0  0  0999 V3000
M  V30 BEGIN CTAB
M  V30 COUNTS 28 30 0 0 0
M  V30 BEGIN ATOM
M  V30 1 O -0.781357 -2.479530 2.472469 0
M  V30 2 C -0.184405 -1.649063 1.726153 0
M  V30 3 C 1.283732 -1.484327 1.740393 0
M  V30 4 C 2.034787 -2.261425 2.596347 0
M  V30 5 O 1.428236 -3.189659 3.438029 0
M  V30 6 C 3.421256 -2.147121 2.650250 0
M  V30 7 C 3.940838 -1.206812 1.785189 0
M  V30 8 C 3.259091 -0.395679 0.904385 0
M  V30 9 C 1.884571 -0.561286 0.903143 0
M  V30 10 C 1.097079 0.265716 -0.006409 0
M  V30 11 O 1.655276 1.092052 -0.753400 0
M  V30 12 C -0.349392 0.119600 -0.035872 0
M  V30 13 C -1.134435 0.867343 -0.866861 0
M  V30 14 N -0.597262 1.833524 -1.748480 0 CHG=1 VAL=4
M  V30 15 O -1.102089 2.201409 -2.823709 0
M  V30 16 O 0.291657 2.757857 -2.200783 0 CHG=-1 VAL=1
M  V30 17 C -2.507572 0.779050 -0.945207 0
M  V30 18 C -3.113772 -0.138504 -0.114390 0
M  V30 19 C -2.311893 -0.886802 0.719854 0
M  V30 20 O -2.923663 -1.807663 1.553593 0
M  V30 21 C -0.931761 -0.804615 0.804844 0
M  V30 22 H 1.386640 -3.001409 4.447974 0
M  V30 23 H 4.072543 -2.721061 3.294840 0
M  V30 24 H 5.031204 -1.085991 1.797626 0
M  V30 25 H 3.765765 0.301625 0.274678 0
M  V30 26 H -3.140407 1.363758 -1.597774 0
M  V30 27 H -4.191925 -0.279280 -0.105518 0
M  V30 28 H -3.077139 -2.734692 1.191245 0
M  V30 END ATOM
M  V30 BEGIN BOND
M  V30 1 2 1 2
M  V30 2 1 2 3
M  V30 3 2 3 4
M  V30 4 1 4 5
M  V30 5 1 4 6
M  V30 6 2 6 7
M  V30 7 1 7 8
M  V30 8 2 8 9
M  V30 9 1 9 10
M  V30 10 2 10 11
M  V30 11 1 10 12
M  V30 12 2 12 13
M  V30 13 1 13 14
M  V30 14 2 14 15
M  V30 15 1 14 16
M  V30 16 1 13 17
M  V30 17 2 17 18
M  V30 18 1 18 19
M  V30 19 1 19 20
M  V30 20 2 19 21
M  V30 21 1 21 2
M  V30 22 1 9 3
M  V30 23 1 21 12
M  V30 24 1 5 22
M  V30 25 1 6 23
M  V30 26 1 7 24
M  V30 27 1 8 25
M  V30 28 1 17 26
M  V30 29 1 18 27
M  V30 30 1 20 28
M  V30 END BOND
M  V30 END CTAB
M  END
>  <Dataset>  (959) 
ChEMBL_Kinases

>  <Ligand_Instance>  (959) 
nan

>  <PDB_ID>  (959) 
nan

>  <Standardized_SMILES>  (959) 
O=C1c2c(O)cccc2C(=O)c2c([N+](=O)[O-])ccc(O)c21

>  <Name>  (959) 
nan

>  <Pocket>  (959) 
nan

>  <ATP_Site>  (959) 
nan

>  <Peripheral>  (959) 
nan

>  <Num_H_Atoms_ProtBoundConf>  (959) 
nan

>  <Num_Resolved_Atoms>  (959) 
nan

>  <Num_Not_Resolved_Atoms>  (959) 
nan

$$$$
CHEMBL3729346
     RDKit          3D

  0  0  0  0  0  0  0  0  0  0999 V3000
M  V30 BEGIN CTAB
M  V30 COUNTS 55 59 0 0 0
M  V30 BEGIN ATOM
M  V30 1 N 7.206702 0.215342 1.111980 0
M  V30 2 C 6.284776 -0.779638 1.567763 0
M  V30 3 O 7.290325 -1.247234 2.138315 0
M  V30 4 C 4.863635 -0.756619 1.199762 0
M  V30 5 N 4.551312 0.381751 0.330947 0
M  V30 6 C 3.150282 0.307976 0.055530 0
M  V30 7 C 2.929957 0.639305 -1.382788 0 CFG=2
M  V30 8 N 2.337054 -0.454798 -2.128014 0
M  V30 9 C 1.061288 -0.831047 -1.636015 0
M  V30 10 N 0.468323 -0.233440 -0.592907 0
M  V30 11 C -0.748734 -0.701887 -0.243675 0
M  V30 12 C -1.468889 -0.094595 0.896467 0
M  V30 13 C -0.853919 0.930074 1.561726 0
M  V30 14 C -1.580864 1.450150 2.611636 0
M  V30 15 N -2.793429 1.002662 2.967975 0
M  V30 16 C -3.425255 0.003178 2.340993 0
M  V30 17 N -4.703187 -0.420228 2.764046 0
M  V30 18 C -5.572552 -1.427019 2.279925 0
M  V30 19 O -5.169754 -2.087631 1.295069 0
M  V30 20 C -6.858383 -1.702029 2.866598 0
M  V30 21 C -7.607234 -1.246354 3.869083 0
M  V30 22 C -8.831932 -1.770241 4.145725 0
M  V30 23 C -9.261019 -2.823699 3.308837 0
M  V30 24 S -7.828504 -3.035879 2.099570 0
M  V30 25 C -2.711994 -0.524989 1.291996 0
M  V30 26 N -1.370831 -1.707454 -0.874562 0
M  V30 27 C -0.832871 -2.348667 -1.925000 0
M  V30 28 C -1.388368 -3.376405 -2.625045 0
M  V30 29 C -0.702251 -3.917812 -3.672433 0
M  V30 30 S 0.918539 -2.884709 -3.705313 0
M  V30 31 C 0.408233 -1.847979 -2.257342 0
M  V30 32 C 4.294628 0.978243 -1.884822 0 CFG=1
M  V30 33 O 4.494243 2.355969 -1.698418 0
M  V30 34 C 5.222464 0.237457 -0.949350 0
M  V30 35 H 6.964322 1.210490 1.297985 0
M  V30 36 H 6.823263 1.161478 1.373472 0
M  V30 37 H 4.541470 -1.698572 0.681515 0
M  V30 38 H 4.254812 -0.626670 2.117816 0
M  V30 39 H 2.622281 1.050345 0.719663 0
M  V30 40 H 2.719993 -0.697120 0.299118 0
M  V30 41 H 2.281287 1.553265 -1.515592 0
M  V30 42 H 2.782251 -0.928537 -2.939656 0
M  V30 43 H 0.108647 1.343738 1.341068 0
M  V30 44 H -1.187033 2.264122 3.204153 0
M  V30 45 H -5.114292 0.092521 3.596319 0
M  V30 46 H -7.133595 -0.440524 4.409946 0
M  V30 47 H -9.449037 -1.410580 4.955581 0
M  V30 48 H -10.273364 -3.325839 3.463052 0
M  V30 49 H -3.115997 -1.332119 0.712155 0
M  V30 50 H -2.344638 -3.839402 -2.454206 0
M  V30 51 H -0.826625 -4.660306 -4.369627 0
M  V30 52 H 4.456877 0.689336 -2.943467 0
M  V30 53 H 4.550048 2.478855 -0.724456 0
M  V30 54 H 5.292943 -0.822314 -1.260517 0
M  V30 55 H 6.219679 0.715140 -0.985332 0
M  V30 END ATOM
M  V30 BEGIN BOND
M  V30 1 1 1 2
M  V30 2 2 2 3
M  V30 3 1 2 4
M  V30 4 1 4 5
M  V30 5 1 5 6
M  V30 6 1 6 7
M  V30 7 1 7 8
M  V30 8 1 8 9
M  V30 9 2 9 10
M  V30 10 1 10 11
M  V30 11 1 11 12
M  V30 12 2 12 13
M  V30 13 1 13 14
M  V30 14 2 14 15
M  V30 15 1 15 16
M  V30 16 1 16 17
M  V30 17 1 17 18
M  V30 18 2 18 19
M  V30 19 1 18 20
M  V30 20 2 20 21
M  V30 21 1 21 22
M  V30 22 2 22 23
M  V30 23 1 23 24
M  V30 24 2 16 25
M  V30 25 2 11 26
M  V30 26 1 26 27
M  V30 27 1 27 28
M  V30 28 2 28 29
M  V30 29 1 29 30
M  V30 30 1 30 31
M  V30 31 1 7 32
M  V30 32 1 32 33
M  V30 33 1 32 34
M  V30 34 1 34 5
M  V30 35 1 31 9
M  V30 36 1 25 12
M  V30 37 2 31 27
M  V30 38 1 24 20
M  V30 39 1 1 35
M  V30 40 1 1 36
M  V30 41 1 4 37
M  V30 42 1 4 38
M  V30 43 1 6 39
M  V30 44 1 6 40
M  V30 45 1 7 41 CFG=1
M  V30 46 1 8 42
M  V30 47 1 13 43
M  V30 48 1 14 44
M  V30 49 1 17 45
M  V30 50 1 21 46
M  V30 51 1 22 47
M  V30 52 1 23 48
M  V30 53 1 25 49
M  V30 54 1 28 50
M  V30 55 1 29 51
M  V30 56 1 32 52 CFG=3
M  V30 57 1 33 53
M  V30 58 1 34 54
M  V30 59 1 34 55
M  V30 END BOND
M  V30 END CTAB
M  END
>  <Dataset>  (960) 
ChEMBL_Kinases

>  <Ligand_Instance>  (960) 
nan

>  <PDB_ID>  (960) 
nan

>  <Standardized_SMILES>  (960) 
NC(=O)CN1C[C@H](Nc2nc(-c3ccnc(NC(=O)c4cccs4)c3)nc3ccsc23)[C@@H](O)C1

>  <Name>  (960) 
nan

>  <Pocket>  (960) 
nan

>  <ATP_Site>  (960) 
nan

>  <Peripheral>  (960) 
nan

>  <Num_H_Atoms_ProtBoundConf>  (960) 
nan

>  <Num_Resolved_Atoms>  (960) 
nan

>  <Num_Not_Resolved_Atoms>  (960) 
nan

$$$$
CHEMBL3729331
     RDKit          3D

  0  0  0  0  0  0  0  0  0  0999 V3000
M  V30 BEGIN CTAB
M  V30 COUNTS 35 37 0 0 0
M  V30 BEGIN ATOM
M  V30 1 C 0.444256 -3.818893 2.895881 0
M  V30 2 C -1.012331 -3.604481 2.730035 0 CFG=2
M  V30 3 N -1.465378 -4.232204 1.490355 0
M  V30 4 C -1.488891 -2.186005 2.799339 0
M  V30 5 N -1.001207 -1.260067 1.877813 0
M  V30 6 C -0.503032 -0.314287 0.936546 0
M  V30 7 N 0.735161 0.127956 0.680427 0
M  V30 8 C 0.858525 1.040456 -0.298470 0
M  V30 9 C 2.222335 1.500894 -0.550384 0
M  V30 10 C 3.283348 1.028046 0.176439 0
M  V30 11 C 4.550091 1.501279 -0.105900 0
M  V30 12 N 4.734704 2.418611 -1.087118 0
M  V30 13 C 3.670421 2.853273 -1.772130 0
M  V30 14 C 2.352141 2.433741 -1.559235 0
M  V30 15 N -0.211953 1.473553 -0.971456 0
M  V30 16 C -1.466660 1.061077 -0.750676 0
M  V30 17 C -2.369284 1.649785 -1.562315 0
M  V30 18 Br -2.681671 2.868470 -2.956571 0
M  V30 19 C -3.668252 1.112019 -1.210763 0
M  V30 20 S -3.350973 -0.119318 0.197745 0
M  V30 21 C -1.616274 0.144488 0.227531 0
M  V30 22 H 0.700956 -4.879502 2.593135 0
M  V30 23 H 1.060922 -3.163530 2.251263 0
M  V30 24 H 0.820144 -3.701160 3.930663 0
M  V30 25 H -1.563812 -4.148421 3.542747 0
M  V30 26 H -1.428078 -3.465161 0.753121 0
M  V30 27 H -2.494870 -4.435534 1.565338 0
M  V30 28 H -1.509004 -1.786713 3.849831 0
M  V30 29 H -2.622584 -2.282702 2.587834 0
M  V30 30 H -0.048406 -1.490766 2.315624 0
M  V30 31 H 3.142650 0.307402 0.949252 0
M  V30 32 H 5.361520 1.095292 0.500546 0
M  V30 33 H 3.797634 3.597709 -2.571825 0
M  V30 34 H 1.523248 2.801007 -2.124893 0
M  V30 35 H -4.861234 1.002230 -1.300439 0
M  V30 END ATOM
M  V30 BEGIN BOND
M  V30 1 1 1 2
M  V30 2 1 2 3
M  V30 3 1 2 4
M  V30 4 1 4 5
M  V30 5 1 5 6
M  V30 6 2 6 7
M  V30 7 1 7 8
M  V30 8 1 8 9
M  V30 9 2 9 10
M  V30 10 1 10 11
M  V30 11 2 11 12
M  V30 12 1 12 13
M  V30 13 2 13 14
M  V30 14 2 8 15
M  V30 15 1 15 16
M  V30 16 1 16 17
M  V30 17 1 17 18
M  V30 18 2 17 19
M  V30 19 1 19 20
M  V30 20 1 20 21
M  V30 21 1 21 6
M  V30 22 1 14 9
M  V30 23 2 21 16
M  V30 24 1 1 22
M  V30 25 1 1 23
M  V30 26 1 1 24
M  V30 27 1 2 25 CFG=1
M  V30 28 1 3 26
M  V30 29 1 3 27
M  V30 30 1 4 28
M  V30 31 1 4 29
M  V30 32 1 5 30
M  V30 33 1 10 31
M  V30 34 1 11 32
M  V30 35 1 13 33
M  V30 36 1 14 34
M  V30 37 1 19 35
M  V30 END BOND
M  V30 END CTAB
M  END
>  <Dataset>  (961) 
ChEMBL_Kinases

>  <Ligand_Instance>  (961) 
nan

>  <PDB_ID>  (961) 
nan

>  <Standardized_SMILES>  (961) 
C[C@H](N)CNc1nc(-c2ccncc2)nc2c(Br)csc12

>  <Name>  (961) 
nan

>  <Pocket>  (961) 
nan

>  <ATP_Site>  (961) 
nan

>  <Peripheral>  (961) 
nan

>  <Num_H_Atoms_ProtBoundConf>  (961) 
nan

>  <Num_Resolved_Atoms>  (961) 
nan

>  <Num_Not_Resolved_Atoms>  (961) 
nan

$$$$
CHEMBL3729215
     RDKit          3D

  0  0  0  0  0  0  0  0  0  0999 V3000
M  V30 BEGIN CTAB
M  V30 COUNTS 51 55 0 0 0
M  V30 BEGIN ATOM
M  V30 1 C -1.169988 -4.173571 3.838102 0
M  V30 2 C 0.275169 -4.264338 3.513159 0
M  V30 3 C 0.912712 -5.488283 3.623852 0
M  V30 4 C 2.256085 -5.559421 3.318969 0
M  V30 5 C 2.955581 -4.442338 2.912543 0
M  V30 6 C 2.363507 -3.206038 2.788332 0
M  V30 7 N 3.066710 -2.040815 2.372944 0
M  V30 8 C 2.474691 -0.757824 2.192534 0
M  V30 9 C 3.018298 0.224736 3.012720 0
M  V30 10 S 2.027183 1.774006 2.526366 0
M  V30 11 C 1.086372 0.923464 1.363454 0
M  V30 12 C 0.047790 1.402629 0.506744 0
M  V30 13 N -0.285986 2.779164 0.601445 0
M  V30 14 C -1.324926 3.252641 -0.257263 0 CFG=2
M  V30 15 C -0.988384 3.054929 -1.715673 0
M  V30 16 C -0.712877 4.471011 -2.168564 0
M  V30 17 N -1.590864 5.296167 -1.363108 0
M  V30 18 C -1.514422 4.729534 -0.031882 0
M  V30 19 N -0.566644 0.551800 -0.343375 0
M  V30 20 C -0.119105 -0.742039 -0.303292 0
M  V30 21 C -0.753683 -1.724102 -1.212625 0
M  V30 22 C -0.375798 -3.050603 -1.249722 0
M  V30 23 C -0.964285 -3.966041 -2.094398 0
M  V30 24 N -1.955592 -3.548341 -2.924014 0
M  V30 25 C -2.316590 -2.256171 -2.881021 0
M  V30 26 C -1.758708 -1.304888 -2.055014 0
M  V30 27 F -2.190341 -0.016084 -2.081165 0
M  V30 28 N 0.852142 -1.206505 0.492974 0
M  V30 29 C 1.474474 -0.346694 1.353498 0
M  V30 30 C 1.020283 -3.178753 3.102646 0
M  V30 31 H -1.713030 -3.645986 3.001355 0
M  V30 32 H -1.604994 -5.173062 3.877689 0
M  V30 33 H -1.362702 -3.581103 4.755429 0
M  V30 34 H 0.370379 -6.367043 3.941663 0
M  V30 35 H 2.789085 -6.512354 3.396436 0
M  V30 36 H 4.024004 -4.547094 2.680402 0
M  V30 37 H 4.106144 -2.173208 2.192848 0
M  V30 38 H 3.805395 0.235959 3.773962 0
M  V30 39 H 0.205542 3.410605 1.266621 0
M  V30 40 H -2.317221 2.777433 -0.017417 0
M  V30 41 H -0.106161 2.389893 -1.817119 0
M  V30 42 H -1.873361 2.660673 -2.258451 0
M  V30 43 H 0.319491 4.789642 -1.951195 0
M  V30 44 H -1.030190 4.585111 -3.215532 0
M  V30 45 H -2.576814 5.236365 -1.699168 0
M  V30 46 H -0.699297 5.179915 0.576296 0
M  V30 47 H -2.455528 4.962513 0.547157 0
M  V30 48 H 0.404852 -3.344225 -0.585730 0
M  V30 49 H -0.609712 -4.999810 -2.065375 0
M  V30 50 H -3.120947 -1.931890 -3.558607 0
M  V30 51 H 0.449966 -2.266273 3.044229 0
M  V30 END ATOM
M  V30 BEGIN BOND
M  V30 1 1 1 2
M  V30 2 2 2 3
M  V30 3 1 3 4
M  V30 4 2 4 5
M  V30 5 1 5 6
M  V30 6 1 6 7
M  V30 7 1 7 8
M  V30 8 2 8 9
M  V30 9 1 9 10
M  V30 10 1 10 11
M  V30 11 2 11 12
M  V30 12 1 12 13
M  V30 13 1 13 14
M  V30 14 1 14 15
M  V30 15 1 15 16
M  V30 16 1 16 17
M  V30 17 1 17 18
M  V30 18 1 12 19
M  V30 19 2 19 20
M  V30 20 1 20 21
M  V30 21 2 21 22
M  V30 22 1 22 23
M  V30 23 2 23 24
M  V30 24 1 24 25
M  V30 25 2 25 26
M  V30 26 1 26 27
M  V30 27 1 20 28
M  V30 28 2 28 29
M  V30 29 2 6 30
M  V30 30 1 30 2
M  V30 31 1 29 8
M  V30 32 1 29 11
M  V30 33 1 18 14
M  V30 34 1 26 21
M  V30 35 1 1 31
M  V30 36 1 1 32
M  V30 37 1 1 33
M  V30 38 1 3 34
M  V30 39 1 4 35
M  V30 40 1 5 36
M  V30 41 1 7 37
M  V30 42 1 9 38
M  V30 43 1 13 39
M  V30 44 1 14 40 CFG=1
M  V30 45 1 15 41
M  V30 46 1 15 42
M  V30 47 1 16 43
M  V30 48 1 16 44
M  V30 49 1 17 45
M  V30 50 1 18 46
M  V30 51 1 18 47
M  V30 52 1 22 48
M  V30 53 1 23 49
M  V30 54 1 25 50
M  V30 55 1 30 51
M  V30 END BOND
M  V30 END CTAB
M  END
>  <Dataset>  (962) 
ChEMBL_Kinases

>  <Ligand_Instance>  (962) 
nan

>  <PDB_ID>  (962) 
nan

>  <Standardized_SMILES>  (962) 
Cc1cccc(Nc2csc3c(N[C@@H]4CCNC4)nc(-c4ccncc4F)nc23)c1

>  <Name>  (962) 
nan

>  <Pocket>  (962) 
nan

>  <ATP_Site>  (962) 
nan

>  <Peripheral>  (962) 
nan

>  <Num_H_Atoms_ProtBoundConf>  (962) 
nan

>  <Num_Resolved_Atoms>  (962) 
nan

>  <Num_Not_Resolved_Atoms>  (962) 
nan

$$$$
CHEMBL3729311
     RDKit          3D

  0  0  0  0  0  0  0  0  0  0999 V3000
M  V30 BEGIN CTAB
M  V30 COUNTS 45 48 0 0 0
M  V30 BEGIN ATOM
M  V30 1 C 3.112615 -4.397520 0.256553 0
M  V30 2 C 1.917916 -3.760173 0.884983 0 CFG=2
M  V30 3 N 0.692760 -4.434887 0.495081 0
M  V30 4 C 1.845684 -2.311553 0.501905 0
M  V30 5 N 0.691081 -1.693624 1.108645 0
M  V30 6 C 0.435989 -0.294070 0.866683 0
M  V30 7 N 1.284310 0.325991 0.069259 0
M  V30 8 C 1.286508 1.584860 -0.336376 0
M  V30 9 C 2.258965 2.198869 -1.219267 0
M  V30 10 C 3.308767 1.456776 -1.721180 0
M  V30 11 C 4.189717 2.122272 -2.556092 0
M  V30 12 N 4.070867 3.419760 -2.888988 0
M  V30 13 C 3.041603 4.140045 -2.394555 0
M  V30 14 C 2.125180 3.530281 -1.552529 0
M  V30 15 F 1.104540 4.277478 -1.072824 0
M  V30 16 N 0.262492 2.297862 0.156945 0
M  V30 17 C -0.640495 1.732987 0.975583 0
M  V30 18 S -2.121728 2.442143 1.787657 0
M  V30 19 C -2.569596 0.920845 2.592328 0
M  V30 20 C -1.617521 -0.008593 2.223334 0
M  V30 21 C -0.623385 0.415121 1.387228 0
M  V30 22 C -2.073440 -1.205868 2.943921 0
M  V30 23 C -3.469555 -1.545398 2.463988 0
M  V30 24 C -4.477702 -0.508833 2.892047 0
M  V30 25 C -3.741465 0.682477 3.486139 0
M  V30 26 H 2.901927 -4.609684 -0.797003 0
M  V30 27 H 3.940202 -3.644732 0.314887 0
M  V30 28 H 3.428043 -5.306081 0.815437 0
M  V30 29 H 1.956133 -3.822845 2.003417 0
M  V30 30 H 0.787655 -5.440177 0.744116 0
M  V30 31 H 0.545557 -4.342318 -0.534997 0
M  V30 32 H 2.796248 -1.834240 0.824271 0
M  V30 33 H 1.739656 -2.235811 -0.618125 0
M  V30 34 H 0.194723 -2.405975 1.653183 0
M  V30 35 H 3.377846 0.433583 -1.441284 0
M  V30 36 H 5.003767 1.488659 -2.926609 0
M  V30 37 H 2.971545 5.183176 -2.680171 0
M  V30 38 H -1.418616 -2.067440 2.984338 0
M  V30 39 H -2.256380 -0.992934 4.061292 0
M  V30 40 H -3.457267 -1.567964 1.355673 0
M  V30 41 H -3.812151 -2.539947 2.805388 0
M  V30 42 H -5.168392 -0.207987 2.106479 0
M  V30 43 H -5.052516 -0.935289 3.737556 0
M  V30 44 H -4.461912 1.523007 3.418726 0
M  V30 45 H -3.481340 0.564748 4.543101 0
M  V30 END ATOM
M  V30 BEGIN BOND
M  V30 1 1 1 2
M  V30 2 1 2 3
M  V30 3 1 2 4
M  V30 4 1 4 5
M  V30 5 1 5 6
M  V30 6 2 6 7
M  V30 7 1 7 8
M  V30 8 1 8 9
M  V30 9 2 9 10
M  V30 10 1 10 11
M  V30 11 2 11 12
M  V30 12 1 12 13
M  V30 13 2 13 14
M  V30 14 1 14 15
M  V30 15 2 8 16
M  V30 16 1 16 17
M  V30 17 1 17 18
M  V30 18 1 18 19
M  V30 19 2 19 20
M  V30 20 1 20 21
M  V30 21 1 20 22
M  V30 22 1 22 23
M  V30 23 1 23 24
M  V30 24 1 24 25
M  V30 25 1 21 6
M  V30 26 1 14 9
M  V30 27 2 21 17
M  V30 28 1 25 19
M  V30 29 1 1 26
M  V30 30 1 1 27
M  V30 31 1 1 28
M  V30 32 1 2 29 CFG=1
M  V30 33 1 3 30
M  V30 34 1 3 31
M  V30 35 1 4 32
M  V30 36 1 4 33
M  V30 37 1 5 34
M  V30 38 1 10 35
M  V30 39 1 11 36
M  V30 40 1 13 37
M  V30 41 1 22 38
M  V30 42 1 22 39
M  V30 43 1 23 40
M  V30 44 1 23 41
M  V30 45 1 24 42
M  V30 46 1 24 43
M  V30 47 1 25 44
M  V30 48 1 25 45
M  V30 END BOND
M  V30 END CTAB
M  END
>  <Dataset>  (963) 
ChEMBL_Kinases

>  <Ligand_Instance>  (963) 
nan

>  <PDB_ID>  (963) 
nan

>  <Standardized_SMILES>  (963) 
C[C@H](N)CNc1nc(-c2ccncc2F)nc2sc3c(c12)CCCC3

>  <Name>  (963) 
nan

>  <Pocket>  (963) 
nan

>  <ATP_Site>  (963) 
nan

>  <Peripheral>  (963) 
nan

>  <Num_H_Atoms_ProtBoundConf>  (963) 
nan

>  <Num_Resolved_Atoms>  (963) 
nan

>  <Num_Not_Resolved_Atoms>  (963) 
nan

$$$$
CHEMBL3729309
     RDKit          3D

  0  0  0  0  0  0  0  0  0  0999 V3000
M  V30 BEGIN CTAB
M  V30 COUNTS 44 48 0 0 0
M  V30 BEGIN ATOM
M  V30 1 Cl 0.296620 -4.473901 3.609341 0
M  V30 2 C 1.344245 -4.676206 2.207395 0
M  V30 3 C 2.149685 -5.787845 2.160929 0
M  V30 4 C 3.027455 -6.115607 1.157021 0
M  V30 5 C 3.060174 -5.214413 0.134286 0
M  V30 6 C 2.273449 -4.125632 0.176459 0
M  V30 7 S 2.130848 -2.806334 -1.026251 0
M  V30 8 C 0.887973 -1.858287 -0.126857 0
M  V30 9 C 0.229189 -0.639280 -0.423086 0
M  V30 10 O 0.648422 -0.137169 -1.618313 0
M  V30 11 C 0.340863 0.979224 -2.332970 0
M  V30 12 C 0.623609 2.320626 -1.787037 0 CFG=2
M  V30 13 C 2.086554 2.564255 -1.413389 0
M  V30 14 C 2.028510 3.734763 -0.423275 0
M  V30 15 C 0.536257 4.052456 -0.419936 0
M  V30 16 N -0.002722 2.667485 -0.529974 0
M  V30 17 N -0.661939 -0.191859 0.472402 0
M  V30 18 C -0.861384 -0.925826 1.572653 0
M  V30 19 C -1.829797 -0.458859 2.566589 0
M  V30 20 C -2.099647 -1.148523 3.727845 0
M  V30 21 C -3.044160 -0.599045 4.595805 0
M  V30 22 N -3.691937 0.555472 4.352209 0
M  V30 23 C -3.406261 1.205798 3.208911 0
M  V30 24 C -2.477147 0.725836 2.289783 0
M  V30 25 N -0.238010 -2.053541 1.825156 0
M  V30 26 C 0.674544 -2.614445 1.018956 0
M  V30 27 C 1.388580 -3.771347 1.162736 0
M  V30 28 H 2.095127 -6.495674 3.008850 0
M  V30 29 H 3.630753 -7.007921 1.186585 0
M  V30 30 H 3.713502 -5.359468 -0.719594 0
M  V30 31 H -0.746765 0.929382 -2.633015 0
M  V30 32 H 0.894220 0.897839 -3.327406 0
M  V30 33 H 0.287591 3.128814 -2.498046 0
M  V30 34 H 2.641649 2.928304 -2.288000 0
M  V30 35 H 2.532640 1.661202 -0.977351 0
M  V30 36 H 2.626309 4.596241 -0.768115 0
M  V30 37 H 2.270050 3.392885 0.599816 0
M  V30 38 H 0.285077 4.536553 -1.365236 0
M  V30 39 H 0.191999 4.545869 0.487420 0
M  V30 40 H 0.605987 2.170357 0.199614 0
M  V30 41 H -1.587749 -2.076932 3.937659 0
M  V30 42 H -3.243586 -1.162249 5.511739 0
M  V30 43 H -3.916018 2.127883 3.002587 0
M  V30 44 H -2.296873 1.308299 1.382694 0
M  V30 END ATOM
M  V30 BEGIN BOND
M  V30 1 1 1 2
M  V30 2 2 2 3
M  V30 3 1 3 4
M  V30 4 2 4 5
M  V30 5 1 5 6
M  V30 6 1 6 7
M  V30 7 1 7 8
M  V30 8 2 8 9
M  V30 9 1 9 10
M  V30 10 1 10 11
M  V30 11 1 11 12
M  V30 12 1 12 13
M  V30 13 1 13 14
M  V30 14 1 14 15
M  V30 15 1 15 16
M  V30 16 1 9 17
M  V30 17 2 17 18
M  V30 18 1 18 19
M  V30 19 2 19 20
M  V30 20 1 20 21
M  V30 21 2 21 22
M  V30 22 1 22 23
M  V30 23 2 23 24
M  V30 24 1 18 25
M  V30 25 2 25 26
M  V30 26 1 26 27
M  V30 27 1 27 2
M  V30 28 2 27 6
M  V30 29 1 26 8
M  V30 30 1 16 12
M  V30 31 1 24 19
M  V30 32 1 3 28
M  V30 33 1 4 29
M  V30 34 1 5 30
M  V30 35 1 11 31
M  V30 36 1 11 32
M  V30 37 1 12 33 CFG=3
M  V30 38 1 13 34
M  V30 39 1 13 35
M  V30 40 1 14 36
M  V30 41 1 14 37
M  V30 42 1 15 38
M  V30 43 1 15 39
M  V30 44 1 16 40
M  V30 45 1 20 41
M  V30 46 1 21 42
M  V30 47 1 23 43
M  V30 48 1 24 44
M  V30 END BOND
M  V30 END CTAB
M  END
>  <Dataset>  (964) 
ChEMBL_Kinases

>  <Ligand_Instance>  (964) 
nan

>  <PDB_ID>  (964) 
nan

>  <Standardized_SMILES>  (964) 
Clc1cccc2sc3c(OC[C@@H]4CCCN4)nc(-c4ccncc4)nc3c12

>  <Name>  (964) 
nan

>  <Pocket>  (964) 
nan

>  <ATP_Site>  (964) 
nan

>  <Peripheral>  (964) 
nan

>  <Num_H_Atoms_ProtBoundConf>  (964) 
nan

>  <Num_Resolved_Atoms>  (964) 
nan

>  <Num_Not_Resolved_Atoms>  (964) 
nan

$$$$
CHEMBL3729301
     RDKit          3D

  0  0  0  0  0  0  0  0  0  0999 V3000
M  V30 BEGIN CTAB
M  V30 COUNTS 40 43 0 0 0
M  V30 BEGIN ATOM
M  V30 1 C -0.767116 -5.183758 0.214354 0
M  V30 2 C 0.532098 -4.928136 0.933254 0 CFG=2
M  V30 3 N 0.414694 -5.097999 2.368622 0
M  V30 4 C 0.951810 -3.491031 0.608312 0
M  V30 5 N -0.070132 -2.603716 1.064646 0
M  V30 6 C 0.180457 -1.247839 0.832737 0
M  V30 7 N 1.267181 -0.727723 0.235820 0
M  V30 8 C 1.332773 0.609215 0.100219 0
M  V30 9 C 2.502824 1.208670 -0.545485 0
M  V30 10 C 2.656360 2.567129 -0.727845 0
M  V30 11 C 3.775700 3.090955 -1.341781 0
M  V30 12 N 4.734881 2.237542 -1.768530 0
M  V30 13 C 4.575522 0.917363 -1.586105 0
M  V30 14 C 3.467431 0.320959 -0.972400 0
M  V30 15 N 0.401126 1.440533 0.514545 0
M  V30 16 C -0.734247 1.080034 1.124233 0
M  V30 17 C -0.782030 -0.351898 1.257945 0
M  V30 18 S -2.352517 -0.657843 2.086601 0
M  V30 19 C -2.847467 1.135925 2.203599 0
M  V30 20 N -3.954539 1.720582 2.726692 0
M  V30 21 C -4.113802 3.043113 2.707487 0
M  V30 22 C -3.066784 3.709525 2.119766 0
M  V30 23 C -1.932592 3.170423 1.579293 0
M  V30 24 C -1.773329 1.806248 1.601673 0
M  V30 25 H -1.590390 -4.866597 0.860309 0
M  V30 26 H -0.851562 -4.616390 -0.730023 0
M  V30 27 H -0.870060 -6.273064 -0.061821 0
M  V30 28 H 1.304006 -5.646845 0.591106 0
M  V30 29 H -0.570898 -4.902352 2.703285 0
M  V30 30 H 1.114988 -4.540206 2.893057 0
M  V30 31 H 1.889052 -3.345544 1.221118 0
M  V30 32 H 1.271156 -3.383625 -0.425526 0
M  V30 33 H -0.929757 -2.957893 1.532436 0
M  V30 34 H 1.859161 3.204148 -0.367652 0
M  V30 35 H 3.784807 4.169000 -1.428685 0
M  V30 36 H 5.345643 0.216424 -1.927538 0
M  V30 37 H 3.421063 -0.753159 -0.866693 0
M  V30 38 H -5.012919 3.437085 3.138482 0
M  V30 39 H -3.163118 4.807110 2.085447 0
M  V30 40 H -1.195996 3.835189 1.150873 0
M  V30 END ATOM
M  V30 BEGIN BOND
M  V30 1 1 1 2
M  V30 2 1 2 3
M  V30 3 1 2 4
M  V30 4 1 4 5
M  V30 5 1 5 6
M  V30 6 2 6 7
M  V30 7 1 7 8
M  V30 8 1 8 9
M  V30 9 2 9 10
M  V30 10 1 10 11
M  V30 11 2 11 12
M  V30 12 1 12 13
M  V30 13 2 13 14
M  V30 14 2 8 15
M  V30 15 1 15 16
M  V30 16 2 16 17
M  V30 17 1 17 18
M  V30 18 1 18 19
M  V30 19 2 19 20
M  V30 20 1 20 21
M  V30 21 2 21 22
M  V30 22 1 22 23
M  V30 23 2 23 24
M  V30 24 1 17 6
M  V30 25 1 24 19
M  V30 26 1 14 9
M  V30 27 1 24 16
M  V30 28 1 1 25
M  V30 29 1 1 26
M  V30 30 1 1 27
M  V30 31 1 2 28 CFG=3
M  V30 32 1 3 29
M  V30 33 1 3 30
M  V30 34 1 4 31
M  V30 35 1 4 32
M  V30 36 1 5 33
M  V30 37 1 10 34
M  V30 38 1 11 35
M  V30 39 1 13 36
M  V30 40 1 14 37
M  V30 41 1 21 38
M  V30 42 1 22 39
M  V30 43 1 23 40
M  V30 END BOND
M  V30 END CTAB
M  END
>  <Dataset>  (965) 
ChEMBL_Kinases

>  <Ligand_Instance>  (965) 
nan

>  <PDB_ID>  (965) 
nan

>  <Standardized_SMILES>  (965) 
C[C@H](N)CNc1nc(-c2ccncc2)nc2c1sc1ncccc12

>  <Name>  (965) 
nan

>  <Pocket>  (965) 
nan

>  <ATP_Site>  (965) 
nan

>  <Peripheral>  (965) 
nan

>  <Num_H_Atoms_ProtBoundConf>  (965) 
nan

>  <Num_Resolved_Atoms>  (965) 
nan

>  <Num_Not_Resolved_Atoms>  (965) 
nan

$$$$
CHEMBL3729295
     RDKit          3D

  0  0  0  0  0  0  0  0  0  0999 V3000
M  V30 BEGIN CTAB
M  V30 COUNTS 55 59 0 0 0
M  V30 BEGIN ATOM
M  V30 1 C 1.113555 -6.302014 3.585624 0
M  V30 2 C 1.261080 -4.836391 3.748588 0
M  V30 3 C 1.566253 -4.336392 5.002442 0
M  V30 4 C 1.642715 -2.971443 4.869336 0
M  V30 5 C 1.388524 -2.669879 3.564640 0
M  V30 6 C 1.349423 -1.371825 2.911879 0
M  V30 7 C 1.603418 -0.220982 3.687266 0
M  V30 8 S 1.449326 1.197630 2.456182 0
M  V30 9 C 1.080189 0.171373 1.098178 0
M  V30 10 C 0.807809 0.440546 -0.293079 0
M  V30 11 N 0.864897 1.823405 -0.501757 0
M  V30 12 C 0.922137 3.213167 -0.712136 0
M  V30 13 C -0.245922 3.901855 -1.324559 0 CFG=1
M  V30 14 N -0.543345 3.375224 -2.648131 0
M  V30 15 C -1.455904 4.035017 -0.464900 0
M  V30 16 C -2.044144 2.777787 0.005756 0
M  V30 17 C -1.703864 2.200109 1.208922 0
M  V30 18 C -2.258954 1.016027 1.633457 0
M  V30 19 C -3.190234 0.332179 0.882704 0
M  V30 20 C -3.545684 0.906417 -0.340533 0
M  V30 21 C -2.980846 2.112621 -0.773896 0
M  V30 22 N 0.557618 -0.578760 -1.119245 0
M  V30 23 C 0.574971 -1.807636 -0.599743 0
M  V30 24 C 0.307345 -2.913841 -1.512629 0
M  V30 25 C 0.064533 -2.670910 -2.841185 0
M  V30 26 C -0.188188 -3.687094 -3.735850 0
M  V30 27 N -0.182867 -4.931051 -3.230264 0
M  V30 28 C 0.052118 -5.191936 -1.935508 0
M  V30 29 C 0.312595 -4.189657 -0.994983 0
M  V30 30 N 0.829184 -2.010781 0.683087 0
M  V30 31 C 1.092723 -1.086553 1.608121 0
M  V30 32 O 1.175725 -3.806999 2.975716 0
M  V30 33 H 0.180439 -6.709690 4.025369 0
M  V30 34 H 2.029425 -6.814554 3.939281 0
M  V30 35 H 1.042366 -6.519336 2.482048 0
M  V30 36 H 1.735524 -4.814843 5.970677 0
M  V30 37 H 1.858821 -2.251972 5.623272 0
M  V30 38 H 1.845752 -0.167778 4.801020 0
M  V30 39 H 0.641072 1.780981 -1.556924 0
M  V30 40 H 1.844976 3.489856 -1.302976 0
M  V30 41 H 1.102236 3.773141 0.267563 0
M  V30 42 H 0.099632 4.960664 -1.528892 0
M  V30 43 H -1.115960 4.046038 -3.188610 0
M  V30 44 H 0.284602 3.025431 -3.135702 0
M  V30 45 H -2.272582 4.583770 -0.996017 0
M  V30 46 H -1.188702 4.687128 0.398457 0
M  V30 47 H -0.976398 2.763543 1.773888 0
M  V30 48 H -1.932063 0.643378 2.585526 0
M  V30 49 H -3.625989 -0.591329 1.207803 0
M  V30 50 H -4.269429 0.391026 -0.944174 0
M  V30 51 H -3.262218 2.548429 -1.719206 0
M  V30 52 H 0.065698 -1.650409 -3.232352 0
M  V30 53 H -0.371832 -3.454019 -4.758440 0
M  V30 54 H 0.048668 -6.216252 -1.552094 0
M  V30 55 H 0.504859 -4.363353 0.054230 0
M  V30 END ATOM
M  V30 BEGIN BOND
M  V30 1 1 1 2
M  V30 2 2 2 3
M  V30 3 1 3 4
M  V30 4 2 4 5
M  V30 5 1 5 6
M  V30 6 2 6 7
M  V30 7 1 7 8
M  V30 8 1 8 9
M  V30 9 2 9 10
M  V30 10 1 10 11
M  V30 11 1 11 12
M  V30 12 1 12 13
M  V30 13 1 13 14
M  V30 14 1 13 15
M  V30 15 1 15 16
M  V30 16 2 16 17
M  V30 17 1 17 18
M  V30 18 2 18 19
M  V30 19 1 19 20
M  V30 20 2 20 21
M  V30 21 1 10 22
M  V30 22 2 22 23
M  V30 23 1 23 24
M  V30 24 2 24 25
M  V30 25 1 25 26
M  V30 26 2 26 27
M  V30 27 1 27 28
M  V30 28 2 28 29
M  V30 29 1 23 30
M  V30 30 2 30 31
M  V30 31 1 5 32
M  V30 32 1 32 2
M  V30 33 1 31 6
M  V30 34 1 31 9
M  V30 35 1 21 16
M  V30 36 1 29 24
M  V30 37 1 1 33
M  V30 38 1 1 34
M  V30 39 1 1 35
M  V30 40 1 3 36
M  V30 41 1 4 37
M  V30 42 1 7 38
M  V30 43 1 11 39
M  V30 44 1 12 40
M  V30 45 1 12 41
M  V30 46 1 13 42 CFG=3
M  V30 47 1 14 43
M  V30 48 1 14 44
M  V30 49 1 15 45
M  V30 50 1 15 46
M  V30 51 1 17 47
M  V30 52 1 18 48
M  V30 53 1 19 49
M  V30 54 1 20 50
M  V30 55 1 21 51
M  V30 56 1 25 52
M  V30 57 1 26 53
M  V30 58 1 28 54
M  V30 59 1 29 55
M  V30 END BOND
M  V30 END CTAB
M  END
>  <Dataset>  (966) 
ChEMBL_Kinases

>  <Ligand_Instance>  (966) 
nan

>  <PDB_ID>  (966) 
nan

>  <Standardized_SMILES>  (966) 
Cc1ccc(-c2csc3c(NC[C@@H](N)Cc4ccccc4)nc(-c4ccncc4)nc23)o1

>  <Name>  (966) 
nan

>  <Pocket>  (966) 
nan

>  <ATP_Site>  (966) 
nan

>  <Peripheral>  (966) 
nan

>  <Num_H_Atoms_ProtBoundConf>  (966) 
nan

>  <Num_Resolved_Atoms>  (966) 
nan

>  <Num_Not_Resolved_Atoms>  (966) 
nan

$$$$
CHEMBL3729288
     RDKit          3D

  0  0  0  0  0  0  0  0  0  0999 V3000
M  V30 BEGIN CTAB
M  V30 COUNTS 57 61 0 0 0
M  V30 BEGIN ATOM
M  V30 1 C -0.696396 -4.023553 3.319328 0
M  V30 2 C 0.348076 -3.274074 2.584553 0
M  V30 3 C 1.218480 -2.394680 3.213792 0
M  V30 4 C 2.166449 -1.732019 2.461439 0
M  V30 5 C 2.313400 -1.889367 1.075514 0
M  V30 6 C 3.389138 -1.067447 0.530430 0
M  V30 7 C 2.965286 0.292604 0.017907 0 CFG=2
M  V30 8 N 2.342791 1.129169 0.978443 0
M  V30 9 C 2.278034 0.262947 -1.308239 0
M  V30 10 O 0.988727 -0.189024 -1.348845 0
M  V30 11 C -0.148615 0.243782 -0.751218 0
M  V30 12 N -0.174765 1.289748 0.060137 0
M  V30 13 C -1.224324 1.804597 0.703296 0
M  V30 14 C -1.292156 2.949572 1.595988 0
M  V30 15 C -0.158185 3.681735 1.874848 0
M  V30 16 C -0.167469 4.777578 2.713411 0
M  V30 17 N -1.332359 5.141375 3.278482 0
M  V30 18 C -2.442064 4.456038 3.029309 0
M  V30 19 C -2.453492 3.374268 2.206625 0
M  V30 20 N -2.387052 1.166910 0.485857 0
M  V30 21 C -2.429081 0.075561 -0.345211 0
M  V30 22 S -3.835368 -1.004232 -0.860777 0
M  V30 23 C -2.871159 -2.027454 -1.882027 0
M  V30 24 C -1.577938 -1.520279 -1.786329 0
M  V30 25 C -1.318842 -0.446188 -1.008388 0
M  V30 26 C -0.685481 -2.339900 -2.651422 0
M  V30 27 C -0.817400 -3.811580 -2.445735 0
M  V30 28 C -2.242771 -4.294999 -2.292397 0
M  V30 29 C -3.227520 -3.205890 -2.716980 0
M  V30 30 C 1.435329 -2.768753 0.479333 0
M  V30 31 C 0.492633 -3.429068 1.222313 0
M  V30 32 H -1.006548 -4.880450 2.705580 0
M  V30 33 H -0.380282 -4.311159 4.342156 0
M  V30 34 H -1.600398 -3.377421 3.440428 0
M  V30 35 H 1.073094 -2.302003 4.275717 0
M  V30 36 H 2.767421 -1.088775 3.126648 0
M  V30 37 H 4.240611 -0.991099 1.223820 0
M  V30 38 H 3.773143 -1.604583 -0.389301 0
M  V30 39 H 3.976294 0.800280 -0.211992 0
M  V30 40 H 2.873274 1.980899 1.162139 0
M  V30 41 H 1.918707 0.633669 1.761636 0
M  V30 42 H 2.955829 -0.273355 -2.045831 0
M  V30 43 H 2.308650 1.323960 -1.710518 0
M  V30 44 H 0.781959 3.397657 1.424718 0
M  V30 45 H 0.718445 5.371629 2.948142 0
M  V30 46 H -3.396860 4.748908 3.488397 0
M  V30 47 H -3.383171 2.828703 2.019689 0
M  V30 48 H 0.392495 -2.078501 -2.531268 0
M  V30 49 H -0.939483 -2.154001 -3.737990 0
M  V30 50 H -0.188651 -4.209611 -1.635807 0
M  V30 51 H -0.440717 -4.332149 -3.373484 0
M  V30 52 H -2.438843 -5.247342 -2.808957 0
M  V30 53 H -2.419582 -4.467334 -1.209939 0
M  V30 54 H -4.215344 -3.556600 -2.360444 0
M  V30 55 H -3.178361 -2.992116 -3.794259 0
M  V30 56 H 1.591737 -2.852497 -0.585979 0
M  V30 57 H -0.177307 -4.107840 0.734349 0
M  V30 END ATOM
M  V30 BEGIN BOND
M  V30 1 1 1 2
M  V30 2 2 2 3
M  V30 3 1 3 4
M  V30 4 2 4 5
M  V30 5 1 5 6
M  V30 6 1 6 7
M  V30 7 1 7 8
M  V30 8 1 7 9
M  V30 9 1 9 10
M  V30 10 1 10 11
M  V30 11 2 11 12
M  V30 12 1 12 13
M  V30 13 1 13 14
M  V30 14 2 14 15
M  V30 15 1 15 16
M  V30 16 2 16 17
M  V30 17 1 17 18
M  V30 18 2 18 19
M  V30 19 2 13 20
M  V30 20 1 20 21
M  V30 21 1 21 22
M  V30 22 1 22 23
M  V30 23 2 23 24
M  V30 24 1 24 25
M  V30 25 1 24 26
M  V30 26 1 26 27
M  V30 27 1 27 28
M  V30 28 1 28 29
M  V30 29 1 5 30
M  V30 30 2 30 31
M  V30 31 1 31 2
M  V30 32 1 25 11
M  V30 33 1 19 14
M  V30 34 2 25 21
M  V30 35 1 29 23
M  V30 36 1 1 32
M  V30 37 1 1 33
M  V30 38 1 1 34
M  V30 39 1 3 35
M  V30 40 1 4 36
M  V30 41 1 6 37
M  V30 42 1 6 38
M  V30 43 1 7 39 CFG=3
M  V30 44 1 8 40
M  V30 45 1 8 41
M  V30 46 1 9 42
M  V30 47 1 9 43
M  V30 48 1 15 44
M  V30 49 1 16 45
M  V30 50 1 18 46
M  V30 51 1 19 47
M  V30 52 1 26 48
M  V30 53 1 26 49
M  V30 54 1 27 50
M  V30 55 1 27 51
M  V30 56 1 28 52
M  V30 57 1 28 53
M  V30 58 1 29 54
M  V30 59 1 29 55
M  V30 60 1 30 56
M  V30 61 1 31 57
M  V30 END BOND
M  V30 END CTAB
M  END
>  <Dataset>  (967) 
ChEMBL_Kinases

>  <Ligand_Instance>  (967) 
nan

>  <PDB_ID>  (967) 
nan

>  <Standardized_SMILES>  (967) 
Cc1ccc(C[C@H](N)COc2nc(-c3ccncc3)nc3sc4c(c23)CCCC4)cc1

>  <Name>  (967) 
nan

>  <Pocket>  (967) 
nan

>  <ATP_Site>  (967) 
nan

>  <Peripheral>  (967) 
nan

>  <Num_H_Atoms_ProtBoundConf>  (967) 
nan

>  <Num_Resolved_Atoms>  (967) 
nan

>  <Num_Not_Resolved_Atoms>  (967) 
nan

$$$$
CHEMBL574059
     RDKit          3D

  0  0  0  0  0  0  0  0  0  0999 V3000
M  V30 BEGIN CTAB
M  V30 COUNTS 41 44 0 0 0
M  V30 BEGIN ATOM
M  V30 1 C 0.762940 0.451970 3.220103 0
M  V30 2 N 1.064087 0.433040 1.800804 0
M  V30 3 C 1.462919 1.521328 1.082034 0
M  V30 4 O 1.527235 2.549799 1.831693 0
M  V30 5 C 1.740814 1.429095 -0.284869 0
M  V30 6 C 2.138758 2.756412 -0.756464 0
M  V30 7 C 1.170448 3.619706 -1.221018 0
M  V30 8 Cl -0.511204 3.067300 -1.235090 0
M  V30 9 C 1.523483 4.877091 -1.660383 0
M  V30 10 C 2.847224 5.259370 -1.630333 0
M  V30 11 C 3.791974 4.370841 -1.159563 0
M  V30 12 C 3.483945 3.092132 -0.705931 0
M  V30 13 Cl 4.726291 2.019001 -0.125224 0
M  V30 14 C 1.608022 0.210994 -0.917321 0
M  V30 15 C 1.202400 -0.865488 -0.156471 0
M  V30 16 C 1.090926 -2.053240 -0.848342 0
M  V30 17 N 0.699703 -3.139840 -0.157808 0
M  V30 18 C 0.423329 -3.081456 1.166042 0
M  V30 19 N 0.012423 -4.082531 2.059140 0
M  V30 20 C -1.366570 -4.430322 2.198483 0
M  V30 21 C -1.866008 -5.350016 3.104671 0
M  V30 22 C -3.216607 -5.622381 3.152806 0
M  V30 23 C -4.137168 -4.995205 2.304229 0
M  V30 24 F -5.470907 -5.229740 2.314018 0
M  V30 25 C -3.668982 -4.060625 1.376170 0
M  V30 26 C -2.305702 -3.816994 1.361539 0
M  V30 27 N 0.548840 -1.898577 1.790572 0
M  V30 28 C 0.931533 -0.757383 1.193631 0
M  V30 29 H 0.486963 1.502136 3.535314 0
M  V30 30 H 1.607134 0.105129 3.832355 0
M  V30 31 H -0.118847 -0.175927 3.480254 0
M  V30 32 H 0.675501 5.475904 -2.006174 0
M  V30 33 H 3.069427 6.253868 -1.984630 0
M  V30 34 H 4.800129 4.741098 -1.167015 0
M  V30 35 H 1.849761 0.286396 -1.948921 0
M  V30 36 H 1.302368 -2.132316 -1.900415 0
M  V30 37 H 0.670048 -4.624331 2.665874 0
M  V30 38 H -1.161042 -5.841294 3.767955 0
M  V30 39 H -3.629776 -6.342022 3.857162 0
M  V30 40 H -4.304629 -3.527640 0.680434 0
M  V30 41 H -1.908348 -3.091331 0.645770 0
M  V30 END ATOM
M  V30 BEGIN BOND
M  V30 1 1 1 2
M  V30 2 1 2 3
M  V30 3 2 3 4
M  V30 4 1 3 5
M  V30 5 1 5 6
M  V30 6 2 6 7
M  V30 7 1 7 8
M  V30 8 1 7 9
M  V30 9 2 9 10
M  V30 10 1 10 11
M  V30 11 2 11 12
M  V30 12 1 12 13
M  V30 13 2 5 14
M  V30 14 1 14 15
M  V30 15 2 15 16
M  V30 16 1 16 17
M  V30 17 2 17 18
M  V30 18 1 18 19
M  V30 19 1 19 20
M  V30 20 2 20 21
M  V30 21 1 21 22
M  V30 22 2 22 23
M  V30 23 1 23 24
M  V30 24 1 23 25
M  V30 25 2 25 26
M  V30 26 1 18 27
M  V30 27 2 27 28
M  V30 28 1 28 2
M  V30 29 1 12 6
M  V30 30 1 28 15
M  V30 31 1 26 20
M  V30 32 1 1 29
M  V30 33 1 1 30
M  V30 34 1 1 31
M  V30 35 1 9 32
M  V30 36 1 10 33
M  V30 37 1 11 34
M  V30 38 1 14 35
M  V30 39 1 16 36
M  V30 40 1 19 37
M  V30 41 1 21 38
M  V30 42 1 22 39
M  V30 43 1 25 40
M  V30 44 1 26 41
M  V30 END BOND
M  V30 END CTAB
M  END
>  <Dataset>  (968) 
ChEMBL_Kinases

>  <Ligand_Instance>  (968) 
nan

>  <PDB_ID>  (968) 
nan

>  <Standardized_SMILES>  (968) 
Cn1c(=O)c(-c2c(Cl)cccc2Cl)cc2cnc(Nc3ccc(F)cc3)nc21

>  <Name>  (968) 
nan

>  <Pocket>  (968) 
nan

>  <ATP_Site>  (968) 
nan

>  <Peripheral>  (968) 
nan

>  <Num_H_Atoms_ProtBoundConf>  (968) 
nan

>  <Num_Resolved_Atoms>  (968) 
nan

>  <Num_Not_Resolved_Atoms>  (968) 
nan

$$$$
CHEMBL3729275
     RDKit          3D

  0  0  0  0  0  0  0  0  0  0999 V3000
M  V30 BEGIN CTAB
M  V30 COUNTS 54 57 0 0 0
M  V30 BEGIN ATOM
M  V30 1 C 4.020110 -6.126266 2.788542 0
M  V30 2 C 4.662947 -5.102512 3.716373 0 CFG=2
M  V30 3 O 4.444412 -5.538931 5.012906 0
M  V30 4 C 4.139470 -3.758035 3.489109 0
M  V30 5 C 3.714300 -2.648238 3.281620 0
M  V30 6 C 3.199437 -1.345040 3.016418 0
M  V30 7 C 3.599539 -0.257967 3.917752 0
M  V30 8 S 2.712139 1.254918 3.217699 0
M  V30 9 C 1.934572 0.362078 1.869854 0
M  V30 10 C 1.099956 0.816330 0.890749 0
M  V30 11 N 0.786578 2.196090 0.916951 0
M  V30 12 C -0.095713 2.694085 -0.108328 0
M  V30 13 C -1.465177 2.097532 -0.102545 0 CFG=1
M  V30 14 N -2.173651 2.327832 1.140509 0
M  V30 15 C -2.308828 2.746766 -1.206837 0
M  V30 16 C -3.672114 2.154360 -1.202664 0
M  V30 17 C -4.706395 2.672937 -0.452482 0
M  V30 18 C -5.978574 2.123698 -0.445829 0
M  V30 19 C -6.183535 1.019900 -1.228273 0
M  V30 20 C -5.172184 0.469192 -1.995495 0
M  V30 21 C -3.915975 1.038043 -1.981608 0
M  V30 22 N 0.633381 -0.047571 -0.026656 0
M  V30 23 C 1.052924 -1.317921 0.120560 0
M  V30 24 C 0.579255 -2.328495 -0.854941 0
M  V30 25 C -0.262177 -1.859745 -1.838309 0
M  V30 26 C -0.735740 -2.777523 -2.782945 0
M  V30 27 N -0.365815 -4.055571 -2.705514 0
M  V30 28 C 0.445400 -4.492966 -1.752652 0
M  V30 29 C 0.956530 -3.652268 -0.782703 0
M  V30 30 F 1.794699 -4.021941 0.229030 0
M  V30 31 N 1.867497 -1.751332 1.079429 0
M  V30 32 C 2.370323 -0.947281 2.026080 0
M  V30 33 H 4.628907 -7.031292 2.826596 0
M  V30 34 H 2.963456 -6.287034 3.048987 0
M  V30 35 H 4.022445 -5.685707 1.769030 0
M  V30 36 H 5.745406 -5.118945 3.444529 0
M  V30 37 H 3.714833 -5.023715 5.472297 0
M  V30 38 H 4.315063 -0.395931 4.840376 0
M  V30 39 H 1.152736 2.862499 1.625868 0
M  V30 40 H 0.324250 2.556613 -1.130408 0
M  V30 41 H -0.208823 3.811514 -0.010362 0
M  V30 42 H -1.433298 1.031511 -0.370252 0
M  V30 43 H -1.659262 2.042346 1.979717 0
M  V30 44 H -2.382794 3.343090 1.225021 0
M  V30 45 H -1.838435 2.586290 -2.185055 0
M  V30 46 H -2.359185 3.830599 -0.973539 0
M  V30 47 H -4.529571 3.547107 0.162297 0
M  V30 48 H -6.778422 2.533105 0.140771 0
M  V30 49 H -7.139442 0.509905 -1.298363 0
M  V30 50 H -5.275622 -0.394106 -2.626694 0
M  V30 51 H -3.102014 0.637359 -2.566263 0
M  V30 52 H -0.592429 -0.834045 -1.945592 0
M  V30 53 H -1.387571 -2.465649 -3.561695 0
M  V30 54 H 0.733142 -5.523128 -1.704368 0
M  V30 END ATOM
M  V30 BEGIN BOND
M  V30 1 1 1 2
M  V30 2 1 2 3
M  V30 3 1 2 4
M  V30 4 3 4 5
M  V30 5 1 5 6
M  V30 6 2 6 7
M  V30 7 1 7 8
M  V30 8 1 8 9
M  V30 9 2 9 10
M  V30 10 1 10 11
M  V30 11 1 11 12
M  V30 12 1 12 13
M  V30 13 1 13 14
M  V30 14 1 13 15
M  V30 15 1 15 16
M  V30 16 2 16 17
M  V30 17 1 17 18
M  V30 18 2 18 19
M  V30 19 1 19 20
M  V30 20 2 20 21
M  V30 21 1 10 22
M  V30 22 2 22 23
M  V30 23 1 23 24
M  V30 24 2 24 25
M  V30 25 1 25 26
M  V30 26 2 26 27
M  V30 27 1 27 28
M  V30 28 2 28 29
M  V30 29 1 29 30
M  V30 30 1 23 31
M  V30 31 2 31 32
M  V30 32 1 32 6
M  V30 33 1 32 9
M  V30 34 1 21 16
M  V30 35 1 29 24
M  V30 36 1 1 33
M  V30 37 1 1 34
M  V30 38 1 1 35
M  V30 39 1 2 36 CFG=3
M  V30 40 1 3 37
M  V30 41 1 7 38
M  V30 42 1 11 39
M  V30 43 1 12 40
M  V30 44 1 12 41
M  V30 45 1 13 42 CFG=3
M  V30 46 1 14 43
M  V30 47 1 14 44
M  V30 48 1 15 45
M  V30 49 1 15 46
M  V30 50 1 17 47
M  V30 51 1 18 48
M  V30 52 1 19 49
M  V30 53 1 20 50
M  V30 54 1 21 51
M  V30 55 1 25 52
M  V30 56 1 26 53
M  V30 57 1 28 54
M  V30 END BOND
M  V30 END CTAB
M  END
>  <Dataset>  (969) 
ChEMBL_Kinases

>  <Ligand_Instance>  (969) 
nan

>  <PDB_ID>  (969) 
nan

>  <Standardized_SMILES>  (969) 
C[C@H](O)C#Cc1csc2c(NC[C@@H](N)Cc3ccccc3)nc(-c3ccncc3F)nc12

>  <Name>  (969) 
nan

>  <Pocket>  (969) 
nan

>  <ATP_Site>  (969) 
nan

>  <Peripheral>  (969) 
nan

>  <Num_H_Atoms_ProtBoundConf>  (969) 
nan

>  <Num_Resolved_Atoms>  (969) 
nan

>  <Num_Not_Resolved_Atoms>  (969) 
nan

$$$$
CHEMBL523991
     RDKit          3D

  0  0  0  0  0  0  0  0  0  0999 V3000
M  V30 BEGIN CTAB
M  V30 COUNTS 49 52 0 0 0
M  V30 BEGIN ATOM
M  V30 1 O -0.040736 -5.465797 1.561155 0
M  V30 2 C -1.046198 -4.755243 1.293347 0
M  V30 3 N -0.853426 -3.577004 0.557908 0
M  V30 4 C 0.136943 -2.776285 -0.077333 0
M  V30 5 C 0.764536 -1.830041 0.745300 0
M  V30 6 C 1.742806 -1.017012 0.153570 0
M  V30 7 C 2.048597 -1.168400 -1.183116 0
M  V30 8 N 3.075032 -0.205259 -1.514006 0
M  V30 9 C 2.387946 0.958390 -2.020827 0
M  V30 10 N 1.950844 1.757683 -1.047105 0
M  V30 11 C 1.284936 2.899952 -1.183625 0
M  V30 12 N 0.799655 3.763036 -0.167908 0
M  V30 13 C 0.947232 3.581677 1.230367 0
M  V30 14 C 0.252123 4.398026 2.124188 0
M  V30 15 C 0.357633 4.261673 3.490837 0
M  V30 16 C 1.165001 3.301082 4.049355 0
M  V30 17 O 1.309356 3.118082 5.410859 0
M  V30 18 C 1.865055 2.479856 3.209416 0
M  V30 19 C 1.731571 2.649350 1.844685 0
M  V30 20 N 1.069081 3.214182 -2.469838 0
M  V30 21 C 1.453861 2.502833 -3.514076 0
M  V30 22 C 2.130810 1.343043 -3.321472 0
M  V30 23 F 2.615321 0.464042 -4.238987 0
M  V30 24 C 1.426857 -2.102003 -1.984439 0
M  V30 25 C 0.464698 -2.903583 -1.407717 0
M  V30 26 C -2.448171 -5.035273 1.682390 0
M  V30 27 C -2.678164 -5.029422 3.036020 0
M  V30 28 C -3.977611 -5.281294 3.471403 0
M  V30 29 C -5.000181 -5.529182 2.564309 0
M  V30 30 C -4.740618 -5.529942 1.187762 0
M  V30 31 C -3.442776 -5.277855 0.756453 0
M  V30 32 Cl -3.009066 -5.258591 -0.960440 0
M  V30 33 H -1.672014 -2.943468 0.305177 0
M  V30 34 H 0.481431 -1.751477 1.796874 0
M  V30 35 H 2.165368 -0.329623 0.874174 0
M  V30 36 H 4.060335 -0.448839 -1.362405 0
M  V30 37 H 0.279048 4.623100 -0.469715 0
M  V30 38 H -0.399624 5.173030 1.720170 0
M  V30 39 H -0.199287 4.915630 4.149163 0
M  V30 40 H 2.031258 3.555812 5.947039 0
M  V30 41 H 2.509512 1.713708 3.620085 0
M  V30 42 H 2.308652 1.985019 1.244443 0
M  V30 43 H 1.277544 2.763552 -4.541225 0
M  V30 44 H 1.772077 -2.098280 -2.996562 0
M  V30 45 H -0.011314 -3.622694 -2.031230 0
M  V30 46 H -1.964917 -4.850671 3.820578 0
M  V30 47 H -4.254884 -5.296187 4.533041 0
M  V30 48 H -6.020338 -5.727286 2.898689 0
M  V30 49 H -5.512895 -5.719499 0.458874 0
M  V30 END ATOM
M  V30 BEGIN BOND
M  V30 1 2 1 2
M  V30 2 1 2 3
M  V30 3 1 3 4
M  V30 4 2 4 5
M  V30 5 1 5 6
M  V30 6 2 6 7
M  V30 7 1 7 8
M  V30 8 1 8 9
M  V30 9 2 9 10
M  V30 10 1 10 11
M  V30 11 1 11 12
M  V30 12 1 12 13
M  V30 13 2 13 14
M  V30 14 1 14 15
M  V30 15 2 15 16
M  V30 16 1 16 17
M  V30 17 1 16 18
M  V30 18 2 18 19
M  V30 19 2 11 20
M  V30 20 1 20 21
M  V30 21 2 21 22
M  V30 22 1 22 23
M  V30 23 1 7 24
M  V30 24 2 24 25
M  V30 25 1 2 26
M  V30 26 2 26 27
M  V30 27 1 27 28
M  V30 28 2 28 29
M  V30 29 1 29 30
M  V30 30 2 30 31
M  V30 31 1 31 32
M  V30 32 1 25 4
M  V30 33 1 31 26
M  V30 34 1 22 9
M  V30 35 1 19 13
M  V30 36 1 3 33
M  V30 37 1 5 34
M  V30 38 1 6 35
M  V30 39 1 8 36
M  V30 40 1 12 37
M  V30 41 1 14 38
M  V30 42 1 15 39
M  V30 43 1 17 40
M  V30 44 1 18 41
M  V30 45 1 19 42
M  V30 46 1 21 43
M  V30 47 1 24 44
M  V30 48 1 25 45
M  V30 49 1 27 46
M  V30 50 1 28 47
M  V30 51 1 29 48
M  V30 52 1 30 49
M  V30 END BOND
M  V30 END CTAB
M  END
>  <Dataset>  (970) 
ChEMBL_Kinases

>  <Ligand_Instance>  (970) 
nan

>  <PDB_ID>  (970) 
nan

>  <Standardized_SMILES>  (970) 
O=C(Nc1ccc(Nc2nc(Nc3ccc(O)cc3)ncc2F)cc1)c1ccccc1Cl

>  <Name>  (970) 
nan

>  <Pocket>  (970) 
nan

>  <ATP_Site>  (970) 
nan

>  <Peripheral>  (970) 
nan

>  <Num_H_Atoms_ProtBoundConf>  (970) 
nan

>  <Num_Resolved_Atoms>  (970) 
nan

>  <Num_Not_Resolved_Atoms>  (970) 
nan

$$$$
CHEMBL3729232
     RDKit          3D

  0  0  0  0  0  0  0  0  0  0999 V3000
M  V30 BEGIN CTAB
M  V30 COUNTS 35 39 0 0 0
M  V30 BEGIN ATOM
M  V30 1 C 0.282058 -4.435277 3.624750 0
M  V30 2 C 1.387311 -5.124509 3.169556 0
M  V30 3 N 2.234265 -4.669158 2.228741 0
M  V30 4 C 2.041931 -3.451597 1.647350 0
M  V30 5 C 2.902937 -2.964238 0.676787 0
M  V30 6 C 2.666749 -1.706827 0.106568 0
M  V30 7 C 1.572535 -0.960051 0.518579 0
M  V30 8 C 1.297138 0.354425 -0.054674 0
M  V30 9 C 2.369972 1.152173 -0.468644 0
M  V30 10 C 2.046291 2.383840 -1.001800 0
M  V30 11 C 0.738185 2.806091 -1.120460 0
M  V30 12 N 0.151436 3.921139 -1.587020 0
M  V30 13 N -1.149707 3.807002 -1.466096 0
M  V30 14 C -1.490788 2.607612 -0.912164 0
M  V30 15 C -2.825826 2.085942 -0.607900 0
M  V30 16 C -3.960486 2.831098 -0.880878 0
M  V30 17 S -5.317373 1.721784 -0.312889 0
M  V30 18 C -4.050177 0.404708 0.208909 0
M  V30 19 N -3.079055 0.906947 -0.067262 0
M  V30 20 N -0.275503 2.053933 -0.730058 0
M  V30 21 C 0.006718 0.828128 -0.197299 0
M  V30 22 C 0.697717 -1.444158 1.497940 0
M  V30 23 C 0.946131 -2.680841 2.046139 0
M  V30 24 C 0.098550 -3.205661 3.029104 0
M  V30 25 H -0.387161 -4.813768 4.379453 0
M  V30 26 H 1.572758 -6.113076 3.619106 0
M  V30 27 H 3.739565 -3.573613 0.385005 0
M  V30 28 H 3.331266 -1.330226 -0.643330 0
M  V30 29 H 3.394794 0.824821 -0.376982 0
M  V30 30 H 2.828608 3.060991 -1.346955 0
M  V30 31 H -4.020929 3.809787 -1.314995 0
M  V30 32 H -4.201354 -0.619468 0.674913 0
M  V30 33 H -0.759795 0.147989 0.147206 0
M  V30 34 H -0.152775 -0.904669 1.843228 0
M  V30 35 H -0.741823 -2.582728 3.315363 0
M  V30 END ATOM
M  V30 BEGIN BOND
M  V30 1 2 1 2
M  V30 2 1 2 3
M  V30 3 2 3 4
M  V30 4 1 4 5
M  V30 5 2 5 6
M  V30 6 1 6 7
M  V30 7 1 7 8
M  V30 8 1 8 9
M  V30 9 2 9 10
M  V30 10 1 10 11
M  V30 11 2 11 12
M  V30 12 1 12 13
M  V30 13 2 13 14
M  V30 14 1 14 15
M  V30 15 2 15 16
M  V30 16 1 16 17
M  V30 17 1 17 18
M  V30 18 2 18 19
M  V30 19 1 14 20
M  V30 20 1 20 21
M  V30 21 2 7 22
M  V30 22 1 22 23
M  V30 23 2 23 24
M  V30 24 1 24 1
M  V30 25 1 23 4
M  V30 26 2 21 8
M  V30 27 1 20 11
M  V30 28 1 19 15
M  V30 29 1 1 25
M  V30 30 1 2 26
M  V30 31 1 5 27
M  V30 32 1 6 28
M  V30 33 1 9 29
M  V30 34 1 10 30
M  V30 35 1 16 31
M  V30 36 1 18 32
M  V30 37 1 21 33
M  V30 38 1 22 34
M  V30 39 1 24 35
M  V30 END BOND
M  V30 END CTAB
M  END
>  <Dataset>  (971) 
ChEMBL_Kinases

>  <Ligand_Instance>  (971) 
nan

>  <PDB_ID>  (971) 
nan

>  <Standardized_SMILES>  (971) 
c1cnc2ccc(-c3ccc4nnc(-c5cscn5)n4c3)cc2c1

>  <Name>  (971) 
nan

>  <Pocket>  (971) 
nan

>  <ATP_Site>  (971) 
nan

>  <Peripheral>  (971) 
nan

>  <Num_H_Atoms_ProtBoundConf>  (971) 
nan

>  <Num_Resolved_Atoms>  (971) 
nan

>  <Num_Not_Resolved_Atoms>  (971) 
nan

$$$$
CHEMBL3729218
     RDKit          3D

  0  0  0  0  0  0  0  0  0  0999 V3000
M  V30 BEGIN CTAB
M  V30 COUNTS 51 54 0 0 0
M  V30 BEGIN ATOM
M  V30 1 C -3.970360 1.802231 1.051324 0
M  V30 2 C -2.654390 1.261471 0.954559 0
M  V30 3 S -1.124573 2.322831 0.579887 0
M  V30 4 C 0.017557 0.910004 0.642275 0
M  V30 5 C 1.387595 0.917612 0.453005 0
M  V30 6 N 2.006250 2.141442 0.178211 0
M  V30 7 C 3.441014 2.108084 -0.013611 0 CFG=2
M  V30 8 C 3.997977 3.491451 -0.304675 0
M  V30 9 C 5.293053 3.158958 -1.005060 0
M  V30 10 N 5.200707 1.824830 -1.508659 0
M  V30 11 C 3.834717 1.377372 -1.290904 0
M  V30 12 N 2.033856 -0.255097 0.546208 0
M  V30 13 C 1.267523 -1.352847 0.821712 0
M  V30 14 C 1.865160 -2.701629 0.948887 0
M  V30 15 C 3.228856 -2.766737 0.771739 0
M  V30 16 C 3.866236 -3.984027 0.873041 0
M  V30 17 N 3.153230 -5.079482 1.140864 0
M  V30 18 C 1.820060 -5.045880 1.318708 0
M  V30 19 C 1.140293 -3.840780 1.225117 0
M  V30 20 N -0.060642 -1.310117 0.997425 0
M  V30 21 C -0.769752 -0.173079 0.918384 0
M  V30 22 C -2.116977 -0.025359 1.080416 0
M  V30 23 C -3.055641 -1.071705 1.371583 0
M  V30 24 C -3.842588 -1.981069 1.620885 0
M  V30 25 C -4.770688 -3.069391 1.905499 0
M  V30 26 C -6.077629 -2.434253 2.307207 0
M  V30 27 C -4.955771 -3.980150 0.694210 0
M  V30 28 O -4.306973 -3.875094 2.950000 0
M  V30 29 H -3.913957 2.891214 1.256132 0
M  V30 30 H -4.473445 1.380465 1.966754 0
M  V30 31 H -4.610494 1.655613 0.170446 0
M  V30 32 H 1.503412 3.030030 0.109402 0
M  V30 33 H 3.958393 1.640414 0.850307 0
M  V30 34 H 3.256407 3.963570 -0.993190 0
M  V30 35 H 4.132847 4.036261 0.633982 0
M  V30 36 H 5.479166 3.900800 -1.813055 0
M  V30 37 H 6.099767 3.304327 -0.246519 0
M  V30 38 H 5.484092 1.798769 -2.508950 0
M  V30 39 H 3.191613 1.699180 -2.125361 0
M  V30 40 H 3.870661 0.288393 -1.152424 0
M  V30 41 H 3.843351 -1.889439 0.551284 0
M  V30 42 H 4.938346 -4.022959 0.731869 0
M  V30 43 H 1.195453 -5.901771 1.537234 0
M  V30 44 H 0.069669 -3.731323 1.355145 0
M  V30 45 H -6.581890 -2.965619 3.148143 0
M  V30 46 H -5.974085 -1.380213 2.641601 0
M  V30 47 H -6.775139 -2.477597 1.460610 0
M  V30 48 H -5.874573 -4.558691 0.783243 0
M  V30 49 H -4.084945 -4.657015 0.607860 0
M  V30 50 H -4.940805 -3.324232 -0.222258 0
M  V30 51 H -3.394238 -4.176473 2.754171 0
M  V30 END ATOM
M  V30 BEGIN BOND
M  V30 1 1 1 2
M  V30 2 1 2 3
M  V30 3 1 3 4
M  V30 4 2 4 5
M  V30 5 1 5 6
M  V30 6 1 6 7
M  V30 7 1 7 8
M  V30 8 1 8 9
M  V30 9 1 9 10
M  V30 10 1 10 11
M  V30 11 1 5 12
M  V30 12 2 12 13
M  V30 13 1 13 14
M  V30 14 2 14 15
M  V30 15 1 15 16
M  V30 16 2 16 17
M  V30 17 1 17 18
M  V30 18 2 18 19
M  V30 19 1 13 20
M  V30 20 2 20 21
M  V30 21 1 21 22
M  V30 22 1 22 23
M  V30 23 3 23 24
M  V30 24 1 24 25
M  V30 25 1 25 26
M  V30 26 1 25 27
M  V30 27 1 25 28
M  V30 28 2 22 2
M  V30 29 1 21 4
M  V30 30 1 11 7
M  V30 31 1 19 14
M  V30 32 1 1 29
M  V30 33 1 1 30
M  V30 34 1 1 31
M  V30 35 1 6 32
M  V30 36 1 7 33 CFG=1
M  V30 37 1 8 34
M  V30 38 1 8 35
M  V30 39 1 9 36
M  V30 40 1 9 37
M  V30 41 1 10 38
M  V30 42 1 11 39
M  V30 43 1 11 40
M  V30 44 1 15 41
M  V30 45 1 16 42
M  V30 46 1 18 43
M  V30 47 1 19 44
M  V30 48 1 26 45
M  V30 49 1 26 46
M  V30 50 1 26 47
M  V30 51 1 27 48
M  V30 52 1 27 49
M  V30 53 1 27 50
M  V30 54 1 28 51
M  V30 END BOND
M  V30 END CTAB
M  END
>  <Dataset>  (972) 
ChEMBL_Kinases

>  <Ligand_Instance>  (972) 
nan

>  <PDB_ID>  (972) 
nan

>  <Standardized_SMILES>  (972) 
Cc1sc2c(N[C@@H]3CCNC3)nc(-c3ccncc3)nc2c1C#CC(C)(C)O

>  <Name>  (972) 
nan

>  <Pocket>  (972) 
nan

>  <ATP_Site>  (972) 
nan

>  <Peripheral>  (972) 
nan

>  <Num_H_Atoms_ProtBoundConf>  (972) 
nan

>  <Num_Resolved_Atoms>  (972) 
nan

>  <Num_Not_Resolved_Atoms>  (972) 
nan

$$$$
CHEMBL574058
     RDKit          3D

  0  0  0  0  0  0  0  0  0  0999 V3000
M  V30 BEGIN CTAB
M  V30 COUNTS 44 47 0 0 0
M  V30 BEGIN ATOM
M  V30 1 C -3.138908 -3.815988 1.932660 0
M  V30 2 C -1.960297 -4.574695 1.497839 0
M  V30 3 C -0.718886 -4.018351 1.324594 0
M  V30 4 C 0.434795 -4.659692 0.920241 0
M  V30 5 N 1.668243 -3.962048 0.778567 0
M  V30 6 C 1.654133 -2.568972 1.074663 0
M  V30 7 N 1.895361 -2.037993 2.300351 0
M  V30 8 C 1.865857 -0.707926 2.510650 0
M  V30 9 C 1.579567 0.146988 1.439463 0
M  V30 10 C 1.540661 1.516682 1.617575 0
M  V30 11 C 1.250907 2.343713 0.523549 0
M  V30 12 C 1.193131 3.798844 0.638483 0
M  V30 13 C 2.297439 4.635845 0.447978 0
M  V30 14 Cl 3.813768 3.898621 0.054306 0
M  V30 15 C 2.120544 6.014042 0.584390 0
M  V30 16 C 0.890836 6.557182 0.899827 0
M  V30 17 C -0.218603 5.752123 1.093727 0
M  V30 18 C -0.023703 4.377705 0.953517 0
M  V30 19 Cl -1.429976 3.342745 1.198286 0
M  V30 20 C 1.018262 1.720456 -0.687251 0
M  V30 21 O 0.751180 2.421681 -1.711459 0
M  V30 22 N 1.051595 0.388145 -0.880853 0
M  V30 23 C 0.801993 -0.224405 -2.165407 0
M  V30 24 C 1.331991 -0.399588 0.181091 0
M  V30 25 N 1.378063 -1.741136 0.042595 0
M  V30 26 C 0.295609 -6.010654 0.668955 0
M  V30 27 C -0.924383 -6.650617 0.819628 0
M  V30 28 C -2.051802 -5.945752 1.231192 0
M  V30 29 F -3.229473 -6.599207 1.369150 0
M  V30 30 H -3.337455 -2.992439 1.212449 0
M  V30 31 H -4.033454 -4.475986 1.877573 0
M  V30 32 H -3.033814 -3.383648 2.945972 0
M  V30 33 H -0.657538 -2.946712 1.535379 0
M  V30 34 H 2.498655 -4.518795 0.467430 0
M  V30 35 H 2.057450 -0.291395 3.482807 0
M  V30 36 H 1.729216 1.969752 2.585474 0
M  V30 37 H 3.004995 6.622614 0.427487 0
M  V30 38 H 0.770587 7.635711 1.002479 0
M  V30 39 H -1.204433 6.125424 1.342255 0
M  V30 40 H 0.967570 0.510226 -3.001173 0
M  V30 41 H -0.221981 -0.601670 -2.289813 0
M  V30 42 H 1.516235 -1.068011 -2.328474 0
M  V30 43 H 1.195389 -6.543904 0.346636 0
M  V30 44 H -0.991439 -7.709731 0.612800 0
M  V30 END ATOM
M  V30 BEGIN BOND
M  V30 1 1 1 2
M  V30 2 2 2 3
M  V30 3 1 3 4
M  V30 4 1 4 5
M  V30 5 1 5 6
M  V30 6 2 6 7
M  V30 7 1 7 8
M  V30 8 2 8 9
M  V30 9 1 9 10
M  V30 10 2 10 11
M  V30 11 1 11 12
M  V30 12 2 12 13
M  V30 13 1 13 14
M  V30 14 1 13 15
M  V30 15 2 15 16
M  V30 16 1 16 17
M  V30 17 2 17 18
M  V30 18 1 18 19
M  V30 19 1 11 20
M  V30 20 2 20 21
M  V30 21 1 20 22
M  V30 22 1 22 23
M  V30 23 1 22 24
M  V30 24 2 24 25
M  V30 25 2 4 26
M  V30 26 1 26 27
M  V30 27 2 27 28
M  V30 28 1 28 29
M  V30 29 1 28 2
M  V30 30 1 25 6
M  V30 31 1 24 9
M  V30 32 1 18 12
M  V30 33 1 1 30
M  V30 34 1 1 31
M  V30 35 1 1 32
M  V30 36 1 3 33
M  V30 37 1 5 34
M  V30 38 1 8 35
M  V30 39 1 10 36
M  V30 40 1 15 37
M  V30 41 1 16 38
M  V30 42 1 17 39
M  V30 43 1 23 40
M  V30 44 1 23 41
M  V30 45 1 23 42
M  V30 46 1 26 43
M  V30 47 1 27 44
M  V30 END BOND
M  V30 END CTAB
M  END
>  <Dataset>  (973) 
ChEMBL_Kinases

>  <Ligand_Instance>  (973) 
nan

>  <PDB_ID>  (973) 
nan

>  <Standardized_SMILES>  (973) 
Cc1cc(Nc2ncc3cc(-c4c(Cl)cccc4Cl)c(=O)n(C)c3n2)ccc1F

>  <Name>  (973) 
nan

>  <Pocket>  (973) 
nan

>  <ATP_Site>  (973) 
nan

>  <Peripheral>  (973) 
nan

>  <Num_H_Atoms_ProtBoundConf>  (973) 
nan

>  <Num_Resolved_Atoms>  (973) 
nan

>  <Num_Not_Resolved_Atoms>  (973) 
nan

$$$$
CHEMBL3729318
     RDKit          3D

  0  0  0  0  0  0  0  0  0  0999 V3000
M  V30 BEGIN CTAB
M  V30 COUNTS 58 62 0 0 0
M  V30 BEGIN ATOM
M  V30 1 C 2.743827 -2.392662 6.551396 0
M  V30 2 O 1.976410 -2.524489 5.372275 0
M  V30 3 C 2.319040 -1.914158 4.174091 0
M  V30 4 C 1.403157 -2.196140 3.156744 0
M  V30 5 C 1.633263 -1.641260 1.898708 0
M  V30 6 C 2.726699 -0.834553 1.643347 0
M  V30 7 C 2.972052 -0.244589 0.307536 0
M  V30 8 C 2.343813 1.090680 0.118715 0 CFG=2
M  V30 9 N 2.812780 2.081331 1.061615 0
M  V30 10 C 0.832808 1.040959 0.102872 0
M  V30 11 O 0.337162 0.083117 -0.807673 0
M  V30 12 C -1.033004 -0.065627 -0.921396 0
M  V30 13 N -1.854901 0.686784 -0.180059 0
M  V30 14 C -3.177621 0.670646 -0.167191 0
M  V30 15 C -4.002727 1.524651 0.671902 0
M  V30 16 C -3.403160 2.424164 1.524054 0
M  V30 17 C -4.196558 3.245873 2.331379 0
M  V30 18 N -5.539816 3.164593 2.282136 0
M  V30 19 C -6.103783 2.269429 1.433395 0
M  V30 20 C -5.368105 1.436356 0.616388 0
M  V30 21 N -3.728136 -0.219169 -1.011222 0
M  V30 22 C -2.969078 -1.017014 -1.794914 0
M  V30 23 S -3.428952 -2.233966 -2.955415 0
M  V30 24 C -1.739215 -2.683173 -3.423652 0
M  V30 25 C -0.931100 -1.824761 -2.615569 0
M  V30 26 C -1.612455 -0.984199 -1.792485 0
M  V30 27 C 0.501719 -2.094562 -2.908040 0
M  V30 28 C 0.724912 -3.576308 -2.572572 0
M  V30 29 C 0.018357 -4.424330 -3.608848 0
M  V30 30 C -1.036225 -3.635732 -4.351219 0
M  V30 31 C 3.621604 -0.570759 2.674047 0
M  V30 32 C 3.408412 -1.112250 3.925286 0
M  V30 33 H 2.379389 -1.537914 7.155506 0
M  V30 34 H 2.568810 -3.338942 7.127477 0
M  V30 35 H 3.803016 -2.331919 6.273441 0
M  V30 36 H 0.510703 -2.823544 3.268182 0
M  V30 37 H 0.918915 -1.856856 1.091630 0
M  V30 38 H 2.568560 -0.945856 -0.450146 0
M  V30 39 H 4.069270 -0.114470 0.114853 0
M  V30 40 H 2.651026 1.449008 -0.892882 0
M  V30 41 H 3.794757 2.347851 0.908688 0
M  V30 42 H 2.141743 2.855214 1.201294 0
M  V30 43 H 0.404796 2.020485 -0.192358 0
M  V30 44 H 0.413294 0.799626 1.099632 0
M  V30 45 H -2.323637 2.478335 1.552900 0
M  V30 46 H -3.659425 3.937595 2.985035 0
M  V30 47 H -7.195822 2.203545 1.393548 0
M  V30 48 H -5.854730 0.727597 -0.054734 0
M  V30 49 H 1.179818 -1.467714 -2.335956 0
M  V30 50 H 0.674510 -2.035411 -4.015320 0
M  V30 51 H 0.288960 -3.698929 -1.559310 0
M  V30 52 H 1.796627 -3.825396 -2.504025 0
M  V30 53 H -0.474563 -5.270792 -3.099648 0
M  V30 54 H 0.714800 -4.824366 -4.346309 0
M  V30 55 H -1.773859 -4.374205 -4.712064 0
M  V30 56 H -0.670084 -3.042490 -5.185782 0
M  V30 57 H 4.497282 0.049676 2.549555 0
M  V30 58 H 4.069274 -0.946861 4.778424 0
M  V30 END ATOM
M  V30 BEGIN BOND
M  V30 1 1 1 2
M  V30 2 1 2 3
M  V30 3 2 3 4
M  V30 4 1 4 5
M  V30 5 2 5 6
M  V30 6 1 6 7
M  V30 7 1 7 8
M  V30 8 1 8 9
M  V30 9 1 8 10
M  V30 10 1 10 11
M  V30 11 1 11 12
M  V30 12 2 12 13
M  V30 13 1 13 14
M  V30 14 1 14 15
M  V30 15 2 15 16
M  V30 16 1 16 17
M  V30 17 2 17 18
M  V30 18 1 18 19
M  V30 19 2 19 20
M  V30 20 2 14 21
M  V30 21 1 21 22
M  V30 22 1 22 23
M  V30 23 1 23 24
M  V30 24 2 24 25
M  V30 25 1 25 26
M  V30 26 1 25 27
M  V30 27 1 27 28
M  V30 28 1 28 29
M  V30 29 1 29 30
M  V30 30 1 6 31
M  V30 31 2 31 32
M  V30 32 1 32 3
M  V30 33 1 26 12
M  V30 34 1 20 15
M  V30 35 2 26 22
M  V30 36 1 30 24
M  V30 37 1 1 33
M  V30 38 1 1 34
M  V30 39 1 1 35
M  V30 40 1 4 36
M  V30 41 1 5 37
M  V30 42 1 7 38
M  V30 43 1 7 39
M  V30 44 1 8 40 CFG=3
M  V30 45 1 9 41
M  V30 46 1 9 42
M  V30 47 1 10 43
M  V30 48 1 10 44
M  V30 49 1 16 45
M  V30 50 1 17 46
M  V30 51 1 19 47
M  V30 52 1 20 48
M  V30 53 1 27 49
M  V30 54 1 27 50
M  V30 55 1 28 51
M  V30 56 1 28 52
M  V30 57 1 29 53
M  V30 58 1 29 54
M  V30 59 1 30 55
M  V30 60 1 30 56
M  V30 61 1 31 57
M  V30 62 1 32 58
M  V30 END BOND
M  V30 END CTAB
M  END
>  <Dataset>  (974) 
ChEMBL_Kinases

>  <Ligand_Instance>  (974) 
nan

>  <PDB_ID>  (974) 
nan

>  <Standardized_SMILES>  (974) 
COc1ccc(C[C@H](N)COc2nc(-c3ccncc3)nc3sc4c(c23)CCCC4)cc1

>  <Name>  (974) 
nan

>  <Pocket>  (974) 
nan

>  <ATP_Site>  (974) 
nan

>  <Peripheral>  (974) 
nan

>  <Num_H_Atoms_ProtBoundConf>  (974) 
nan

>  <Num_Resolved_Atoms>  (974) 
nan

>  <Num_Not_Resolved_Atoms>  (974) 
nan

$$$$
CHEMBL519887
     RDKit          3D

  0  0  0  0  0  0  0  0  0  0999 V3000
M  V30 BEGIN CTAB
M  V30 COUNTS 41 44 0 0 0
M  V30 BEGIN ATOM
M  V30 1 C -1.700225 -3.480560 0.218902 0
M  V30 2 N -0.987908 -2.366348 -0.389366 0
M  V30 3 C -1.774817 -1.830225 -1.465117 0
M  V30 4 C -1.138798 -0.683678 -2.155732 0
M  V30 5 C -0.850101 0.531869 -1.365030 0
M  V30 6 N 0.008410 0.403592 -0.237820 0
M  V30 7 C 1.373045 0.480464 -0.198012 0
M  V30 8 C 2.195094 0.686941 -1.307134 0
M  V30 9 C 3.571985 0.751662 -1.177009 0
M  V30 10 C 4.064136 0.598825 0.113837 0
M  V30 11 O 5.466676 0.667499 0.226964 0
M  V30 12 C 3.215825 0.397366 1.176302 0
M  V30 13 C 1.876570 0.331564 1.069924 0
M  V30 14 C 0.788811 0.153147 1.868472 0
M  V30 15 C 0.712020 -0.035839 3.214152 0
M  V30 16 C -0.517636 -0.186802 3.805040 0
M  V30 17 C -1.692375 -0.152123 3.065537 0
M  V30 18 C -1.566123 0.041219 1.706537 0
M  V30 19 C -0.329130 0.198547 1.070345 0
M  V30 20 C -0.439532 -0.381942 5.259338 0
M  V30 21 O -1.378482 -0.547769 6.079021 0
M  V30 22 N 0.971140 -0.339577 5.534658 0
M  V30 23 C 1.634775 -0.132861 4.303087 0
M  V30 24 O 2.871357 -0.069748 4.354905 0
M  V30 25 H -2.413170 -3.092447 0.987982 0
M  V30 26 H -2.230363 -4.048141 -0.579113 0
M  V30 27 H -0.954438 -4.098206 0.744132 0
M  V30 28 H -0.067360 -2.715043 -0.674400 0
M  V30 29 H -2.826622 -1.656951 -1.174181 0
M  V30 30 H -1.843480 -2.664133 -2.225195 0
M  V30 31 H -0.252919 -1.068952 -2.718979 0
M  V30 32 H -1.855159 -0.375241 -2.977292 0
M  V30 33 H -0.395875 1.280125 -2.080845 0
M  V30 34 H -1.816455 1.034643 -1.060836 0
M  V30 35 H 1.813717 0.804933 -2.304361 0
M  V30 36 H 4.196378 0.909874 -2.029204 0
M  V30 37 H 5.888854 -0.099931 0.713271 0
M  V30 38 H 3.732204 0.300636 2.080783 0
M  V30 39 H -2.671356 -0.268300 3.508316 0
M  V30 40 H -2.428859 0.081656 1.054236 0
M  V30 41 H 1.303022 -0.455795 6.518964 0
M  V30 END ATOM
M  V30 BEGIN BOND
M  V30 1 1 1 2
M  V30 2 1 2 3
M  V30 3 1 3 4
M  V30 4 1 4 5
M  V30 5 1 5 6
M  V30 6 1 6 7
M  V30 7 2 7 8
M  V30 8 1 8 9
M  V30 9 2 9 10
M  V30 10 1 10 11
M  V30 11 1 10 12
M  V30 12 2 12 13
M  V30 13 1 13 14
M  V30 14 2 14 15
M  V30 15 1 15 16
M  V30 16 2 16 17
M  V30 17 1 17 18
M  V30 18 2 18 19
M  V30 19 1 16 20
M  V30 20 2 20 21
M  V30 21 1 20 22
M  V30 22 1 22 23
M  V30 23 2 23 24
M  V30 24 1 19 6
M  V30 25 1 13 7
M  V30 26 1 19 14
M  V30 27 1 23 15
M  V30 28 1 1 25
M  V30 29 1 1 26
M  V30 30 1 1 27
M  V30 31 1 2 28
M  V30 32 1 3 29
M  V30 33 1 3 30
M  V30 34 1 4 31
M  V30 35 1 4 32
M  V30 36 1 5 33
M  V30 37 1 5 34
M  V30 38 1 8 35
M  V30 39 1 9 36
M  V30 40 1 11 37
M  V30 41 1 12 38
M  V30 42 1 17 39
M  V30 43 1 18 40
M  V30 44 1 22 41
M  V30 END BOND
M  V30 END CTAB
M  END
>  <Dataset>  (975) 
ChEMBL_Kinases

>  <Ligand_Instance>  (975) 
nan

>  <PDB_ID>  (975) 
nan

>  <Standardized_SMILES>  (975) 
CNCCCn1c2ccc(O)cc2c2c3c(ccc21)C(=O)NC3=O

>  <Name>  (975) 
nan

>  <Pocket>  (975) 
nan

>  <ATP_Site>  (975) 
nan

>  <Peripheral>  (975) 
nan

>  <Num_H_Atoms_ProtBoundConf>  (975) 
nan

>  <Num_Resolved_Atoms>  (975) 
nan

>  <Num_Not_Resolved_Atoms>  (975) 
nan

$$$$
CHEMBL519891
     RDKit          3D

  0  0  0  0  0  0  0  0  0  0999 V3000
M  V30 BEGIN CTAB
M  V30 COUNTS 51 55 0 0 0
M  V30 BEGIN ATOM
M  V30 1 C 1.880509 -0.514436 4.464529 0
M  V30 2 N 1.855844 -0.949609 3.052104 0
M  V30 3 C 1.823545 -2.420926 3.086956 0
M  V30 4 C 3.018599 -0.480699 2.365540 0
M  V30 5 C 2.905153 -0.743615 0.893099 0
M  V30 6 N 1.760030 -0.019990 0.371761 0
M  V30 7 C 1.847978 1.290889 -0.024945 0
M  V30 8 C 2.964824 2.135236 0.004691 0
M  V30 9 C 2.947241 3.451845 -0.421076 0
M  V30 10 C 1.725758 3.928024 -0.901300 0
M  V30 11 O 1.679142 5.253996 -1.338550 0
M  V30 12 C 0.651608 3.070907 -0.915447 0
M  V30 13 C 0.655193 1.775889 -0.500132 0
M  V30 14 C -0.221382 0.746307 -0.405745 0
M  V30 15 C -1.531001 0.636773 -0.728905 0
M  V30 16 C -2.191011 -0.553401 -0.534210 0
M  V30 17 C -1.511871 -1.650445 -0.004125 0
M  V30 18 C -2.096734 -2.980364 0.221925 0
M  V30 19 C -2.036515 -3.615794 1.423833 0
M  V30 20 C -2.577757 -4.868614 1.606058 0
M  V30 21 C -3.214627 -5.545684 0.563005 0
M  V30 22 C -3.273564 -4.896109 -0.658021 0
M  V30 23 C -2.728852 -3.636909 -0.839518 0
M  V30 24 C -0.180705 -1.506340 0.315130 0
M  V30 25 C 0.476574 -0.314503 0.120853 0
M  V30 26 C -3.590520 -0.502204 -0.920899 0
M  V30 27 O -4.506134 -1.365398 -0.893265 0
M  V30 28 N -3.760524 0.853878 -1.389032 0
M  V30 29 C -2.512700 1.517496 -1.264454 0
M  V30 30 O -2.491222 2.693752 -1.625492 0
M  V30 31 H 0.948324 -0.868131 4.948741 0
M  V30 32 H 1.860971 0.598011 4.507630 0
M  V30 33 H 2.804847 -0.890347 4.909233 0
M  V30 34 H 2.252392 -2.741684 4.041100 0
M  V30 35 H 0.742680 -2.691496 3.110237 0
M  V30 36 H 2.264292 -2.875607 2.205492 0
M  V30 37 H 3.963361 -0.907651 2.775288 0
M  V30 38 H 3.066016 0.643851 2.465636 0
M  V30 39 H 2.850369 -1.811168 0.612409 0
M  V30 40 H 3.821489 -0.360310 0.377990 0
M  V30 41 H 3.950538 1.832254 0.366144 0
M  V30 42 H 3.814570 4.094128 -0.393748 0
M  V30 43 H 1.100380 5.466187 -2.132570 0
M  V30 44 H -0.221041 3.541108 -1.300944 0
M  V30 45 H -1.558353 -3.138871 2.257435 0
M  V30 46 H -2.568178 -5.432810 2.528808 0
M  V30 47 H -3.656866 -6.537388 0.663320 0
M  V30 48 H -3.773959 -5.424738 -1.483652 0
M  V30 49 H -2.825179 -3.242536 -1.827482 0
M  V30 50 H 0.349259 -2.355220 0.712452 0
M  V30 51 H -4.705091 1.185758 -1.743228 0
M  V30 END ATOM
M  V30 BEGIN BOND
M  V30 1 1 1 2
M  V30 2 1 2 3
M  V30 3 1 2 4
M  V30 4 1 4 5
M  V30 5 1 5 6
M  V30 6 1 6 7
M  V30 7 2 7 8
M  V30 8 1 8 9
M  V30 9 2 9 10
M  V30 10 1 10 11
M  V30 11 1 10 12
M  V30 12 2 12 13
M  V30 13 1 13 14
M  V30 14 2 14 15
M  V30 15 1 15 16
M  V30 16 2 16 17
M  V30 17 1 17 18
M  V30 18 2 18 19
M  V30 19 1 19 20
M  V30 20 2 20 21
M  V30 21 1 21 22
M  V30 22 2 22 23
M  V30 23 1 17 24
M  V30 24 2 24 25
M  V30 25 1 16 26
M  V30 26 2 26 27
M  V30 27 1 26 28
M  V30 28 1 28 29
M  V30 29 2 29 30
M  V30 30 1 25 6
M  V30 31 1 13 7
M  V30 32 1 25 14
M  V30 33 1 29 15
M  V30 34 1 23 18
M  V30 35 1 1 31
M  V30 36 1 1 32
M  V30 37 1 1 33
M  V30 38 1 3 34
M  V30 39 1 3 35
M  V30 40 1 3 36
M  V30 41 1 4 37
M  V30 42 1 4 38
M  V30 43 1 5 39
M  V30 44 1 5 40
M  V30 45 1 8 41
M  V30 46 1 9 42
M  V30 47 1 11 43
M  V30 48 1 12 44
M  V30 49 1 19 45
M  V30 50 1 20 46
M  V30 51 1 21 47
M  V30 52 1 22 48
M  V30 53 1 23 49
M  V30 54 1 24 50
M  V30 55 1 28 51
M  V30 END BOND
M  V30 END CTAB
M  END
>  <Dataset>  (976) 
ChEMBL_Kinases

>  <Ligand_Instance>  (976) 
nan

>  <PDB_ID>  (976) 
nan

>  <Standardized_SMILES>  (976) 
CN(C)CCn1c2ccc(O)cc2c2c3c(c(-c4ccccc4)cc21)C(=O)NC3=O

>  <Name>  (976) 
nan

>  <Pocket>  (976) 
nan

>  <ATP_Site>  (976) 
nan

>  <Peripheral>  (976) 
nan

>  <Num_H_Atoms_ProtBoundConf>  (976) 
nan

>  <Num_Resolved_Atoms>  (976) 
nan

>  <Num_Not_Resolved_Atoms>  (976) 
nan

$$$$
CHEMBL5199076
     RDKit          3D

  0  0  0  0  0  0  0  0  0  0999 V3000
M  V30 BEGIN CTAB
M  V30 COUNTS 44 46 0 0 0
M  V30 BEGIN ATOM
M  V30 1 C 0.916700 -5.014357 -0.415480 0
M  V30 2 C 0.738029 -3.568401 -0.092005 0
M  V30 3 C 1.831103 -2.890619 0.415303 0
M  V30 4 C 1.701628 -1.550499 0.726021 0
M  V30 5 C 2.588945 -0.633998 1.233460 0
M  V30 6 C 3.972126 -0.840960 1.597484 0
M  V30 7 N 4.596598 -2.109572 1.455041 0
M  V30 8 O 4.656510 0.112825 2.053326 0
M  V30 9 C 1.901627 0.557544 1.336789 0
M  V30 10 N 2.471271 1.761178 1.823175 0
M  V30 11 N 0.634182 0.381421 0.907744 0
M  V30 12 C -0.415924 1.368295 0.848004 0
M  V30 13 C -0.310441 2.522572 0.062993 0
M  V30 14 C 0.928909 2.713857 -0.722266 0
M  V30 15 C -1.334490 3.446315 0.029126 0
M  V30 16 C -2.495161 3.254968 0.772236 0
M  V30 17 C -2.603865 2.106467 1.555327 0
M  V30 18 O -3.776428 1.957762 2.277903 0
M  V30 19 C -1.574747 1.159711 1.601000 0
M  V30 20 C -1.775340 -0.027138 2.457567 0
M  V30 21 C 0.478328 -0.917670 0.521500 0
M  V30 22 N -0.569340 -1.606703 0.024979 0
M  V30 23 C -0.467496 -2.922204 -0.287664 0
M  V30 24 C -1.613246 -3.696316 -0.836051 0
M  V30 25 H 1.693999 -5.481271 0.238451 0
M  V30 26 H -0.036221 -5.539896 -0.152586 0
M  V30 27 H 1.244407 -5.189751 -1.454328 0
M  V30 28 H 2.767708 -3.426635 0.558455 0
M  V30 29 H 5.113058 -2.000045 0.534443 0
M  V30 30 H 4.730184 -3.049377 1.887693 0
M  V30 31 H 3.245656 2.144322 1.238592 0
M  V30 32 H 2.151563 2.238471 2.696299 0
M  V30 33 H 1.540997 3.477371 -0.184244 0
M  V30 34 H 0.675129 3.099474 -1.712468 0
M  V30 35 H 1.487685 1.777330 -0.817314 0
M  V30 36 H -1.199141 4.323559 -0.597068 0
M  V30 37 H -3.291218 3.986956 0.737141 0
M  V30 38 H -3.826305 1.963068 3.283603 0
M  V30 39 H -0.837227 -0.531582 2.746678 0
M  V30 40 H -2.306616 0.214137 3.415182 0
M  V30 41 H -2.479341 -0.697432 1.897722 0
M  V30 42 H -2.221535 -4.014021 0.056712 0
M  V30 43 H -1.261139 -4.541868 -1.443106 0
M  V30 44 H -2.273233 -2.988107 -1.397782 0
M  V30 END ATOM
M  V30 BEGIN BOND
M  V30 1 1 1 2
M  V30 2 2 2 3
M  V30 3 1 3 4
M  V30 4 1 4 5
M  V30 5 1 5 6
M  V30 6 1 6 7
M  V30 7 2 6 8
M  V30 8 2 5 9
M  V30 9 1 9 10
M  V30 10 1 9 11
M  V30 11 1 11 12
M  V30 12 2 12 13
M  V30 13 1 13 14
M  V30 14 1 13 15
M  V30 15 2 15 16
M  V30 16 1 16 17
M  V30 17 1 17 18
M  V30 18 2 17 19
M  V30 19 1 19 20
M  V30 20 1 11 21
M  V30 21 1 21 22
M  V30 22 2 22 23
M  V30 23 1 23 24
M  V30 24 1 23 2
M  V30 25 2 21 4
M  V30 26 1 19 12
M  V30 27 1 1 25
M  V30 28 1 1 26
M  V30 29 1 1 27
M  V30 30 1 3 28
M  V30 31 1 7 29
M  V30 32 1 7 30
M  V30 33 1 10 31
M  V30 34 1 10 32
M  V30 35 1 14 33
M  V30 36 1 14 34
M  V30 37 1 14 35
M  V30 38 1 15 36
M  V30 39 1 16 37
M  V30 40 1 18 38
M  V30 41 1 20 39
M  V30 42 1 20 40
M  V30 43 1 20 41
M  V30 44 1 24 42
M  V30 45 1 24 43
M  V30 46 1 24 44
M  V30 END BOND
M  V30 END CTAB
M  END
>  <Dataset>  (977) 
ChEMBL_Kinases

>  <Ligand_Instance>  (977) 
nan

>  <PDB_ID>  (977) 
nan

>  <Standardized_SMILES>  (977) 
Cc1cc2c(C(N)=O)c(N)n(-c3c(C)ccc(O)c3C)c2nc1C

>  <Name>  (977) 
LUNRESERTIB

>  <Pocket>  (977) 
nan

>  <ATP_Site>  (977) 
nan

>  <Peripheral>  (977) 
nan

>  <Num_H_Atoms_ProtBoundConf>  (977) 
nan

>  <Num_Resolved_Atoms>  (977) 
nan

>  <Num_Not_Resolved_Atoms>  (977) 
nan

$$$$
CHEMBL519939
     RDKit          3D

  0  0  0  0  0  0  0  0  0  0999 V3000
M  V30 BEGIN CTAB
M  V30 COUNTS 42 45 0 0 0
M  V30 BEGIN ATOM
M  V30 1 C 4.042612 -4.957890 4.196057 0
M  V30 2 C 3.302981 -3.887239 3.497240 0
M  V30 3 O 3.058262 -2.877154 4.219965 0
M  V30 4 N 2.878208 -3.926946 2.143651 0
M  V30 5 C 2.168572 -2.842939 1.551590 0
M  V30 6 N 2.740639 -1.790798 0.909915 0
M  V30 7 C 1.786492 -0.951361 0.474358 0
M  V30 8 C 1.876907 0.292847 -0.252868 0
M  V30 9 C 1.439244 0.518855 -1.537969 0
M  V30 10 C 1.534623 1.717794 -2.200193 0
M  V30 11 C 2.109237 2.791079 -1.548204 0
M  V30 12 F 2.218920 3.983644 -2.169826 0
M  V30 13 C 2.541051 2.541513 -0.260008 0
M  V30 14 C 3.171462 3.677874 0.483956 0
M  V30 15 N 2.434800 1.362859 0.359452 0
M  V30 16 C 0.549230 -1.478679 0.847550 0
M  V30 17 C -0.836548 -1.057891 0.678279 0
M  V30 18 C -1.410177 -0.747665 1.918924 0
M  V30 19 C -2.725941 -0.322600 2.000789 0
M  V30 20 C -3.520611 -0.187753 0.875128 0
M  V30 21 N -4.802883 0.220489 0.880650 0
M  V30 22 C -5.480327 0.315494 -0.287423 0
M  V30 23 C -4.878681 -0.001142 -1.503061 0
M  V30 24 N -3.577254 -0.414032 -1.494216 0
M  V30 25 C -2.924744 -0.499847 -0.314535 0
M  V30 26 C -1.619356 -0.925527 -0.433267 0
M  V30 27 N 0.845492 -2.620934 1.494406 0
M  V30 28 H 5.043085 -4.613164 4.538753 0
M  V30 29 H 3.486200 -5.218564 5.124453 0
M  V30 30 H 4.139697 -5.887815 3.617651 0
M  V30 31 H 3.135961 -4.813008 1.642603 0
M  V30 32 H 0.992448 -0.299165 -2.064464 0
M  V30 33 H 1.173743 1.822981 -3.194156 0
M  V30 34 H 2.392457 4.222567 1.084287 0
M  V30 35 H 3.588542 4.390328 -0.240129 0
M  V30 36 H 3.956750 3.306759 1.174120 0
M  V30 37 H -0.907462 -0.804376 2.897685 0
M  V30 38 H -3.192929 -0.074099 2.969011 0
M  V30 39 H -6.508055 0.648671 -0.232119 0
M  V30 40 H -5.468089 0.092863 -2.408616 0
M  V30 41 H -1.090212 -1.190182 -1.336298 0
M  V30 42 H 0.200547 -3.308392 1.928595 0
M  V30 END ATOM
M  V30 BEGIN BOND
M  V30 1 1 1 2
M  V30 2 2 2 3
M  V30 3 1 2 4
M  V30 4 1 4 5
M  V30 5 2 5 6
M  V30 6 1 6 7
M  V30 7 1 7 8
M  V30 8 2 8 9
M  V30 9 1 9 10
M  V30 10 2 10 11
M  V30 11 1 11 12
M  V30 12 1 11 13
M  V30 13 1 13 14
M  V30 14 2 13 15
M  V30 15 2 7 16
M  V30 16 1 16 17
M  V30 17 2 17 18
M  V30 18 1 18 19
M  V30 19 2 19 20
M  V30 20 1 20 21
M  V30 21 2 21 22
M  V30 22 1 22 23
M  V30 23 2 23 24
M  V30 24 1 24 25
M  V30 25 2 25 26
M  V30 26 1 16 27
M  V30 27 1 27 5
M  V30 28 1 15 8
M  V30 29 1 26 17
M  V30 30 1 25 20
M  V30 31 1 1 28
M  V30 32 1 1 29
M  V30 33 1 1 30
M  V30 34 1 4 31
M  V30 35 1 9 32
M  V30 36 1 10 33
M  V30 37 1 14 34
M  V30 38 1 14 35
M  V30 39 1 14 36
M  V30 40 1 18 37
M  V30 41 1 19 38
M  V30 42 1 22 39
M  V30 43 1 23 40
M  V30 44 1 26 41
M  V30 45 1 27 42
M  V30 END BOND
M  V30 END CTAB
M  END
>  <Dataset>  (978) 
ChEMBL_Kinases

>  <Ligand_Instance>  (978) 
nan

>  <PDB_ID>  (978) 
nan

>  <Standardized_SMILES>  (978) 
CC(=O)Nc1nc(-c2ccc(F)c(C)n2)c(-c2ccc3nccnc3c2)[nH]1

>  <Name>  (978) 
nan

>  <Pocket>  (978) 
nan

>  <ATP_Site>  (978) 
nan

>  <Peripheral>  (978) 
nan

>  <Num_H_Atoms_ProtBoundConf>  (978) 
nan

>  <Num_Resolved_Atoms>  (978) 
nan

>  <Num_Not_Resolved_Atoms>  (978) 
nan

$$$$
CHEMBL519948
     RDKit          3D

  0  0  0  0  0  0  0  0  0  0999 V3000
M  V30 BEGIN CTAB
M  V30 COUNTS 36 39 0 0 0
M  V30 BEGIN ATOM
M  V30 1 C 0.648422 -4.795089 1.151785 0
M  V30 2 C 1.153578 -3.394564 1.134319 0
M  V30 3 C 1.687642 -2.842682 2.270303 0
M  V30 4 C 2.168606 -1.541026 2.291341 0
M  V30 5 C 2.118232 -0.759252 1.145777 0
M  V30 6 C 1.567398 -1.358586 0.012489 0
M  V30 7 C 1.525054 -0.505597 -1.194259 0
M  V30 8 N 2.187308 -0.819703 -2.292619 0
M  V30 9 C 2.247948 -0.261516 -3.291006 0
M  V30 10 N 2.949224 -0.538786 -4.539343 0
M  V30 11 S 1.141551 1.255005 -2.973415 0
M  V30 12 C 0.794923 0.665179 -1.245170 0
M  V30 13 C -0.019249 1.211336 -0.139509 0
M  V30 14 C 0.175768 2.419610 0.493878 0
M  V30 15 C -0.706472 2.745353 1.513917 0
M  V30 16 C -1.724041 1.895528 1.868388 0
M  V30 17 N -2.573308 2.228782 2.862821 0
M  V30 18 C -3.582286 1.395587 3.219823 0
M  V30 19 C -3.783723 0.184963 2.590695 0
M  V30 20 N -2.929329 -0.141885 1.595884 0
M  V30 21 C -1.910473 0.686919 1.226920 0
M  V30 22 C -1.047006 0.350248 0.216590 0
M  V30 23 N 1.104187 -2.634505 0.019283 0
M  V30 24 H -0.306470 -4.750434 1.724985 0
M  V30 25 H 1.376828 -5.503066 1.587868 0
M  V30 26 H 0.483243 -5.085364 0.091792 0
M  V30 27 H 1.761988 -3.394782 3.209139 0
M  V30 28 H 2.602611 -1.042664 3.152952 0
M  V30 29 H 2.484041 0.273726 1.108757 0
M  V30 30 H 2.662693 -1.483976 -4.935553 0
M  V30 31 H 3.592486 0.231797 -4.807585 0
M  V30 32 H 1.006738 3.009480 0.135361 0
M  V30 33 H -0.530643 3.699127 1.993882 0
M  V30 34 H -4.297024 1.605415 4.010509 0
M  V30 35 H -4.570148 -0.518435 2.832380 0
M  V30 36 H -1.246633 -0.613013 -0.248396 0
M  V30 END ATOM
M  V30 BEGIN BOND
M  V30 1 1 1 2
M  V30 2 2 2 3
M  V30 3 1 3 4
M  V30 4 2 4 5
M  V30 5 1 5 6
M  V30 6 1 6 7
M  V30 7 1 7 8
M  V30 8 2 8 9
M  V30 9 1 9 10
M  V30 10 1 9 11
M  V30 11 1 11 12
M  V30 12 1 12 13
M  V30 13 2 13 14
M  V30 14 1 14 15
M  V30 15 2 15 16
M  V30 16 1 16 17
M  V30 17 2 17 18
M  V30 18 1 18 19
M  V30 19 2 19 20
M  V30 20 1 20 21
M  V30 21 2 21 22
M  V30 22 2 6 23
M  V30 23 1 23 2
M  V30 24 2 12 7
M  V30 25 1 22 13
M  V30 26 1 21 16
M  V30 27 1 1 24
M  V30 28 1 1 25
M  V30 29 1 1 26
M  V30 30 1 3 27
M  V30 31 1 4 28
M  V30 32 1 5 29
M  V30 33 1 10 30
M  V30 34 1 10 31
M  V30 35 1 14 32
M  V30 36 1 15 33
M  V30 37 1 18 34
M  V30 38 1 19 35
M  V30 39 1 22 36
M  V30 END BOND
M  V30 END CTAB
M  END
>  <Dataset>  (979) 
ChEMBL_Kinases

>  <Ligand_Instance>  (979) 
nan

>  <PDB_ID>  (979) 
nan

>  <Standardized_SMILES>  (979) 
Cc1cccc(-c2nc(N)sc2-c2ccc3nccnc3c2)n1

>  <Name>  (979) 
nan

>  <Pocket>  (979) 
nan

>  <ATP_Site>  (979) 
nan

>  <Peripheral>  (979) 
nan

>  <Num_H_Atoms_ProtBoundConf>  (979) 
nan

>  <Num_Resolved_Atoms>  (979) 
nan

>  <Num_Not_Resolved_Atoms>  (979) 
nan

$$$$
CHEMBL520049
     RDKit          3D

  0  0  0  0  0  0  0  0  0  0999 V3000
M  V30 BEGIN CTAB
M  V30 COUNTS 51 55 0 0 0
M  V30 BEGIN ATOM
M  V30 1 O 2.704055 0.896929 7.248767 0
M  V30 2 C 2.722945 1.279231 6.037139 0
M  V30 3 N 3.000001 2.597278 5.524476 0
M  V30 4 C 2.897883 2.510374 4.112189 0
M  V30 5 O 3.111223 3.576983 3.514199 0
M  V30 6 C 2.563373 1.178837 3.686949 0
M  V30 7 C 2.465371 0.470091 4.849369 0
M  V30 8 C 2.145048 -0.893680 4.833970 0
M  V30 9 C 1.940838 -1.457853 3.601427 0
M  V30 10 C 2.039594 -0.739045 2.403621 0
M  V30 11 C 2.358024 0.599740 2.487806 0
M  V30 12 C 2.399921 1.087438 1.216003 0
M  V30 13 C 2.646327 2.270164 0.590899 0
M  V30 14 C 2.606256 2.408328 -0.776500 0
M  V30 15 O 2.863377 3.640487 -1.405487 0
M  V30 16 C 2.312160 1.352953 -1.619137 0
M  V30 17 C 2.060007 0.146966 -0.990855 0
M  V30 18 C 2.103883 0.019989 0.402263 0
M  V30 19 N 1.876179 -1.120333 1.099830 0
M  V30 20 C 1.538817 -2.468832 0.761565 0
M  V30 21 C 0.063222 -2.760424 0.703203 0
M  V30 22 C -0.666073 -1.940888 -0.335948 0
M  V30 23 C -2.114079 -2.259145 -0.355856 0
M  V30 24 O -2.534605 -3.091229 0.516981 0
M  V30 25 N -3.224704 -1.859606 -1.136719 0
M  V30 26 C -4.488768 -2.471176 -0.750713 0
M  V30 27 C -4.813040 -3.533320 -1.820384 0
M  V30 28 O -4.231857 -3.174023 -3.029296 0
M  V30 29 C -4.251328 -1.820753 -3.300346 0
M  V30 30 C -3.518824 -0.979611 -2.278797 0
M  V30 31 H 3.215368 3.351083 6.197774 0
M  V30 32 H 2.055874 -1.501184 5.731845 0
M  V30 33 H 1.692900 -2.515242 3.591633 0
M  V30 34 H 2.881213 3.137270 1.112868 0
M  V30 35 H 2.943275 4.473516 -0.794802 0
M  V30 36 H 2.285279 1.481875 -2.691839 0
M  V30 37 H 1.828944 -0.685337 -1.632309 0
M  V30 38 H 2.006104 -3.171142 1.490062 0
M  V30 39 H 2.023058 -2.733616 -0.220394 0
M  V30 40 H -0.007669 -3.827475 0.334333 0
M  V30 41 H -0.424956 -2.708720 1.690205 0
M  V30 42 H -0.301229 -2.215880 -1.363020 0
M  V30 43 H -0.512914 -0.860882 -0.187398 0
M  V30 44 H -5.330310 -1.748618 -0.715211 0
M  V30 45 H -4.422069 -3.014327 0.209850 0
M  V30 46 H -5.903413 -3.601057 -1.906766 0
M  V30 47 H -4.401063 -4.503844 -1.483322 0
M  V30 48 H -5.316524 -1.505210 -3.396977 0
M  V30 49 H -3.818409 -1.703043 -4.322969 0
M  V30 50 H -4.212915 -0.166079 -1.961176 0
M  V30 51 H -2.608066 -0.574662 -2.748347 0
M  V30 END ATOM
M  V30 BEGIN BOND
M  V30 1 2 1 2
M  V30 2 1 2 3
M  V30 3 1 3 4
M  V30 4 2 4 5
M  V30 5 1 4 6
M  V30 6 2 6 7
M  V30 7 1 7 8
M  V30 8 2 8 9
M  V30 9 1 9 10
M  V30 10 2 10 11
M  V30 11 1 11 12
M  V30 12 2 12 13
M  V30 13 1 13 14
M  V30 14 1 14 15
M  V30 15 2 14 16
M  V30 16 1 16 17
M  V30 17 2 17 18
M  V30 18 1 18 19
M  V30 19 1 19 20
M  V30 20 1 20 21
M  V30 21 1 21 22
M  V30 22 1 22 23
M  V30 23 2 23 24
M  V30 24 1 23 25
M  V30 25 1 25 26
M  V30 26 1 26 27
M  V30 27 1 27 28
M  V30 28 1 28 29
M  V30 29 1 29 30
M  V30 30 1 7 2
M  V30 31 1 19 10
M  V30 32 1 30 25
M  V30 33 1 11 6
M  V30 34 1 18 12
M  V30 35 1 3 31
M  V30 36 1 8 32
M  V30 37 1 9 33
M  V30 38 1 13 34
M  V30 39 1 15 35
M  V30 40 1 16 36
M  V30 41 1 17 37
M  V30 42 1 20 38
M  V30 43 1 20 39
M  V30 44 1 21 40
M  V30 45 1 21 41
M  V30 46 1 22 42
M  V30 47 1 22 43
M  V30 48 1 26 44
M  V30 49 1 26 45
M  V30 50 1 27 46
M  V30 51 1 27 47
M  V30 52 1 29 48
M  V30 53 1 29 49
M  V30 54 1 30 50
M  V30 55 1 30 51
M  V30 END BOND
M  V30 END CTAB
M  END
>  <Dataset>  (980) 
ChEMBL_Kinases

>  <Ligand_Instance>  (980) 
nan

>  <PDB_ID>  (980) 
nan

>  <Standardized_SMILES>  (980) 
O=C1NC(=O)c2c1ccc1c2c2cc(O)ccc2n1CCCC(=O)N1CCOCC1

>  <Name>  (980) 
nan

>  <Pocket>  (980) 
nan

>  <ATP_Site>  (980) 
nan

>  <Peripheral>  (980) 
nan

>  <Num_H_Atoms_ProtBoundConf>  (980) 
nan

>  <Num_Resolved_Atoms>  (980) 
nan

>  <Num_Not_Resolved_Atoms>  (980) 
nan

$$$$
CHEMBL520071
     RDKit          3D

  0  0  0  0  0  0  0  0  0  0999 V3000
M  V30 BEGIN CTAB
M  V30 COUNTS 56 61 0 0 0
M  V30 BEGIN ATOM
M  V30 1 O 4.184990 1.204034 3.764768 0
M  V30 2 C 3.386843 0.231913 3.784840 0
M  V30 3 N 3.187210 -0.716135 4.844979 0
M  V30 4 C 2.191585 -1.636706 4.434383 0
M  V30 5 O 1.909576 -2.520212 5.250125 0
M  V30 6 C 1.726683 -1.312264 3.113945 0
M  V30 7 C 2.450611 -0.203430 2.755134 0
M  V30 8 C 2.251176 0.381340 1.519949 0
M  V30 9 C 2.937113 1.555083 0.994030 0
M  V30 10 C 2.264005 2.732323 1.320516 0
M  V30 11 Cl 0.782955 2.828025 2.247038 0
M  V30 12 C 2.752240 3.971165 0.908800 0
M  V30 13 C 3.920306 3.991454 0.170253 0
M  V30 14 C 4.592995 2.820562 -0.156138 0
M  V30 15 C 4.101619 1.600087 0.255598 0
M  V30 16 Cl 4.831961 0.050099 -0.077163 0
M  V30 17 C 1.314195 -0.153918 0.633560 0
M  V30 18 C 0.594248 -1.277346 1.020473 0
M  V30 19 C 0.814133 -1.838175 2.258263 0
M  V30 20 C -0.004079 -2.918845 2.406828 0
M  V30 21 C -0.310146 -3.886543 3.308612 0
M  V30 22 C -1.235258 -4.868683 3.115954 0
M  V30 23 O -1.534227 -5.849979 4.050674 0
M  V30 24 C -1.929935 -4.898536 1.909949 0
M  V30 25 C -1.662109 -3.941462 0.955354 0
M  V30 26 C -0.710937 -2.979942 1.225038 0
M  V30 27 N -0.343397 -1.974592 0.377341 0
M  V30 28 C -0.827006 -1.679893 -0.938228 0
M  V30 29 C -1.998102 -0.737449 -0.981648 0
M  V30 30 N -2.391903 -0.519144 -2.340550 0
M  V30 31 C -2.959912 -1.642979 -2.985974 0
M  V30 32 C -4.281400 -1.393622 -3.661925 0
M  V30 33 O -4.080373 -0.270248 -4.477842 0
M  V30 34 C -4.037952 0.816784 -3.610676 0
M  V30 35 C -2.870853 0.766016 -2.668662 0
M  V30 36 H 3.758503 -0.625420 5.734187 0
M  V30 37 H 2.302228 4.913340 1.113092 0
M  V30 38 H 4.344542 4.935866 -0.176969 0
M  V30 39 H 5.498665 2.809551 -0.726401 0
M  V30 40 H 1.126606 0.283407 -0.359783 0
M  V30 41 H 0.170517 -3.926141 4.234297 0
M  V30 42 H -1.856265 -5.703363 4.982518 0
M  V30 43 H -2.680023 -5.671742 1.718390 0
M  V30 44 H -2.206389 -3.984378 0.038875 0
M  V30 45 H -0.022437 -1.317237 -1.591138 0
M  V30 46 H -1.149084 -2.662663 -1.391812 0
M  V30 47 H -2.891102 -1.189566 -0.469864 0
M  V30 48 H -1.750481 0.214763 -0.472677 0
M  V30 49 H -2.205457 -2.066603 -3.694195 0
M  V30 50 H -3.172113 -2.444909 -2.217612 0
M  V30 51 H -5.011497 -1.125273 -2.881853 0
M  V30 52 H -4.541006 -2.298418 -4.247463 0
M  V30 53 H -5.010694 0.893019 -3.097688 0
M  V30 54 H -3.931637 1.725653 -4.236947 0
M  V30 55 H -3.153971 1.347368 -1.760858 0
M  V30 56 H -2.012252 1.358094 -3.100851 0
M  V30 END ATOM
M  V30 BEGIN BOND
M  V30 1 2 1 2
M  V30 2 1 2 3
M  V30 3 1 3 4
M  V30 4 2 4 5
M  V30 5 1 4 6
M  V30 6 2 6 7
M  V30 7 1 7 8
M  V30 8 1 8 9
M  V30 9 2 9 10
M  V30 10 1 10 11
M  V30 11 1 10 12
M  V30 12 2 12 13
M  V30 13 1 13 14
M  V30 14 2 14 15
M  V30 15 1 15 16
M  V30 16 2 8 17
M  V30 17 1 17 18
M  V30 18 2 18 19
M  V30 19 1 19 20
M  V30 20 2 20 21
M  V30 21 1 21 22
M  V30 22 1 22 23
M  V30 23 2 22 24
M  V30 24 1 24 25
M  V30 25 2 25 26
M  V30 26 1 26 27
M  V30 27 1 27 28
M  V30 28 1 28 29
M  V30 29 1 29 30
M  V30 30 1 30 31
M  V30 31 1 31 32
M  V30 32 1 32 33
M  V30 33 1 33 34
M  V30 34 1 34 35
M  V30 35 1 7 2
M  V30 36 1 15 9
M  V30 37 1 27 18
M  V30 38 1 35 30
M  V30 39 1 19 6
M  V30 40 1 26 20
M  V30 41 1 3 36
M  V30 42 1 12 37
M  V30 43 1 13 38
M  V30 44 1 14 39
M  V30 45 1 17 40
M  V30 46 1 21 41
M  V30 47 1 23 42
M  V30 48 1 24 43
M  V30 49 1 25 44
M  V30 50 1 28 45
M  V30 51 1 28 46
M  V30 52 1 29 47
M  V30 53 1 29 48
M  V30 54 1 31 49
M  V30 55 1 31 50
M  V30 56 1 32 51
M  V30 57 1 32 52
M  V30 58 1 34 53
M  V30 59 1 34 54
M  V30 60 1 35 55
M  V30 61 1 35 56
M  V30 END BOND
M  V30 END CTAB
M  END
>  <Dataset>  (981) 
ChEMBL_Kinases

>  <Ligand_Instance>  (981) 
nan

>  <PDB_ID>  (981) 
nan

>  <Standardized_SMILES>  (981) 
O=C1NC(=O)c2c1c(-c1c(Cl)cccc1Cl)cc1c2c2cc(O)ccc2n1CCN1CCOCC1

>  <Name>  (981) 
nan

>  <Pocket>  (981) 
nan

>  <ATP_Site>  (981) 
nan

>  <Peripheral>  (981) 
nan

>  <Num_H_Atoms_ProtBoundConf>  (981) 
nan

>  <Num_Resolved_Atoms>  (981) 
nan

>  <Num_Not_Resolved_Atoms>  (981) 
nan

$$$$
CHEMBL520104
     RDKit          3D

  0  0  0  0  0  0  0  0  0  0999 V3000
M  V30 BEGIN CTAB
M  V30 COUNTS 46 50 0 0 0
M  V30 BEGIN ATOM
M  V30 1 C -3.269064 -4.205938 1.230037 0
M  V30 2 C -2.253486 -3.584365 2.121240 0
M  V30 3 N -1.712047 -2.410334 1.759820 0
M  V30 4 C -0.774201 -1.781479 2.520534 0
M  V30 5 C -0.202167 -0.519533 2.086624 0
M  V30 6 N -0.115898 0.715651 2.578505 0
M  V30 7 C 0.557452 1.514502 1.718196 0
M  V30 8 N 0.955778 2.878037 1.694735 0
M  V30 9 C 0.322599 4.108024 1.262407 0
M  V30 10 C 1.007767 4.630244 -0.008641 0
M  V30 11 O 2.259028 4.025100 -0.124879 0
M  V30 12 C 2.923170 4.186679 1.110391 0
M  V30 13 C 2.283015 3.296134 2.172693 0
M  V30 14 N 0.917254 0.765171 0.633977 0
M  V30 15 C 0.452694 -0.500721 0.847487 0
M  V30 16 C 0.641128 -1.617548 -0.109387 0
M  V30 17 C 1.312411 -2.807083 0.099218 0
M  V30 18 C 1.363657 -3.713755 -0.935133 0
M  V30 19 C 0.757029 -3.439080 -2.153361 0
M  V30 20 N 0.678787 -4.161287 -3.283600 0
M  V30 21 C -0.027676 -3.452112 -4.200272 0
M  V30 22 N -0.368140 -2.297049 -3.597896 0
M  V30 23 N 0.101398 -2.284593 -2.366835 0
M  V30 24 C 0.052311 -1.395559 -1.349593 0
M  V30 25 C -0.392130 -2.396855 3.692471 0
M  V30 26 C -0.921711 -3.604204 4.105069 0
M  V30 27 C -1.883505 -4.221996 3.297133 0
M  V30 28 F -2.452487 -5.407392 3.631117 0
M  V30 29 H -3.773132 -3.421788 0.620011 0
M  V30 30 H -4.032260 -4.759406 1.796720 0
M  V30 31 H -2.735706 -4.871975 0.500998 0
M  V30 32 H 0.309467 4.898214 2.040501 0
M  V30 33 H -0.741743 3.955594 0.989317 0
M  V30 34 H 0.415487 4.358935 -0.922718 0
M  V30 35 H 1.090173 5.737666 0.006278 0
M  V30 36 H 2.958082 5.251927 1.409444 0
M  V30 37 H 3.993188 3.885977 0.924444 0
M  V30 38 H 2.938005 2.423965 2.282470 0
M  V30 39 H 2.206407 3.889095 3.104680 0
M  V30 40 H 1.448080 1.015769 -0.244063 0
M  V30 41 H 1.733534 -2.885566 1.089339 0
M  V30 42 H 1.889623 -4.619457 -0.735273 0
M  V30 43 H -0.282383 -3.728840 -5.214504 0
M  V30 44 H -0.493982 -0.474539 -1.582527 0
M  V30 45 H 0.363236 -1.934692 4.349881 0
M  V30 46 H -0.610747 -4.086007 5.040846 0
M  V30 END ATOM
M  V30 BEGIN BOND
M  V30 1 1 1 2
M  V30 2 2 2 3
M  V30 3 1 3 4
M  V30 4 1 4 5
M  V30 5 1 5 6
M  V30 6 2 6 7
M  V30 7 1 7 8
M  V30 8 1 8 9
M  V30 9 1 9 10
M  V30 10 1 10 11
M  V30 11 1 11 12
M  V30 12 1 12 13
M  V30 13 1 7 14
M  V30 14 1 14 15
M  V30 15 1 15 16
M  V30 16 1 16 17
M  V30 17 2 17 18
M  V30 18 1 18 19
M  V30 19 2 19 20
M  V30 20 1 20 21
M  V30 21 2 21 22
M  V30 22 1 22 23
M  V30 23 1 23 24
M  V30 24 2 4 25
M  V30 25 1 25 26
M  V30 26 2 26 27
M  V30 27 1 27 28
M  V30 28 1 27 2
M  V30 29 2 15 5
M  V30 30 2 24 16
M  V30 31 1 13 8
M  V30 32 1 23 19
M  V30 33 1 1 29
M  V30 34 1 1 30
M  V30 35 1 1 31
M  V30 36 1 9 32
M  V30 37 1 9 33
M  V30 38 1 10 34
M  V30 39 1 10 35
M  V30 40 1 12 36
M  V30 41 1 12 37
M  V30 42 1 13 38
M  V30 43 1 13 39
M  V30 44 1 14 40
M  V30 45 1 17 41
M  V30 46 1 18 42
M  V30 47 1 21 43
M  V30 48 1 24 44
M  V30 49 1 25 45
M  V30 50 1 26 46
M  V30 END BOND
M  V30 END CTAB
M  END
>  <Dataset>  (982) 
ChEMBL_Kinases

>  <Ligand_Instance>  (982) 
nan

>  <PDB_ID>  (982) 
nan

>  <Standardized_SMILES>  (982) 
Cc1nc(-c2nc(N3CCOCC3)[nH]c2-c2ccc3ncnn3c2)ccc1F

>  <Name>  (982) 
nan

>  <Pocket>  (982) 
nan

>  <ATP_Site>  (982) 
nan

>  <Peripheral>  (982) 
nan

>  <Num_H_Atoms_ProtBoundConf>  (982) 
nan

>  <Num_Resolved_Atoms>  (982) 
nan

>  <Num_Not_Resolved_Atoms>  (982) 
nan

$$$$
CHEMBL520147
     RDKit          3D

  0  0  0  0  0  0  0  0  0  0999 V3000
M  V30 BEGIN CTAB
M  V30 COUNTS 44 48 0 0 0
M  V30 BEGIN ATOM
M  V30 1 C -3.606382 -3.853057 -0.784640 0
M  V30 2 O -2.538769 -4.676605 -0.364847 0
M  V30 3 C -1.446718 -4.072600 0.238088 0
M  V30 4 C -1.337459 -2.733456 0.451796 0
M  V30 5 C -0.259444 -2.118809 1.049644 0
M  V30 6 C 0.122816 -0.812851 1.383446 0
M  V30 7 C -0.758431 0.307236 1.111123 0
M  V30 8 C -0.611773 1.494436 0.501297 0
M  V30 9 C 0.501804 2.166211 -0.147590 0
M  V30 10 C 0.435853 2.570663 -1.487345 0
M  V30 11 O 1.544453 3.177562 -1.861803 0
M  V30 12 C 2.381669 3.217039 -0.845216 0
M  V30 13 C 3.654378 3.723997 -0.676435 0
M  V30 14 C 4.240532 3.584484 0.571988 0
M  V30 15 C 3.617248 2.964587 1.657490 0
M  V30 16 C 2.355655 2.480329 1.430415 0
M  V30 17 C 1.757560 2.601546 0.215168 0
M  V30 18 C -1.879285 2.223408 0.556346 0
M  V30 19 O -2.179485 3.379620 0.101165 0
M  V30 20 N -2.863542 1.436680 1.242994 0
M  V30 21 C -2.164917 0.263350 1.579765 0
M  V30 22 O -2.807220 -0.643031 2.217978 0
M  V30 23 C 1.353685 -1.032363 1.949365 0
M  V30 24 N 1.727791 -2.317399 1.981644 0
M  V30 25 C 2.971694 -2.821877 2.521771 0
M  V30 26 C 0.725793 -3.007076 1.421331 0
M  V30 27 C 0.674365 -4.370602 1.232539 0
M  V30 28 C -0.436192 -4.917317 0.627473 0
M  V30 29 I -0.528740 -6.996601 0.334281 0
M  V30 30 H -3.903392 -3.227744 0.090384 0
M  V30 31 H -3.206746 -3.147405 -1.548292 0
M  V30 32 H -4.460679 -4.442175 -1.179476 0
M  V30 33 H -2.171528 -2.158362 0.103060 0
M  V30 34 H -0.417047 2.415516 -2.163585 0
M  V30 35 H 4.179911 4.209109 -1.475720 0
M  V30 36 H 5.253446 3.978747 0.734915 0
M  V30 37 H 4.161739 2.908078 2.590747 0
M  V30 38 H 1.862648 2.026425 2.253617 0
M  V30 39 H -3.853812 1.717343 1.423000 0
M  V30 40 H 1.966057 -0.245453 2.336955 0
M  V30 41 H 3.807076 -2.101544 2.363453 0
M  V30 42 H 2.816892 -3.022433 3.609453 0
M  V30 43 H 3.245113 -3.764441 1.989714 0
M  V30 44 H 1.471266 -5.033986 1.540129 0
M  V30 END ATOM
M  V30 BEGIN BOND
M  V30 1 1 1 2
M  V30 2 1 2 3
M  V30 3 2 3 4
M  V30 4 1 4 5
M  V30 5 1 5 6
M  V30 6 1 6 7
M  V30 7 2 7 8
M  V30 8 1 8 9
M  V30 9 2 9 10
M  V30 10 1 10 11
M  V30 11 1 11 12
M  V30 12 2 12 13
M  V30 13 1 13 14
M  V30 14 2 14 15
M  V30 15 1 15 16
M  V30 16 2 16 17
M  V30 17 1 8 18
M  V30 18 2 18 19
M  V30 19 1 18 20
M  V30 20 1 20 21
M  V30 21 2 21 22
M  V30 22 2 6 23
M  V30 23 1 23 24
M  V30 24 1 24 25
M  V30 25 1 24 26
M  V30 26 1 26 27
M  V30 27 2 27 28
M  V30 28 1 28 29
M  V30 29 1 28 3
M  V30 30 2 26 5
M  V30 31 1 21 7
M  V30 32 1 17 9
M  V30 33 1 17 12
M  V30 34 1 1 30
M  V30 35 1 1 31
M  V30 36 1 1 32
M  V30 37 1 4 33
M  V30 38 1 10 34
M  V30 39 1 13 35
M  V30 40 1 14 36
M  V30 41 1 15 37
M  V30 42 1 16 38
M  V30 43 1 20 39
M  V30 44 1 23 40
M  V30 45 1 25 41
M  V30 46 1 25 42
M  V30 47 1 25 43
M  V30 48 1 27 44
M  V30 END BOND
M  V30 END CTAB
M  END
>  <Dataset>  (983) 
ChEMBL_Kinases

>  <Ligand_Instance>  (983) 
nan

>  <PDB_ID>  (983) 
nan

>  <Standardized_SMILES>  (983) 
COc1cc2c(C3=C(c4coc5ccccc45)C(=O)NC3=O)cn(C)c2cc1I

>  <Name>  (983) 
nan

>  <Pocket>  (983) 
nan

>  <ATP_Site>  (983) 
nan

>  <Peripheral>  (983) 
nan

>  <Num_H_Atoms_ProtBoundConf>  (983) 
nan

>  <Num_Resolved_Atoms>  (983) 
nan

>  <Num_Not_Resolved_Atoms>  (983) 
nan

$$$$
CHEMBL520181
     RDKit          3D

  0  0  0  0  0  0  0  0  0  0999 V3000
M  V30 BEGIN CTAB
M  V30 COUNTS 41 44 0 0 0
M  V30 BEGIN ATOM
M  V30 1 C -2.058977 0.573348 -2.977964 0
M  V30 2 N -0.863544 0.453970 -2.108512 0
M  V30 3 C -0.986155 -0.868453 -1.508260 0
M  V30 4 C -1.032818 1.500745 -1.140583 0
M  V30 5 C 0.068277 1.750085 -0.193149 0
M  V30 6 N 0.490145 0.696751 0.654163 0
M  V30 7 C 1.487845 -0.179922 0.323414 0
M  V30 8 C 2.278609 -0.256491 -0.819208 0
M  V30 9 C 3.270566 -1.172486 -1.072806 0
M  V30 10 C 3.475477 -2.109931 -0.050334 0
M  V30 11 O 4.481436 -3.068298 -0.267548 0
M  V30 12 C 2.702020 -2.049315 1.087587 0
M  V30 13 C 1.735151 -1.140489 1.312723 0
M  V30 14 C 0.834086 -0.817210 2.286248 0
M  V30 15 C 0.589007 -1.387576 3.498513 0
M  V30 16 C -0.380624 -0.895526 4.338802 0
M  V30 17 C -1.095580 0.208808 3.890406 0
M  V30 18 C -0.889257 0.823880 2.675494 0
M  V30 19 C 0.100031 0.274017 1.886982 0
M  V30 20 C -0.508693 -1.632666 5.603843 0
M  V30 21 O -1.330662 -1.351039 6.512200 0
M  V30 22 N 0.493859 -2.662708 5.484359 0
M  V30 23 C 1.133854 -2.502000 4.231257 0
M  V30 24 O 2.027643 -3.320695 3.981056 0
M  V30 25 H -2.912199 0.288415 -2.330323 0
M  V30 26 H -2.192429 1.594230 -3.341606 0
M  V30 27 H -2.027402 -0.210276 -3.773337 0
M  V30 28 H -0.129309 -1.523086 -1.674473 0
M  V30 29 H -1.257474 -0.722522 -0.443603 0
M  V30 30 H -1.853091 -1.376027 -1.972737 0
M  V30 31 H -1.179398 2.445172 -1.738894 0
M  V30 32 H -2.022129 1.324471 -0.667857 0
M  V30 33 H 0.946311 2.129071 -0.763269 0
M  V30 34 H -0.225540 2.615275 0.460903 0
M  V30 35 H 2.135641 0.465244 -1.630606 0
M  V30 36 H 3.841256 -1.168755 -1.977523 0
M  V30 37 H 4.218562 -4.039262 -0.147646 0
M  V30 38 H 2.948333 -2.800265 1.776469 0
M  V30 39 H -1.889539 0.666550 4.501967 0
M  V30 40 H -1.478571 1.690228 2.370514 0
M  V30 41 H 0.608116 -3.341312 6.278418 0
M  V30 END ATOM
M  V30 BEGIN BOND
M  V30 1 1 1 2
M  V30 2 1 2 3
M  V30 3 1 2 4
M  V30 4 1 4 5
M  V30 5 1 5 6
M  V30 6 1 6 7
M  V30 7 2 7 8
M  V30 8 1 8 9
M  V30 9 2 9 10
M  V30 10 1 10 11
M  V30 11 1 10 12
M  V30 12 2 12 13
M  V30 13 1 13 14
M  V30 14 2 14 15
M  V30 15 1 15 16
M  V30 16 2 16 17
M  V30 17 1 17 18
M  V30 18 2 18 19
M  V30 19 1 16 20
M  V30 20 2 20 21
M  V30 21 1 20 22
M  V30 22 1 22 23
M  V30 23 2 23 24
M  V30 24 1 19 6
M  V30 25 1 13 7
M  V30 26 1 19 14
M  V30 27 1 23 15
M  V30 28 1 1 25
M  V30 29 1 1 26
M  V30 30 1 1 27
M  V30 31 1 3 28
M  V30 32 1 3 29
M  V30 33 1 3 30
M  V30 34 1 4 31
M  V30 35 1 4 32
M  V30 36 1 5 33
M  V30 37 1 5 34
M  V30 38 1 8 35
M  V30 39 1 9 36
M  V30 40 1 11 37
M  V30 41 1 12 38
M  V30 42 1 17 39
M  V30 43 1 18 40
M  V30 44 1 22 41
M  V30 END BOND
M  V30 END CTAB
M  END
>  <Dataset>  (984) 
ChEMBL_Kinases

>  <Ligand_Instance>  (984) 
nan

>  <PDB_ID>  (984) 
nan

>  <Standardized_SMILES>  (984) 
CN(C)CCn1c2ccc(O)cc2c2c3c(ccc21)C(=O)NC3=O

>  <Name>  (984) 
nan

>  <Pocket>  (984) 
nan

>  <ATP_Site>  (984) 
nan

>  <Peripheral>  (984) 
nan

>  <Num_H_Atoms_ProtBoundConf>  (984) 
nan

>  <Num_Resolved_Atoms>  (984) 
nan

>  <Num_Not_Resolved_Atoms>  (984) 
nan

$$$$
CHEMBL3703709
     RDKit          3D

  0  0  0  0  0  0  0  0  0  0999 V3000
M  V30 BEGIN CTAB
M  V30 COUNTS 45 48 0 0 0
M  V30 BEGIN ATOM
M  V30 1 C -2.740229 -5.618815 1.393978 0
M  V30 2 C -1.277363 -5.923610 1.235648 0
M  V30 3 C -0.333596 -4.933968 1.415169 0
M  V30 4 C 1.041476 -5.165884 1.279710 0
M  V30 5 C 1.983165 -4.069995 1.482374 0
M  V30 6 N 3.143027 -4.055363 2.193323 0
M  V30 7 N 3.720621 -2.868989 2.139535 0
M  V30 8 C 2.948036 -2.075163 1.387803 0
M  V30 9 C 3.121826 -0.758250 1.038598 0
M  V30 10 C 2.173809 -0.126537 0.233506 0
M  V30 11 N 2.174035 1.219406 -0.231383 0
M  V30 12 C 1.555583 2.256556 0.524635 0
M  V30 13 O 1.030212 1.911877 1.593175 0
M  V30 14 N 1.575592 3.570723 0.030781 0
M  V30 15 C 0.968705 4.716540 0.723751 0
M  V30 16 C -0.502132 4.710580 0.575542 0
M  V30 17 C -1.429956 4.120803 1.398873 0
M  V30 18 C -2.787527 4.165505 1.180693 0
M  V30 19 C -3.250011 4.837907 0.076936 0
M  V30 20 Cl -4.968303 4.940063 -0.267430 0
M  V30 21 C -2.362677 5.459621 -0.800702 0
M  V30 22 Cl -3.003722 6.308627 -2.200093 0
M  V30 23 C -0.995784 5.382082 -0.530456 0
M  V30 24 N 1.090986 -0.837112 -0.189534 0
M  V30 25 C 0.951028 -2.137031 0.174898 0
M  V30 26 C 1.853172 -2.799736 0.962393 0
M  V30 27 C 1.397278 -6.481450 0.946723 0
M  V30 28 C 0.414348 -7.436334 0.777763 0
M  V30 29 N -0.880632 -7.156507 0.920007 0
M  V30 30 H -2.886836 -4.664092 1.942134 0
M  V30 31 H -3.243108 -5.553492 0.424633 0
M  V30 32 H -3.207818 -6.412106 2.018027 0
M  V30 33 H -0.722233 -3.964745 1.669305 0
M  V30 34 H 4.623741 -2.616588 2.609624 0
M  V30 35 H 3.937914 -0.120702 1.322721 0
M  V30 36 H 2.646183 1.390033 -1.142977 0
M  V30 37 H 2.051198 3.764982 -0.891358 0
M  V30 38 H 1.405956 5.663578 0.407766 0
M  V30 39 H 1.156994 4.561147 1.825371 0
M  V30 40 H -1.026280 3.602866 2.256560 0
M  V30 41 H -3.452190 3.681317 1.866870 0
M  V30 42 H -0.351712 5.885162 -1.247778 0
M  V30 43 H 0.085136 -2.671371 -0.175178 0
M  V30 44 H 2.473968 -6.644967 0.844463 0
M  V30 45 H 0.726951 -8.429570 0.523746 0
M  V30 END ATOM
M  V30 BEGIN BOND
M  V30 1 1 1 2
M  V30 2 2 2 3
M  V30 3 1 3 4
M  V30 4 1 4 5
M  V30 5 2 5 6
M  V30 6 1 6 7
M  V30 7 1 7 8
M  V30 8 2 8 9
M  V30 9 1 9 10
M  V30 10 1 10 11
M  V30 11 1 11 12
M  V30 12 2 12 13
M  V30 13 1 12 14
M  V30 14 1 14 15
M  V30 15 1 15 16
M  V30 16 2 16 17
M  V30 17 1 17 18
M  V30 18 2 18 19
M  V30 19 1 19 20
M  V30 20 1 19 21
M  V30 21 1 21 22
M  V30 22 2 21 23
M  V30 23 2 10 24
M  V30 24 1 24 25
M  V30 25 2 25 26
M  V30 26 2 4 27
M  V30 27 1 27 28
M  V30 28 2 28 29
M  V30 29 1 29 2
M  V30 30 1 26 5
M  V30 31 1 26 8
M  V30 32 1 23 16
M  V30 33 1 1 30
M  V30 34 1 1 31
M  V30 35 1 1 32
M  V30 36 1 3 33
M  V30 37 1 7 34
M  V30 38 1 9 35
M  V30 39 1 11 36
M  V30 40 1 14 37
M  V30 41 1 15 38
M  V30 42 1 15 39
M  V30 43 1 17 40
M  V30 44 1 18 41
M  V30 45 1 23 42
M  V30 46 1 25 43
M  V30 47 1 27 44
M  V30 48 1 28 45
M  V30 END BOND
M  V30 END CTAB
M  END
>  <Dataset>  (985) 
ChEMBL_Kinases

>  <Ligand_Instance>  (985) 
nan

>  <PDB_ID>  (985) 
nan

>  <Standardized_SMILES>  (985) 
Cc1cc(-c2n[nH]c3cc(NC(=O)NCc4ccc(Cl)c(Cl)c4)ncc23)ccn1

>  <Name>  (985) 
nan

>  <Pocket>  (985) 
nan

>  <ATP_Site>  (985) 
nan

>  <Peripheral>  (985) 
nan

>  <Num_H_Atoms_ProtBoundConf>  (985) 
nan

>  <Num_Resolved_Atoms>  (985) 
nan

>  <Num_Not_Resolved_Atoms>  (985) 
nan

$$$$
CHEMBL520240
     RDKit          3D

  0  0  0  0  0  0  0  0  0  0999 V3000
M  V30 BEGIN CTAB
M  V30 COUNTS 47 51 0 0 0
M  V30 BEGIN ATOM
M  V30 1 N 2.201224 -4.809833 2.994405 0
M  V30 2 C 2.963321 -4.083763 2.522582 0
M  V30 3 C 3.916625 -3.157837 1.943613 0
M  V30 4 C 3.203800 -1.990042 1.270459 0
M  V30 5 C 2.357339 -1.224979 2.263978 0
M  V30 6 N 1.657235 -0.111870 1.699442 0
M  V30 7 C 2.062789 1.182678 1.579747 0
M  V30 8 C 3.285686 1.709620 1.996618 0
M  V30 9 C 3.571395 3.052497 1.813044 0
M  V30 10 C 2.601430 3.853306 1.201653 0
M  V30 11 O 2.877944 5.198665 1.013459 0
M  V30 12 C 1.421004 3.260011 0.818757 0
M  V30 13 C 1.091299 1.948524 0.975738 0
M  V30 14 C 0.070603 1.081317 0.726243 0
M  V30 15 C -1.138221 1.300662 0.143666 0
M  V30 16 C -2.024844 0.262049 -0.007327 0
M  V30 17 C -1.689148 -1.012256 0.433962 0
M  V30 18 C -2.602260 -2.142762 0.292456 0
M  V30 19 C -2.413275 -2.802571 -0.909490 0
M  V30 20 C -3.205099 -3.913262 -1.211744 0
M  V30 21 C -4.162273 -4.338599 -0.313508 0
M  V30 22 C -4.332848 -3.656904 0.890039 0
M  V30 23 C -3.555954 -2.560927 1.195172 0
M  V30 24 Cl -3.647852 -1.610046 2.647531 0
M  V30 25 C -0.460111 -1.229503 1.024953 0
M  V30 26 C 0.420481 -0.175002 1.169631 0
M  V30 27 C -3.279813 0.656751 -0.650607 0
M  V30 28 O -4.265054 -0.055934 -0.920085 0
M  V30 29 N -3.081641 2.065596 -0.887910 0
M  V30 30 C -1.802206 2.437660 -0.410486 0
M  V30 31 O -1.511987 3.627075 -0.556729 0
M  V30 32 H 4.606810 -2.819407 2.725658 0
M  V30 33 H 4.512294 -3.683308 1.176589 0
M  V30 34 H 2.585565 -2.361531 0.451394 0
M  V30 35 H 4.017914 -1.353351 0.868396 0
M  V30 36 H 3.084814 -0.815759 3.013952 0
M  V30 37 H 1.680000 -1.886101 2.806890 0
M  V30 38 H 4.020878 1.088640 2.463251 0
M  V30 39 H 4.524216 3.414654 2.149001 0
M  V30 40 H 2.962459 5.509579 0.043494 0
M  V30 41 H 0.740689 3.934632 0.363926 0
M  V30 42 H -1.690815 -2.547412 -1.678207 0
M  V30 43 H -3.076225 -4.451900 -2.153562 0
M  V30 44 H -4.795930 -5.195547 -0.511463 0
M  V30 45 H -5.057770 -3.929068 1.639149 0
M  V30 46 H -0.186884 -2.214781 1.372169 0
M  V30 47 H -3.867519 2.606069 -1.358303 0
M  V30 END ATOM
M  V30 BEGIN BOND
M  V30 1 3 1 2
M  V30 2 1 2 3
M  V30 3 1 3 4
M  V30 4 1 4 5
M  V30 5 1 5 6
M  V30 6 1 6 7
M  V30 7 2 7 8
M  V30 8 1 8 9
M  V30 9 2 9 10
M  V30 10 1 10 11
M  V30 11 1 10 12
M  V30 12 2 12 13
M  V30 13 1 13 14
M  V30 14 2 14 15
M  V30 15 1 15 16
M  V30 16 2 16 17
M  V30 17 1 17 18
M  V30 18 2 18 19
M  V30 19 1 19 20
M  V30 20 2 20 21
M  V30 21 1 21 22
M  V30 22 2 22 23
M  V30 23 1 23 24
M  V30 24 1 17 25
M  V30 25 2 25 26
M  V30 26 1 16 27
M  V30 27 2 27 28
M  V30 28 1 27 29
M  V30 29 1 29 30
M  V30 30 2 30 31
M  V30 31 1 26 6
M  V30 32 1 13 7
M  V30 33 1 26 14
M  V30 34 1 30 15
M  V30 35 1 23 18
M  V30 36 1 3 32
M  V30 37 1 3 33
M  V30 38 1 4 34
M  V30 39 1 4 35
M  V30 40 1 5 36
M  V30 41 1 5 37
M  V30 42 1 8 38
M  V30 43 1 9 39
M  V30 44 1 11 40
M  V30 45 1 12 41
M  V30 46 1 19 42
M  V30 47 1 20 43
M  V30 48 1 21 44
M  V30 49 1 22 45
M  V30 50 1 25 46
M  V30 51 1 29 47
M  V30 END BOND
M  V30 END CTAB
M  END
>  <Dataset>  (986) 
ChEMBL_Kinases

>  <Ligand_Instance>  (986) 
nan

>  <PDB_ID>  (986) 
nan

>  <Standardized_SMILES>  (986) 
N#CCCCn1c2ccc(O)cc2c2c3c(c(-c4ccccc4Cl)cc21)C(=O)NC3=O

>  <Name>  (986) 
nan

>  <Pocket>  (986) 
nan

>  <ATP_Site>  (986) 
nan

>  <Peripheral>  (986) 
nan

>  <Num_H_Atoms_ProtBoundConf>  (986) 
nan

>  <Num_Resolved_Atoms>  (986) 
nan

>  <Num_Not_Resolved_Atoms>  (986) 
nan

$$$$
CHEMBL3732937
     RDKit          3D

  0  0  0  0  0  0  0  0  0  0999 V3000
M  V30 BEGIN CTAB
M  V30 COUNTS 41 43 0 0 0
M  V30 BEGIN ATOM
M  V30 1 C 1.721458 -1.902428 5.888363 0
M  V30 2 C 1.639347 -1.598916 4.462509 0
M  V30 3 S 2.840271 -2.259574 3.243377 0
M  V30 4 C 2.064222 -1.456833 1.854742 0
M  V30 5 N 2.410851 -1.480831 0.538438 0
M  V30 6 C 1.723695 -0.822408 -0.382638 0
M  V30 7 C 2.170633 -0.907892 -1.756393 0
M  V30 8 C 1.578787 -0.268613 -2.822151 0
M  V30 9 C 2.071416 -0.401466 -4.101028 0
M  V30 10 N 3.151803 -1.167069 -4.332291 0
M  V30 11 C 3.766896 -1.812573 -3.326406 0
M  V30 12 C 3.275912 -1.683573 -2.033627 0
M  V30 13 N 0.692348 -0.159632 0.115980 0
M  V30 14 C 0.297298 -0.091416 1.380690 0
M  V30 15 N -0.821079 0.754899 1.547236 0
M  V30 16 C -1.567585 1.444920 0.518173 0
M  V30 17 C -2.597518 0.643008 -0.186718 0 CFG=1
M  V30 18 C -2.082117 -0.551198 -0.897722 0
M  V30 19 N -3.680709 0.322205 0.736103 0
M  V30 20 C 0.981447 -0.757956 2.357827 0
M  V30 21 C 0.747033 -0.817539 3.684683 0
M  V30 22 C -0.357255 -0.157879 4.429699 0
M  V30 23 H 1.035915 -2.744136 6.114735 0
M  V30 24 H 2.751027 -2.237592 6.116564 0
M  V30 25 H 1.477858 -0.998650 6.519528 0
M  V30 26 H 0.712955 0.347738 -2.636343 0
M  V30 27 H 1.624763 0.091476 -4.962780 0
M  V30 28 H 4.625254 -2.405757 -3.591676 0
M  V30 29 H 3.833905 -2.240719 -1.275401 0
M  V30 30 H -1.322587 1.045075 2.411588 0
M  V30 31 H -2.027931 2.395912 0.829685 0
M  V30 32 H -0.823895 1.757442 -0.285950 0
M  V30 33 H -3.052849 1.313700 -0.955517 0
M  V30 34 H -1.741782 -1.372732 -0.226817 0
M  V30 35 H -1.383716 -0.263691 -1.681655 0
M  V30 36 H -2.965990 -1.005494 -1.430434 0
M  V30 37 H -3.462768 -0.578575 1.220110 0
M  V30 38 H -3.774313 1.096502 1.435879 0
M  V30 39 H -1.312079 -0.585893 4.037448 0
M  V30 40 H -0.300472 0.921862 4.489685 0
M  V30 41 H -0.367615 -0.499758 5.507590 0
M  V30 END ATOM
M  V30 BEGIN BOND
M  V30 1 1 1 2
M  V30 2 1 2 3
M  V30 3 1 3 4
M  V30 4 2 4 5
M  V30 5 1 5 6
M  V30 6 1 6 7
M  V30 7 2 7 8
M  V30 8 1 8 9
M  V30 9 2 9 10
M  V30 10 1 10 11
M  V30 11 2 11 12
M  V30 12 2 6 13
M  V30 13 1 13 14
M  V30 14 1 14 15
M  V30 15 1 15 16
M  V30 16 1 16 17
M  V30 17 1 17 18
M  V30 18 1 17 19
M  V30 19 2 14 20
M  V30 20 1 20 21
M  V30 21 1 21 22
M  V30 22 2 21 2
M  V30 23 1 20 4
M  V30 24 1 12 7
M  V30 25 1 1 23
M  V30 26 1 1 24
M  V30 27 1 1 25
M  V30 28 1 8 26
M  V30 29 1 9 27
M  V30 30 1 11 28
M  V30 31 1 12 29
M  V30 32 1 15 30
M  V30 33 1 16 31
M  V30 34 1 16 32
M  V30 35 1 17 33 CFG=3
M  V30 36 1 18 34
M  V30 37 1 18 35
M  V30 38 1 18 36
M  V30 39 1 19 37
M  V30 40 1 19 38
M  V30 41 1 22 39
M  V30 42 1 22 40
M  V30 43 1 22 41
M  V30 END BOND
M  V30 END CTAB
M  END
>  <Dataset>  (987) 
ChEMBL_Kinases

>  <Ligand_Instance>  (987) 
nan

>  <PDB_ID>  (987) 
nan

>  <Standardized_SMILES>  (987) 
Cc1sc2nc(-c3ccncc3)nc(NC[C@@H](C)N)c2c1C

>  <Name>  (987) 
nan

>  <Pocket>  (987) 
nan

>  <ATP_Site>  (987) 
nan

>  <Peripheral>  (987) 
nan

>  <Num_H_Atoms_ProtBoundConf>  (987) 
nan

>  <Num_Resolved_Atoms>  (987) 
nan

>  <Num_Not_Resolved_Atoms>  (987) 
nan

$$$$
CHEMBL3732934
     RDKit          3D

  0  0  0  0  0  0  0  0  0  0999 V3000
M  V30 BEGIN CTAB
M  V30 COUNTS 49 53 0 0 0
M  V30 BEGIN ATOM
M  V30 1 F 0.496326 -1.198700 4.888862 0
M  V30 2 C 0.183952 -0.961733 3.539688 0 CFG=1
M  V30 3 C 0.347218 0.518829 3.282998 0
M  V30 4 N 0.973938 0.650505 2.003081 0
M  V30 5 C 1.759017 1.809374 1.871375 0
M  V30 6 C 2.446212 2.056527 0.616002 0
M  V30 7 C 3.713915 1.686410 0.207255 0
M  V30 8 C 4.211735 2.009585 -1.039251 0
M  V30 9 C 3.452379 2.726041 -1.941086 0
M  V30 10 C 2.180841 3.116196 -1.574860 0
M  V30 11 C 1.702003 2.783373 -0.325013 0
M  V30 12 C 1.471967 -0.594922 1.599468 0
M  V30 13 C 1.282986 -1.558816 2.728442 0 CFG=2
M  V30 14 N 0.915548 -2.855749 2.198559 0
M  V30 15 C -0.219973 -2.969255 1.355134 0
M  V30 16 N -0.985797 -1.905823 1.022904 0
M  V30 17 C -2.033485 -2.193159 0.206760 0
M  V30 18 C -2.900061 -1.060082 -0.184033 0
M  V30 19 C -3.988066 -1.248005 -1.009884 0
M  V30 20 C -4.800503 -0.168798 -1.373224 0
M  V30 21 N -4.492231 1.070879 -0.892668 0
M  V30 22 C -3.431881 1.205690 -0.097803 0
M  V30 23 C -2.571165 0.180814 0.311671 0
M  V30 24 N -2.330813 -3.396104 -0.257575 0
M  V30 25 C -1.593144 -4.476029 0.050919 0
M  V30 26 C -1.855468 -5.731629 -0.399074 0
M  V30 27 C -0.925668 -6.741283 0.062742 0
M  V30 28 S 0.278169 -5.750537 1.137559 0
M  V30 29 C -0.521494 -4.200953 0.881775 0
M  V30 30 H -0.804053 -1.360746 3.309284 0
M  V30 31 H -0.601975 1.086453 3.378058 0
M  V30 32 H 1.014243 0.949177 4.065845 0
M  V30 33 H 1.124299 2.686256 2.155279 0
M  V30 34 H 2.547771 1.794854 2.679898 0
M  V30 35 H 4.262706 1.129361 0.952838 0
M  V30 36 H 5.211054 1.684238 -1.283772 0
M  V30 37 H 3.851337 2.974431 -2.915265 0
M  V30 38 H 1.591508 3.675966 -2.283289 0
M  V30 39 H 0.688031 3.134634 -0.125968 0
M  V30 40 H 1.129207 -0.967877 0.619341 0
M  V30 41 H 2.597566 -0.509999 1.469386 0
M  V30 42 H 2.206742 -1.668210 3.346986 0
M  V30 43 H 1.502956 -3.677889 2.455293 0
M  V30 44 H -4.232014 -2.229527 -1.390242 0
M  V30 45 H -5.662407 -0.267325 -2.017042 0
M  V30 46 H -3.210074 2.211857 0.271597 0
M  V30 47 H -1.730861 0.372399 0.959254 0
M  V30 48 H -2.645020 -6.078009 -1.041005 0
M  V30 49 H -1.014573 -7.850142 -0.231599 0
M  V30 END ATOM
M  V30 BEGIN BOND
M  V30 1 1 1 2
M  V30 2 1 2 3
M  V30 3 1 3 4
M  V30 4 1 4 5
M  V30 5 1 5 6
M  V30 6 2 6 7
M  V30 7 1 7 8
M  V30 8 2 8 9
M  V30 9 1 9 10
M  V30 10 2 10 11
M  V30 11 1 4 12
M  V30 12 1 12 13
M  V30 13 1 13 14
M  V30 14 1 14 15
M  V30 15 2 15 16
M  V30 16 1 16 17
M  V30 17 1 17 18
M  V30 18 2 18 19
M  V30 19 1 19 20
M  V30 20 2 20 21
M  V30 21 1 21 22
M  V30 22 2 22 23
M  V30 23 2 17 24
M  V30 24 1 24 25
M  V30 25 1 25 26
M  V30 26 2 26 27
M  V30 27 1 27 28
M  V30 28 1 28 29
M  V30 29 1 13 2
M  V30 30 1 29 15
M  V30 31 1 11 6
M  V30 32 1 23 18
M  V30 33 2 29 25
M  V30 34 1 2 30 CFG=3
M  V30 35 1 3 31
M  V30 36 1 3 32
M  V30 37 1 5 33
M  V30 38 1 5 34
M  V30 39 1 7 35
M  V30 40 1 8 36
M  V30 41 1 9 37
M  V30 42 1 10 38
M  V30 43 1 11 39
M  V30 44 1 12 40
M  V30 45 1 12 41
M  V30 46 1 13 42 CFG=1
M  V30 47 1 14 43
M  V30 48 1 19 44
M  V30 49 1 20 45
M  V30 50 1 22 46
M  V30 51 1 23 47
M  V30 52 1 26 48
M  V30 53 1 27 49
M  V30 END BOND
M  V30 END CTAB
M  END
>  <Dataset>  (988) 
ChEMBL_Kinases

>  <Ligand_Instance>  (988) 
nan

>  <PDB_ID>  (988) 
nan

>  <Standardized_SMILES>  (988) 
F[C@H]1CN(Cc2ccccc2)C[C@@H]1Nc1nc(-c2ccncc2)nc2ccsc12

>  <Name>  (988) 
nan

>  <Pocket>  (988) 
nan

>  <ATP_Site>  (988) 
nan

>  <Peripheral>  (988) 
nan

>  <Num_H_Atoms_ProtBoundConf>  (988) 
nan

>  <Num_Resolved_Atoms>  (988) 
nan

>  <Num_Not_Resolved_Atoms>  (988) 
nan

$$$$
CHEMBL3732903
     RDKit          3D

  0  0  0  0  0  0  0  0  0  0999 V3000
M  V30 BEGIN CTAB
M  V30 COUNTS 35 37 0 0 0
M  V30 BEGIN ATOM
M  V30 1 C 1.339989 -4.109329 0.558508 0
M  V30 2 C 0.140517 -3.848790 1.461032 0 CFG=2
M  V30 3 N -0.951674 -3.385522 0.678200 0
M  V30 4 C 0.532550 -2.825578 2.503529 0
M  V30 5 N 0.912019 -1.602107 1.823332 0
M  V30 6 C -0.195332 -0.785253 1.646894 0
M  V30 7 N 0.635931 0.044688 0.808026 0
M  V30 8 C 0.196698 1.167148 0.198717 0
M  V30 9 C 1.029835 2.069374 -0.681455 0
M  V30 10 C 2.341138 1.623479 -0.840830 0
M  V30 11 C 3.155145 2.398590 -1.617182 0
M  V30 12 N 2.692213 3.518090 -2.180279 0
M  V30 13 C 1.419837 3.917210 -2.004129 0
M  V30 14 C 0.511025 3.205842 -1.236918 0
M  V30 15 F -0.775799 3.554236 -1.023331 0
M  V30 16 N -1.084225 1.623972 0.321822 0
M  V30 17 C -1.976258 0.975784 1.060933 0
M  V30 18 C -3.238107 1.006331 1.494986 0
M  V30 19 C -3.769799 0.032914 2.362744 0
M  V30 20 S -2.249381 -1.054828 2.568605 0
M  V30 21 C -1.240194 -0.014409 1.480367 0
M  V30 22 H 1.475958 -5.188088 0.408721 0
M  V30 23 H 1.163252 -3.634720 -0.428306 0
M  V30 24 H 2.232080 -3.680165 1.034842 0
M  V30 25 H -0.076086 -4.807156 1.991697 0
M  V30 26 H -1.820278 -3.925442 0.789758 0
M  V30 27 H -0.713069 -3.168908 -0.319298 0
M  V30 28 H 1.398692 -3.237899 3.053657 0
M  V30 29 H -0.297684 -2.673718 3.238020 0
M  V30 30 H 1.903556 -1.691692 1.668822 0
M  V30 31 H 2.701774 0.713877 -0.378468 0
M  V30 32 H 4.176409 2.045389 -1.737495 0
M  V30 33 H 1.026293 4.829995 -2.457987 0
M  V30 34 H -3.783535 1.853961 1.105098 0
M  V30 35 H -4.919326 0.181269 2.676657 0
M  V30 END ATOM
M  V30 BEGIN BOND
M  V30 1 1 1 2
M  V30 2 1 2 3
M  V30 3 1 2 4
M  V30 4 1 4 5
M  V30 5 1 5 6
M  V30 6 2 6 7
M  V30 7 1 7 8
M  V30 8 1 8 9
M  V30 9 2 9 10
M  V30 10 1 10 11
M  V30 11 2 11 12
M  V30 12 1 12 13
M  V30 13 2 13 14
M  V30 14 1 14 15
M  V30 15 2 8 16
M  V30 16 1 16 17
M  V30 17 1 17 18
M  V30 18 2 18 19
M  V30 19 1 19 20
M  V30 20 1 20 21
M  V30 21 1 21 6
M  V30 22 1 14 9
M  V30 23 2 21 17
M  V30 24 1 1 22
M  V30 25 1 1 23
M  V30 26 1 1 24
M  V30 27 1 2 25 CFG=1
M  V30 28 1 3 26
M  V30 29 1 3 27
M  V30 30 1 4 28
M  V30 31 1 4 29
M  V30 32 1 5 30
M  V30 33 1 10 31
M  V30 34 1 11 32
M  V30 35 1 13 33
M  V30 36 1 18 34
M  V30 37 1 19 35
M  V30 END BOND
M  V30 END CTAB
M  END
>  <Dataset>  (989) 
ChEMBL_Kinases

>  <Ligand_Instance>  (989) 
nan

>  <PDB_ID>  (989) 
nan

>  <Standardized_SMILES>  (989) 
C[C@H](N)CNc1nc(-c2ccncc2F)nc2ccsc12

>  <Name>  (989) 
nan

>  <Pocket>  (989) 
nan

>  <ATP_Site>  (989) 
nan

>  <Peripheral>  (989) 
nan

>  <Num_H_Atoms_ProtBoundConf>  (989) 
nan

>  <Num_Resolved_Atoms>  (989) 
nan

>  <Num_Not_Resolved_Atoms>  (989) 
nan

$$$$
CHEMBL370316
     RDKit          3D

  0  0  0  0  0  0  0  0  0  0999 V3000
M  V30 BEGIN CTAB
M  V30 COUNTS 39 42 0 0 0
M  V30 BEGIN ATOM
M  V30 1 F 2.181986 -5.767459 5.634189 0
M  V30 2 C 1.877189 -4.958264 4.579822 0
M  V30 3 C 2.029936 -5.448742 3.297105 0
M  V30 4 C 1.714348 -4.610029 2.231441 0
M  V30 5 C 1.249084 -3.291664 2.381555 0
M  V30 6 O 0.933664 -2.443189 1.388356 0
M  V30 7 C -0.164225 -2.055054 0.745743 0
M  V30 8 N 0.287512 -1.154091 -0.175040 0
M  V30 9 C -0.565488 -0.522745 -1.038428 0
M  V30 10 N -0.312897 0.418967 -2.071451 0
M  V30 11 C 0.007820 1.787669 -1.868253 0
M  V30 12 C 0.139552 2.772787 -2.828158 0
M  V30 13 C 0.484227 4.074071 -2.521744 0
M  V30 14 C 0.705714 4.385265 -1.171838 0
M  V30 15 N 1.058731 5.570785 -0.585363 0
M  V30 16 C 1.157759 5.357493 0.763674 0
M  V30 17 N 0.866148 4.044611 1.006126 0
M  V30 18 C 0.588007 3.443393 -0.177138 0
M  V30 19 C 0.240954 2.159023 -0.538547 0
M  V30 20 N -1.902457 -0.781810 -0.998931 0
M  V30 21 C -2.409982 -1.659671 -0.115671 0
M  V30 22 C -1.516685 -2.271776 0.733748 0
M  V30 23 C -1.934861 -3.254000 1.755092 0
M  V30 24 F -1.353120 -4.490713 1.613675 0
M  V30 25 F -1.901534 -2.753780 3.034688 0
M  V30 26 F -3.306040 -3.496850 1.508692 0
M  V30 27 C 1.149494 -2.947374 3.715095 0
M  V30 28 C 1.426997 -3.676753 4.849322 0
M  V30 29 H 2.384975 -6.458259 3.113811 0
M  V30 30 H 1.829504 -4.978178 1.213138 0
M  V30 31 H -0.343629 0.188257 -3.100300 0
M  V30 32 H -0.053599 2.420665 -3.824703 0
M  V30 33 H 0.573079 4.806223 -3.311609 0
M  V30 34 H 1.231324 6.500965 -1.058506 0
M  V30 35 H 1.423064 6.086761 1.543346 0
M  V30 36 H 0.166252 1.473022 0.297621 0
M  V30 37 H -3.439214 -1.937788 0.000913 0
M  V30 38 H 0.788601 -1.918374 3.892106 0
M  V30 39 H 1.294774 -3.254203 5.832538 0
M  V30 END ATOM
M  V30 BEGIN BOND
M  V30 1 1 1 2
M  V30 2 2 2 3
M  V30 3 1 3 4
M  V30 4 2 4 5
M  V30 5 1 5 6
M  V30 6 1 6 7
M  V30 7 2 7 8
M  V30 8 1 8 9
M  V30 9 1 9 10
M  V30 10 1 10 11
M  V30 11 2 11 12
M  V30 12 1 12 13
M  V30 13 2 13 14
M  V30 14 1 14 15
M  V30 15 1 15 16
M  V30 16 2 16 17
M  V30 17 1 17 18
M  V30 18 2 18 19
M  V30 19 2 9 20
M  V30 20 1 20 21
M  V30 21 2 21 22
M  V30 22 1 22 23
M  V30 23 1 23 24
M  V30 24 1 23 25
M  V30 25 1 23 26
M  V30 26 1 5 27
M  V30 27 2 27 28
M  V30 28 1 28 2
M  V30 29 1 22 7
M  V30 30 1 19 11
M  V30 31 1 18 14
M  V30 32 1 3 29
M  V30 33 1 4 30
M  V30 34 1 10 31
M  V30 35 1 12 32
M  V30 36 1 13 33
M  V30 37 1 15 34
M  V30 38 1 16 35
M  V30 39 1 19 36
M  V30 40 1 21 37
M  V30 41 1 27 38
M  V30 42 1 28 39
M  V30 END BOND
M  V30 END CTAB
M  END
>  <Dataset>  (990) 
ChEMBL_Kinases

>  <Ligand_Instance>  (990) 
nan

>  <PDB_ID>  (990) 
nan

>  <Standardized_SMILES>  (990) 
Fc1ccc(Oc2nc(Nc3ccc4[nH]cnc4c3)ncc2C(F)(F)F)cc1

>  <Name>  (990) 
nan

>  <Pocket>  (990) 
nan

>  <ATP_Site>  (990) 
nan

>  <Peripheral>  (990) 
nan

>  <Num_H_Atoms_ProtBoundConf>  (990) 
nan

>  <Num_Resolved_Atoms>  (990) 
nan

>  <Num_Not_Resolved_Atoms>  (990) 
nan

$$$$
CHEMBL520316
     RDKit          3D

  0  0  0  0  0  0  0  0  0  0999 V3000
M  V30 BEGIN CTAB
M  V30 COUNTS 48 51 0 0 0
M  V30 BEGIN ATOM
M  V30 1 N 3.119855 -5.398516 1.629132 0
M  V30 2 S 2.443689 -5.257870 0.026168 0
M  V30 3 O 1.351515 -6.261586 -0.140730 0
M  V30 4 O 3.546340 -5.413063 -0.981527 0
M  V30 5 C 1.757905 -3.647474 -0.123042 0
M  V30 6 C 2.534579 -2.596409 -0.590417 0
M  V30 7 C 1.997881 -1.320459 -0.711472 0
M  V30 8 C 0.667338 -1.089400 -0.361324 0
M  V30 9 C 0.095160 0.268734 -0.492797 0
M  V30 10 C 0.448650 0.826581 -1.728202 0
M  V30 11 C 0.029754 2.090299 -2.086427 0
M  V30 12 C 0.335691 2.706681 -3.281496 0
M  V30 13 C -0.156421 3.977030 -3.499330 0
M  V30 14 N -0.919788 4.625189 -2.585845 0
M  V30 15 C -1.245595 4.051503 -1.391305 0
M  V30 16 C -0.753261 2.781424 -1.174087 0
M  V30 17 C -1.095212 2.225230 0.036896 0
M  V30 18 C -0.698309 0.982641 0.419237 0
M  V30 19 O -0.872746 0.181730 1.526805 0
M  V30 20 C -1.640050 0.653091 2.605799 0
M  V30 21 C -0.750933 0.686707 3.841526 0
M  V30 22 C -0.126193 -0.650339 4.024999 0
M  V30 23 C -0.922632 -1.828196 3.622123 0
M  V30 24 N -2.177858 -1.633289 3.056149 0
M  V30 25 C -2.741679 -0.344852 2.964750 0
M  V30 26 C -0.086281 -2.148630 0.100954 0
M  V30 27 C 0.440552 -3.428302 0.225866 0
M  V30 28 H 3.829853 -4.678904 1.802509 0
M  V30 29 H 2.352074 -5.302631 2.318328 0
M  V30 30 H 3.573482 -2.762453 -0.866732 0
M  V30 31 H 2.569379 -0.466881 -1.073229 0
M  V30 32 H 1.053022 0.352188 -2.487550 0
M  V30 33 H 0.944870 2.147905 -3.971642 0
M  V30 34 H 0.094778 4.457853 -4.456914 0
M  V30 35 H -1.857384 4.569459 -0.657886 0
M  V30 36 H -1.697993 2.697944 0.796186 0
M  V30 37 H -2.069807 1.658881 2.451036 0
M  V30 38 H -0.054825 1.522806 3.828534 0
M  V30 39 H -1.447656 0.860673 4.691541 0
M  V30 40 H 0.825870 -0.640181 3.414338 0
M  V30 41 H 0.243743 -0.703195 5.077242 0
M  V30 42 H -0.323278 -2.521179 2.960329 0
M  V30 43 H -1.061721 -2.454655 4.554964 0
M  V30 44 H -2.823928 -2.432250 3.009636 0
M  V30 45 H -3.126284 -0.033350 3.958276 0
M  V30 46 H -3.569486 -0.260305 2.247207 0
M  V30 47 H -1.124055 -1.967307 0.374098 0
M  V30 48 H -0.168579 -4.250085 0.592051 0
M  V30 END ATOM
M  V30 BEGIN BOND
M  V30 1 1 1 2
M  V30 2 2 2 3
M  V30 3 2 2 4
M  V30 4 1 2 5
M  V30 5 2 5 6
M  V30 6 1 6 7
M  V30 7 2 7 8
M  V30 8 1 8 9
M  V30 9 2 9 10
M  V30 10 1 10 11
M  V30 11 2 11 12
M  V30 12 1 12 13
M  V30 13 2 13 14
M  V30 14 1 14 15
M  V30 15 2 15 16
M  V30 16 1 16 17
M  V30 17 2 17 18
M  V30 18 1 18 19
M  V30 19 1 19 20
M  V30 20 1 20 21
M  V30 21 1 21 22
M  V30 22 1 22 23
M  V30 23 1 23 24
M  V30 24 1 24 25
M  V30 25 1 8 26
M  V30 26 2 26 27
M  V30 27 1 27 5
M  V30 28 1 18 9
M  V30 29 1 25 20
M  V30 30 1 16 11
M  V30 31 1 1 28
M  V30 32 1 1 29
M  V30 33 1 6 30
M  V30 34 1 7 31
M  V30 35 1 10 32
M  V30 36 1 12 33
M  V30 37 1 13 34
M  V30 38 1 15 35
M  V30 39 1 17 36
M  V30 40 1 20 37
M  V30 41 1 21 38
M  V30 42 1 21 39
M  V30 43 1 22 40
M  V30 44 1 22 41
M  V30 45 1 23 42
M  V30 46 1 23 43
M  V30 47 1 24 44
M  V30 48 1 25 45
M  V30 49 1 25 46
M  V30 50 1 26 47
M  V30 51 1 27 48
M  V30 END BOND
M  V30 END CTAB
M  END
>  <Dataset>  (991) 
ChEMBL_Kinases

>  <Ligand_Instance>  (991) 
nan

>  <PDB_ID>  (991) 
nan

>  <Standardized_SMILES>  (991) 
NS(=O)(=O)c1ccc(-c2cc3ccncc3cc2OC2CCCNC2)cc1

>  <Name>  (991) 
nan

>  <Pocket>  (991) 
nan

>  <ATP_Site>  (991) 
nan

>  <Peripheral>  (991) 
nan

>  <Num_H_Atoms_ProtBoundConf>  (991) 
nan

>  <Num_Resolved_Atoms>  (991) 
nan

>  <Num_Not_Resolved_Atoms>  (991) 
nan

$$$$
CHEMBL3732901
     RDKit          3D

  0  0  0  0  0  0  0  0  0  0999 V3000
M  V30 BEGIN CTAB
M  V30 COUNTS 50 54 0 0 0
M  V30 BEGIN ATOM
M  V30 1 C 0.161396 -1.009588 5.300657 0
M  V30 2 C 0.918762 -2.177477 4.761437 0
M  V30 3 N 1.666674 -3.050091 5.450677 0
M  V30 4 N 2.190341 -3.957668 4.642331 0
M  V30 5 C 1.771723 -3.664968 3.404691 0
M  V30 6 C 2.078832 -4.382922 2.122264 0
M  V30 7 C 0.955281 -2.537502 3.413550 0
M  V30 8 C 0.285929 -1.868786 2.308244 0
M  V30 9 N 0.716109 -0.887306 1.530810 0
M  V30 10 C 0.038488 -0.312803 0.519906 0
M  V30 11 N 0.854598 0.713730 -0.017045 0
M  V30 12 C 0.937900 2.182822 -0.081993 0
M  V30 13 C 2.164377 2.591677 0.674090 0
M  V30 14 N 3.384422 2.082422 0.120447 0
M  V30 15 C 3.324513 0.657308 -0.131279 0
M  V30 16 C 2.018413 0.250004 -0.770228 0
M  V30 17 C -1.231416 -0.756188 0.226074 0
M  V30 18 C -1.976484 -0.241369 -0.772965 0
M  V30 19 C -3.247045 -0.847924 -0.900127 0
M  V30 20 S -3.284001 -2.072740 0.376053 0
M  V30 21 C -1.681576 -1.747653 1.002792 0
M  V30 22 N -0.953554 -2.293516 2.014663 0
M  V30 23 C -4.239865 -0.406660 -1.965147 0
M  V30 24 C -3.554117 -0.296647 -3.322727 0
M  V30 25 C -2.093301 0.049787 -3.170716 0
M  V30 26 C -1.917690 0.779039 -1.844547 0
M  V30 27 H -0.369337 -1.265967 6.248157 0
M  V30 28 H 0.811195 -0.155616 5.543417 0
M  V30 29 H -0.640763 -0.712865 4.580998 0
M  V30 30 H 2.819806 -4.773913 4.866345 0
M  V30 31 H 1.129829 -4.807694 1.696017 0
M  V30 32 H 2.870165 -5.120869 2.239231 0
M  V30 33 H 2.418525 -3.576518 1.414839 0
M  V30 34 H 0.071859 2.641580 0.448723 0
M  V30 35 H 0.978011 2.546912 -1.112586 0
M  V30 36 H 2.050935 2.234234 1.717292 0
M  V30 37 H 2.255853 3.703255 0.702299 0
M  V30 38 H 4.144724 2.233524 0.820121 0
M  V30 39 H 3.374146 0.144537 0.847706 0
M  V30 40 H 4.127789 0.415174 -0.832057 0
M  V30 41 H 2.061942 -0.854051 -0.856810 0
M  V30 42 H 1.919142 0.610475 -1.822168 0
M  V30 43 H -5.010004 -1.175609 -2.085819 0
M  V30 44 H -4.635364 0.577825 -1.658643 0
M  V30 45 H -3.602799 -1.279778 -3.834309 0
M  V30 46 H -4.124314 0.435850 -3.898516 0
M  V30 47 H -1.444036 -0.848788 -3.118884 0
M  V30 48 H -1.735672 0.697068 -3.987571 0
M  V30 49 H -1.050921 1.419398 -1.853194 0
M  V30 50 H -2.807897 1.475416 -1.787235 0
M  V30 END ATOM
M  V30 BEGIN BOND
M  V30 1 1 1 2
M  V30 2 2 2 3
M  V30 3 1 3 4
M  V30 4 1 4 5
M  V30 5 1 5 6
M  V30 6 2 5 7
M  V30 7 1 7 8
M  V30 8 2 8 9
M  V30 9 1 9 10
M  V30 10 1 10 11
M  V30 11 1 11 12
M  V30 12 1 12 13
M  V30 13 1 13 14
M  V30 14 1 14 15
M  V30 15 1 15 16
M  V30 16 2 10 17
M  V30 17 1 17 18
M  V30 18 2 18 19
M  V30 19 1 19 20
M  V30 20 1 20 21
M  V30 21 2 21 22
M  V30 22 1 19 23
M  V30 23 1 23 24
M  V30 24 1 24 25
M  V30 25 1 25 26
M  V30 26 1 7 2
M  V30 27 1 22 8
M  V30 28 1 16 11
M  V30 29 1 21 17
M  V30 30 1 26 18
M  V30 31 1 1 27
M  V30 32 1 1 28
M  V30 33 1 1 29
M  V30 34 1 4 30
M  V30 35 1 6 31
M  V30 36 1 6 32
M  V30 37 1 6 33
M  V30 38 1 12 34
M  V30 39 1 12 35
M  V30 40 1 13 36
M  V30 41 1 13 37
M  V30 42 1 14 38
M  V30 43 1 15 39
M  V30 44 1 15 40
M  V30 45 1 16 41
M  V30 46 1 16 42
M  V30 47 1 23 43
M  V30 48 1 23 44
M  V30 49 1 24 45
M  V30 50 1 24 46
M  V30 51 1 25 47
M  V30 52 1 25 48
M  V30 53 1 26 49
M  V30 54 1 26 50
M  V30 END BOND
M  V30 END CTAB
M  END
>  <Dataset>  (992) 
ChEMBL_Kinases

>  <Ligand_Instance>  (992) 
nan

>  <PDB_ID>  (992) 
nan

>  <Standardized_SMILES>  (992) 
Cc1n[nH]c(C)c1-c1nc(N2CCNCC2)c2c3c(sc2n1)CCCC3

>  <Name>  (992) 
nan

>  <Pocket>  (992) 
nan

>  <ATP_Site>  (992) 
nan

>  <Peripheral>  (992) 
nan

>  <Num_H_Atoms_ProtBoundConf>  (992) 
nan

>  <Num_Resolved_Atoms>  (992) 
nan

>  <Num_Not_Resolved_Atoms>  (992) 
nan

$$$$
CHEMBL520397
     RDKit          3D

  0  0  0  0  0  0  0  0  0  0999 V3000
M  V30 BEGIN CTAB
M  V30 COUNTS 48 49 0 0 0
M  V30 BEGIN ATOM
M  V30 1 C 2.555534 -3.897378 3.106426 0
M  V30 2 C 2.710253 -3.512220 1.644057 0
M  V30 3 C 1.805315 -4.377865 0.807050 0
M  V30 4 C 4.153503 -3.706775 1.194429 0
M  V30 5 C 2.332440 -2.083426 1.560058 0
M  V30 6 O 1.985029 -1.556848 2.642047 0
M  V30 7 O 2.277120 -1.180101 0.524732 0
M  V30 8 C 1.860240 0.149348 0.794977 0
M  V30 9 C 1.881489 0.928203 -0.487950 0
M  V30 10 C 3.241730 1.082774 -1.057474 0
M  V30 11 O 3.783384 -0.133598 -1.449015 0
M  V30 12 C 1.161367 2.231662 -0.211065 0
M  V30 13 C -0.253177 1.707638 -0.146822 0
M  V30 14 C -1.373897 2.177676 0.396033 0
M  V30 15 C -2.698567 1.626517 0.417918 0
M  V30 16 C -3.239290 1.613189 1.711750 0
M  V30 17 C -4.522999 1.140784 1.996029 0
M  V30 18 C -5.262677 0.673961 0.933716 0
M  V30 19 C -6.640606 0.164944 1.272598 0
M  V30 20 F -7.281429 -0.130043 0.092089 0
M  V30 21 F -7.377230 1.153245 1.909039 0
M  V30 22 F -6.537884 -0.952999 2.080297 0
M  V30 23 C -4.776426 0.666311 -0.356280 0
M  V30 24 C -3.505258 1.142920 -0.588856 0
M  V30 25 C -0.258267 0.387248 -0.818061 0
M  V30 26 O -1.169087 -0.510893 -0.825527 0
M  V30 27 O 1.000092 0.347007 -1.460182 0
M  V30 28 H 3.425889 -3.486003 3.665404 0
M  V30 29 H 1.642852 -3.391564 3.452251 0
M  V30 30 H 2.510000 -4.983191 3.166614 0
M  V30 31 H 2.345845 -4.682311 -0.113869 0
M  V30 32 H 0.857716 -3.841623 0.588096 0
M  V30 33 H 1.547771 -5.304467 1.360801 0
M  V30 34 H 4.227498 -3.546143 0.116773 0
M  V30 35 H 4.787982 -2.941976 1.714012 0
M  V30 36 H 4.477693 -4.729407 1.492784 0
M  V30 37 H 0.836226 0.077099 1.224217 0
M  V30 38 H 2.464415 0.647047 1.578198 0
M  V30 39 H 3.905653 1.453371 -0.221374 0
M  V30 40 H 3.328716 1.787480 -1.881012 0
M  V30 41 H 3.083918 -0.758650 -1.818477 0
M  V30 42 H 1.464132 2.677099 0.752454 0
M  V30 43 H 1.268560 2.972134 -1.021255 0
M  V30 44 H -1.209534 3.143706 0.892594 0
M  V30 45 H -2.710552 1.968869 2.605582 0
M  V30 46 H -4.922344 1.137287 2.996285 0
M  V30 47 H -5.371094 0.298131 -1.172018 0
M  V30 48 H -3.068020 1.184618 -1.565349 0
M  V30 END ATOM
M  V30 BEGIN BOND
M  V30 1 1 1 2
M  V30 2 1 2 3
M  V30 3 1 2 4
M  V30 4 1 2 5
M  V30 5 2 5 6
M  V30 6 1 5 7
M  V30 7 1 7 8
M  V30 8 1 8 9
M  V30 9 1 9 10
M  V30 10 1 10 11
M  V30 11 1 9 12
M  V30 12 1 12 13
M  V30 13 2 13 14
M  V30 14 1 14 15
M  V30 15 2 15 16
M  V30 16 1 16 17
M  V30 17 2 17 18
M  V30 18 1 18 19
M  V30 19 1 19 20
M  V30 20 1 19 21
M  V30 21 1 19 22
M  V30 22 1 18 23
M  V30 23 2 23 24
M  V30 24 1 13 25
M  V30 25 2 25 26
M  V30 26 1 25 27
M  V30 27 1 27 9
M  V30 28 1 24 15
M  V30 29 1 1 28
M  V30 30 1 1 29
M  V30 31 1 1 30
M  V30 32 1 3 31
M  V30 33 1 3 32
M  V30 34 1 3 33
M  V30 35 1 4 34
M  V30 36 1 4 35
M  V30 37 1 4 36
M  V30 38 1 8 37
M  V30 39 1 8 38
M  V30 40 1 10 39
M  V30 41 1 10 40
M  V30 42 1 11 41
M  V30 43 1 12 42
M  V30 44 1 12 43
M  V30 45 1 14 44
M  V30 46 1 16 45
M  V30 47 1 17 46
M  V30 48 1 23 47
M  V30 49 1 24 48
M  V30 END BOND
M  V30 END CTAB
M  END
>  <Dataset>  (993) 
ChEMBL_Kinases

>  <Ligand_Instance>  (993) 
nan

>  <PDB_ID>  (993) 
nan

>  <Standardized_SMILES>  (993) 
CC(C)(C)C(=O)OCC1(CO)C/C(=C/c2ccc(C(F)(F)F)cc2)C(=O)O1

>  <Name>  (993) 
nan

>  <Pocket>  (993) 
nan

>  <ATP_Site>  (993) 
nan

>  <Peripheral>  (993) 
nan

>  <Num_H_Atoms_ProtBoundConf>  (993) 
nan

>  <Num_Resolved_Atoms>  (993) 
nan

>  <Num_Not_Resolved_Atoms>  (993) 
nan

$$$$
CHEMBL3732881
     RDKit          3D

  0  0  0  0  0  0  0  0  0  0999 V3000
M  V30 BEGIN CTAB
M  V30 COUNTS 53 56 0 0 0
M  V30 BEGIN ATOM
M  V30 1 C 1.191339 -2.080368 5.125712 0
M  V30 2 C 0.378409 -2.390094 3.882559 0
M  V30 3 C -0.630439 -1.311301 3.664896 0
M  V30 4 C 1.153698 -2.851506 2.722395 0
M  V30 5 C 2.199487 -1.978238 2.137347 0 CFG=2
M  V30 6 N 3.266196 -1.596003 3.014617 0
M  V30 7 C 1.590295 -0.794343 1.419793 0
M  V30 8 O 0.573220 -1.159531 0.545070 0
M  V30 9 C -0.092037 -0.182717 -0.186352 0
M  V30 10 N 0.246413 1.078615 -0.039519 0
M  V30 11 C -0.251277 2.149644 -0.628692 0
M  V30 12 C 0.097487 3.551411 -0.490500 0
M  V30 13 C 1.110827 3.836234 0.394121 0
M  V30 14 C 1.491658 5.171350 0.569877 0
M  V30 15 N 0.888698 6.166303 -0.105075 0
M  V30 16 C -0.097747 5.874800 -0.964404 0
M  V30 17 C -0.515289 4.577268 -1.178317 0
M  V30 18 N -1.240543 1.880562 -1.493869 0
M  V30 19 C -1.660660 0.625916 -1.716034 0
M  V30 20 S -2.967519 -0.126676 -2.809424 0
M  V30 21 C -2.669515 -1.865787 -2.317786 0
M  V30 22 C -1.586449 -1.734395 -1.349206 0
M  V30 23 C -1.095488 -0.502320 -1.058442 0
M  V30 24 C -1.268610 -3.105239 -0.892253 0
M  V30 25 C -1.013752 -3.999943 -2.087433 0
M  V30 26 C -2.284621 -4.245468 -2.872215 0
M  V30 27 C -3.262400 -3.098821 -2.705885 0
M  V30 28 H 1.803444 -2.976470 5.347961 0
M  V30 29 H 1.753196 -1.150104 5.082820 0
M  V30 30 H 0.475188 -1.955621 6.002977 0
M  V30 31 H -0.254602 -3.299102 4.202374 0
M  V30 32 H -1.519477 -1.438423 4.367303 0
M  V30 33 H -1.074286 -1.242806 2.677158 0
M  V30 34 H -0.239564 -0.299077 3.960736 0
M  V30 35 H 0.438990 -3.245774 1.956995 0
M  V30 36 H 1.695432 -3.798690 3.057141 0
M  V30 37 H 2.737873 -2.558413 1.299586 0
M  V30 38 H 3.390136 -2.267468 3.757413 0
M  V30 39 H 3.179236 -0.609042 3.287433 0
M  V30 40 H 2.375061 -0.285029 0.776600 0
M  V30 41 H 1.260699 -0.026754 2.154073 0
M  V30 42 H 1.638956 3.089829 0.969344 0
M  V30 43 H 2.271881 5.498739 1.237190 0
M  V30 44 H -0.645385 6.597789 -1.554375 0
M  V30 45 H -1.300841 4.250907 -1.850604 0
M  V30 46 H -2.116802 -3.556816 -0.325496 0
M  V30 47 H -0.357622 -3.129960 -0.277982 0
M  V30 48 H -0.662953 -4.970918 -1.676530 0
M  V30 49 H -0.196584 -3.590905 -2.716300 0
M  V30 50 H -2.813206 -5.164173 -2.545263 0
M  V30 51 H -1.991499 -4.422281 -3.927131 0
M  V30 52 H -3.710310 -2.964062 -3.731496 0
M  V30 53 H -4.102276 -3.388714 -2.045304 0
M  V30 END ATOM
M  V30 BEGIN BOND
M  V30 1 1 1 2
M  V30 2 1 2 3
M  V30 3 1 2 4
M  V30 4 1 4 5
M  V30 5 1 5 6
M  V30 6 1 5 7
M  V30 7 1 7 8
M  V30 8 1 8 9
M  V30 9 2 9 10
M  V30 10 1 10 11
M  V30 11 1 11 12
M  V30 12 2 12 13
M  V30 13 1 13 14
M  V30 14 2 14 15
M  V30 15 1 15 16
M  V30 16 2 16 17
M  V30 17 2 11 18
M  V30 18 1 18 19
M  V30 19 1 19 20
M  V30 20 1 20 21
M  V30 21 2 21 22
M  V30 22 1 22 23
M  V30 23 1 22 24
M  V30 24 1 24 25
M  V30 25 1 25 26
M  V30 26 1 26 27
M  V30 27 1 23 9
M  V30 28 1 17 12
M  V30 29 2 23 19
M  V30 30 1 27 21
M  V30 31 1 1 28
M  V30 32 1 1 29
M  V30 33 1 1 30
M  V30 34 1 2 31
M  V30 35 1 3 32
M  V30 36 1 3 33
M  V30 37 1 3 34
M  V30 38 1 4 35
M  V30 39 1 4 36
M  V30 40 1 5 37 CFG=3
M  V30 41 1 6 38
M  V30 42 1 6 39
M  V30 43 1 7 40
M  V30 44 1 7 41
M  V30 45 1 13 42
M  V30 46 1 14 43
M  V30 47 1 16 44
M  V30 48 1 17 45
M  V30 49 1 24 46
M  V30 50 1 24 47
M  V30 51 1 25 48
M  V30 52 1 25 49
M  V30 53 1 26 50
M  V30 54 1 26 51
M  V30 55 1 27 52
M  V30 56 1 27 53
M  V30 END BOND
M  V30 END CTAB
M  END
>  <Dataset>  (994) 
ChEMBL_Kinases

>  <Ligand_Instance>  (994) 
nan

>  <PDB_ID>  (994) 
nan

>  <Standardized_SMILES>  (994) 
CC(C)C[C@H](N)COc1nc(-c2ccncc2)nc2sc3c(c12)CCCC3

>  <Name>  (994) 
nan

>  <Pocket>  (994) 
nan

>  <ATP_Site>  (994) 
nan

>  <Peripheral>  (994) 
nan

>  <Num_H_Atoms_ProtBoundConf>  (994) 
nan

>  <Num_Resolved_Atoms>  (994) 
nan

>  <Num_Not_Resolved_Atoms>  (994) 
nan

$$$$
CHEMBL3732862
     RDKit          3D

  0  0  0  0  0  0  0  0  0  0999 V3000
M  V30 BEGIN CTAB
M  V30 COUNTS 45 49 0 0 0
M  V30 BEGIN ATOM
M  V30 1 C -0.108891 -4.931199 0.955942 0
M  V30 2 C 0.388083 -3.646253 0.869645 0
M  V30 3 C -0.391949 -2.573940 1.217634 0
M  V30 4 C 0.080569 -1.196897 1.146326 0
M  V30 5 N 1.344101 -1.056360 0.711527 0
M  V30 6 C 1.808708 0.228298 0.636519 0
M  V30 7 N 3.101481 0.625555 0.224620 0
M  V30 8 C 3.877511 1.804297 0.002629 0 CFG=2
M  V30 9 C 3.402304 2.653966 -1.151249 0
M  V30 10 C 4.550091 2.476049 -2.168306 0
M  V30 11 N 5.717689 2.438699 -1.276652 0
M  V30 12 C 5.312389 1.483532 -0.298856 0
M  V30 13 C 0.978522 1.272627 1.000914 0
M  V30 14 S 1.218470 2.995811 1.046338 0
M  V30 15 C -0.520893 3.367468 1.687142 0
M  V30 16 C -1.142194 2.117992 1.812021 0
M  V30 17 C -0.312529 1.106837 1.443707 0
M  V30 18 N -0.690836 -0.184145 1.487545 0
M  V30 19 C -1.679470 -2.810405 1.653980 0
M  V30 20 C -2.152140 -4.098154 1.731539 0
M  V30 21 N -3.478467 -4.357367 2.179956 0
M  V30 22 C -4.369737 -3.287958 2.566863 0
M  V30 23 C -4.751043 -2.229614 1.610916 0
M  V30 24 C -5.737138 -3.332531 1.895206 0
M  V30 25 N -1.368467 -5.133284 1.384827 0
M  V30 26 H 0.549292 -5.750570 0.668187 0
M  V30 27 H 1.398098 -3.451251 0.528000 0
M  V30 28 H 3.651691 -0.251874 0.019610 0
M  V30 29 H 3.892408 2.473378 0.901169 0
M  V30 30 H 2.462502 2.267176 -1.568747 0
M  V30 31 H 3.332873 3.721942 -0.861685 0
M  V30 32 H 4.451258 1.537172 -2.709949 0
M  V30 33 H 4.644617 3.320342 -2.850015 0
M  V30 34 H 5.737946 3.399736 -0.839826 0
M  V30 35 H 5.933557 1.589178 0.616969 0
M  V30 36 H 5.409036 0.448481 -0.727683 0
M  V30 37 H -1.106640 4.411853 1.972314 0
M  V30 38 H -2.153366 2.105257 2.167213 0
M  V30 39 H -2.306582 -1.950276 1.933623 0
M  V30 40 H -3.850425 -5.310289 2.245142 0
M  V30 41 H -4.404064 -3.069073 3.641538 0
M  V30 42 H -4.297609 -2.162843 0.597286 0
M  V30 43 H -5.058147 -1.246114 2.026695 0
M  V30 44 H -6.640101 -3.109795 2.498666 0
M  V30 45 H -5.893676 -4.078455 1.090905 0
M  V30 END ATOM
M  V30 BEGIN BOND
M  V30 1 2 1 2
M  V30 2 1 2 3
M  V30 3 1 3 4
M  V30 4 2 4 5
M  V30 5 1 5 6
M  V30 6 1 6 7
M  V30 7 1 7 8
M  V30 8 1 8 9
M  V30 9 1 9 10
M  V30 10 1 10 11
M  V30 11 1 11 12
M  V30 12 2 6 13
M  V30 13 1 13 14
M  V30 14 1 14 15
M  V30 15 2 15 16
M  V30 16 1 16 17
M  V30 17 2 17 18
M  V30 18 2 3 19
M  V30 19 1 19 20
M  V30 20 1 20 21
M  V30 21 1 21 22
M  V30 22 1 22 23
M  V30 23 1 23 24
M  V30 24 2 20 25
M  V30 25 1 25 1
M  V30 26 1 18 4
M  V30 27 1 24 22
M  V30 28 1 12 8
M  V30 29 1 17 13
M  V30 30 1 1 26
M  V30 31 1 2 27
M  V30 32 1 7 28
M  V30 33 1 8 29 CFG=1
M  V30 34 1 9 30
M  V30 35 1 9 31
M  V30 36 1 10 32
M  V30 37 1 10 33
M  V30 38 1 11 34
M  V30 39 1 12 35
M  V30 40 1 12 36
M  V30 41 1 15 37
M  V30 42 1 16 38
M  V30 43 1 19 39
M  V30 44 1 21 40
M  V30 45 1 22 41
M  V30 46 1 23 42
M  V30 47 1 23 43
M  V30 48 1 24 44
M  V30 49 1 24 45
M  V30 END BOND
M  V30 END CTAB
M  END
>  <Dataset>  (995) 
ChEMBL_Kinases

>  <Ligand_Instance>  (995) 
nan

>  <PDB_ID>  (995) 
nan

>  <Standardized_SMILES>  (995) 
c1cc(-c2nc(N[C@@H]3CCNC3)c3sccc3n2)cc(NC2CC2)n1

>  <Name>  (995) 
nan

>  <Pocket>  (995) 
nan

>  <ATP_Site>  (995) 
nan

>  <Peripheral>  (995) 
nan

>  <Num_H_Atoms_ProtBoundConf>  (995) 
nan

>  <Num_Resolved_Atoms>  (995) 
nan

>  <Num_Not_Resolved_Atoms>  (995) 
nan

$$$$
CHEMBL520437
     RDKit          3D

  0  0  0  0  0  0  0  0  0  0999 V3000
M  V30 BEGIN CTAB
M  V30 COUNTS 50 54 0 0 0
M  V30 BEGIN ATOM
M  V30 1 N 8.118607 -0.967144 0.689272 0
M  V30 2 C 7.180257 -0.408982 0.247470 0
M  V30 3 C 6.051304 0.286986 -0.299916 0
M  V30 4 C 6.034587 1.673317 -0.291363 0
M  V30 5 C 4.954268 2.367601 -0.817847 0
M  V30 6 C 3.921811 1.615958 -1.338148 0
M  V30 7 C 3.943932 0.224003 -1.343877 0
M  V30 8 C 2.715048 -0.371914 -1.961848 0
M  V30 9 C 1.675458 -0.555501 -0.913794 0
M  V30 10 N 0.806055 0.460944 -0.663656 0
M  V30 11 C -0.053745 0.102935 0.311542 0
M  V30 12 C -1.111446 0.977922 0.804594 0
M  V30 13 C -1.189505 1.415263 2.110639 0
M  V30 14 C -2.173197 2.241607 2.609178 0
M  V30 15 C -3.120067 2.620019 1.667884 0
M  V30 16 F -4.123382 3.435577 2.083120 0
M  V30 17 C -3.125987 2.235177 0.342512 0
M  V30 18 C -2.091675 1.396103 -0.079704 0
M  V30 19 C 0.327486 -1.176391 0.646926 0
M  V30 20 C -0.352202 -1.948106 1.681236 0
M  V30 21 C 0.300107 -2.405548 2.819350 0
M  V30 22 C -0.380711 -3.141401 3.794096 0
M  V30 23 N -1.687426 -3.383081 3.578399 0
M  V30 24 C -2.294358 -2.919339 2.451379 0
M  V30 25 N -3.696056 -3.194906 2.251447 0
M  V30 26 C -4.398642 -2.725137 1.064151 0
M  V30 27 C -3.831883 -3.258296 -0.257325 0
M  V30 28 C -5.231880 -3.604242 0.237473 0
M  V30 29 N -1.655453 -2.210382 1.503734 0
M  V30 30 N 1.374518 -1.569230 -0.098073 0
M  V30 31 C 5.020284 -0.459034 -0.819320 0
M  V30 32 H 6.891302 2.187519 0.139206 0
M  V30 33 H 4.950956 3.450648 -0.806187 0
M  V30 34 H 3.093003 2.217109 -1.741237 0
M  V30 35 H 2.349223 0.233948 -2.795843 0
M  V30 36 H 2.945495 -1.386706 -2.349558 0
M  V30 37 H -0.403173 1.066482 2.774197 0
M  V30 38 H -2.223536 2.574361 3.623888 0
M  V30 39 H -3.902763 2.575093 -0.329486 0
M  V30 40 H -2.042565 1.062950 -1.099275 0
M  V30 41 H 1.341102 -2.195765 2.960449 0
M  V30 42 H 0.124185 -3.505374 4.692469 0
M  V30 43 H -4.228158 -3.744071 2.970649 0
M  V30 44 H -4.532652 -1.613736 1.052102 0
M  V30 45 H -3.035158 -4.044838 -0.169008 0
M  V30 46 H -3.712437 -2.573008 -1.101610 0
M  V30 47 H -6.059250 -3.093392 -0.318749 0
M  V30 48 H -5.411816 -4.628671 0.609767 0
M  V30 49 H 1.889152 -2.460504 -0.091501 0
M  V30 50 H 4.962504 -1.518260 -0.860541 0
M  V30 END ATOM
M  V30 BEGIN BOND
M  V30 1 3 1 2
M  V30 2 1 2 3
M  V30 3 2 3 4
M  V30 4 1 4 5
M  V30 5 2 5 6
M  V30 6 1 6 7
M  V30 7 1 7 8
M  V30 8 1 8 9
M  V30 9 2 9 10
M  V30 10 1 10 11
M  V30 11 1 11 12
M  V30 12 2 12 13
M  V30 13 1 13 14
M  V30 14 2 14 15
M  V30 15 1 15 16
M  V30 16 1 15 17
M  V30 17 2 17 18
M  V30 18 2 11 19
M  V30 19 1 19 20
M  V30 20 2 20 21
M  V30 21 1 21 22
M  V30 22 2 22 23
M  V30 23 1 23 24
M  V30 24 1 24 25
M  V30 25 1 25 26
M  V30 26 1 26 27
M  V30 27 1 27 28
M  V30 28 2 24 29
M  V30 29 1 19 30
M  V30 30 2 7 31
M  V30 31 1 31 3
M  V30 32 1 30 9
M  V30 33 1 18 12
M  V30 34 1 29 20
M  V30 35 1 28 26
M  V30 36 1 4 32
M  V30 37 1 5 33
M  V30 38 1 6 34
M  V30 39 1 8 35
M  V30 40 1 8 36
M  V30 41 1 13 37
M  V30 42 1 14 38
M  V30 43 1 17 39
M  V30 44 1 18 40
M  V30 45 1 21 41
M  V30 46 1 22 42
M  V30 47 1 25 43
M  V30 48 1 26 44
M  V30 49 1 27 45
M  V30 50 1 27 46
M  V30 51 1 28 47
M  V30 52 1 28 48
M  V30 53 1 30 49
M  V30 54 1 31 50
M  V30 END BOND
M  V30 END CTAB
M  END
>  <Dataset>  (996) 
ChEMBL_Kinases

>  <Ligand_Instance>  (996) 
nan

>  <PDB_ID>  (996) 
nan

>  <Standardized_SMILES>  (996) 
N#Cc1cccc(Cc2nc(-c3ccc(F)cc3)c(-c3ccnc(NC4CC4)n3)[nH]2)c1

>  <Name>  (996) 
nan

>  <Pocket>  (996) 
nan

>  <ATP_Site>  (996) 
nan

>  <Peripheral>  (996) 
nan

>  <Num_H_Atoms_ProtBoundConf>  (996) 
nan

>  <Num_Resolved_Atoms>  (996) 
nan

>  <Num_Not_Resolved_Atoms>  (996) 
nan

$$$$
CHEMBL520182
     RDKit          3D

  0  0  0  0  0  0  0  0  0  0999 V3000
M  V30 BEGIN CTAB
M  V30 COUNTS 36 39 0 0 0
M  V30 BEGIN ATOM
M  V30 1 O 1.180358 -3.196896 3.748933 0
M  V30 2 C 0.964672 -3.234592 2.514341 0
M  V30 3 O -0.327897 -3.331228 2.025416 0
M  V30 4 C 2.165850 -3.168976 1.685766 0
M  V30 5 C 2.612376 -1.744020 1.496341 0
M  V30 6 N 1.556175 -0.992929 0.845936 0
M  V30 7 C 1.367858 -0.840721 -0.498927 0
M  V30 8 C 2.164002 -1.388291 -1.508016 0
M  V30 9 C 1.884284 -1.170242 -2.848922 0
M  V30 10 C 0.773648 -0.380952 -3.140212 0
M  V30 11 O 0.463464 -0.142004 -4.488367 0
M  V30 12 C 0.032471 0.127447 -2.099234 0
M  V30 13 C 0.270891 -0.060824 -0.787690 0
M  V30 14 C -0.227305 0.274648 0.432578 0
M  V30 15 C -1.306403 1.035999 0.768833 0
M  V30 16 C -1.627127 1.247396 2.087087 0
M  V30 17 C -0.863638 0.693385 3.114287 0
M  V30 18 C 0.219846 -0.070797 2.745205 0
M  V30 19 C 0.544211 -0.285015 1.425263 0
M  V30 20 C -2.825255 2.094888 2.251669 0
M  V30 21 O -3.353110 2.456264 3.333493 0
M  V30 22 N -3.208907 2.383265 0.895929 0
M  V30 23 C -2.293216 1.744586 0.019448 0
M  V30 24 O -2.528832 1.926219 -1.173801 0
M  V30 25 H -1.133933 -3.072174 2.600298 0
M  V30 26 H 1.879499 -3.524249 0.655524 0
M  V30 27 H 2.981278 -3.835119 2.017452 0
M  V30 28 H 3.524124 -1.699456 0.856128 0
M  V30 29 H 2.817544 -1.227996 2.448422 0
M  V30 30 H 3.027811 -2.001936 -1.299545 0
M  V30 31 H 2.498581 -1.593013 -3.630087 0
M  V30 32 H 0.122742 0.794422 -4.736274 0
M  V30 33 H -0.790632 0.714367 -2.422581 0
M  V30 34 H -1.095398 0.845290 4.149218 0
M  V30 35 H 0.805104 -0.492632 3.549487 0
M  V30 36 H -4.061467 2.989016 0.761587 0
M  V30 END ATOM
M  V30 BEGIN BOND
M  V30 1 2 1 2
M  V30 2 1 2 3
M  V30 3 1 2 4
M  V30 4 1 4 5
M  V30 5 1 5 6
M  V30 6 1 6 7
M  V30 7 2 7 8
M  V30 8 1 8 9
M  V30 9 2 9 10
M  V30 10 1 10 11
M  V30 11 1 10 12
M  V30 12 2 12 13
M  V30 13 1 13 14
M  V30 14 2 14 15
M  V30 15 1 15 16
M  V30 16 2 16 17
M  V30 17 1 17 18
M  V30 18 2 18 19
M  V30 19 1 16 20
M  V30 20 2 20 21
M  V30 21 1 20 22
M  V30 22 1 22 23
M  V30 23 2 23 24
M  V30 24 1 19 6
M  V30 25 1 13 7
M  V30 26 1 19 14
M  V30 27 1 23 15
M  V30 28 1 3 25
M  V30 29 1 4 26
M  V30 30 1 4 27
M  V30 31 1 5 28
M  V30 32 1 5 29
M  V30 33 1 8 30
M  V30 34 1 9 31
M  V30 35 1 11 32
M  V30 36 1 12 33
M  V30 37 1 17 34
M  V30 38 1 18 35
M  V30 39 1 22 36
M  V30 END BOND
M  V30 END CTAB
M  END
>  <Dataset>  (997) 
ChEMBL_Kinases

>  <Ligand_Instance>  (997) 
nan

>  <PDB_ID>  (997) 
nan

>  <Standardized_SMILES>  (997) 
O=C(O)CCn1c2ccc(O)cc2c2c3c(ccc21)C(=O)NC3=O

>  <Name>  (997) 
nan

>  <Pocket>  (997) 
nan

>  <ATP_Site>  (997) 
nan

>  <Peripheral>  (997) 
nan

>  <Num_H_Atoms_ProtBoundConf>  (997) 
nan

>  <Num_Resolved_Atoms>  (997) 
nan

>  <Num_Not_Resolved_Atoms>  (997) 
nan

$$$$
CHEMBL518800
     RDKit          3D

  0  0  0  0  0  0  0  0  0  0999 V3000
M  V30 BEGIN CTAB
M  V30 COUNTS 61 64 0 0 0
M  V30 BEGIN ATOM
M  V30 1 C 3.400704 -2.436918 3.299191 0
M  V30 2 C 4.845000 -1.987515 3.213509 0
M  V30 3 C 5.060402 -0.757493 2.401124 0 CFG=2
M  V30 4 C 4.297221 0.434244 2.945189 0
M  V30 5 O 4.655804 0.578496 4.285253 0
M  V30 6 N 4.766929 -1.003299 1.022610 0
M  V30 7 C 3.446204 -1.318237 0.522256 0
M  V30 8 N 2.952188 -0.094316 0.393834 0
M  V30 9 C 1.682579 0.166992 -0.048490 0
M  V30 10 N 0.877858 1.266254 -0.191951 0
M  V30 11 C 0.117251 2.450665 -0.316456 0
M  V30 12 C -1.353630 2.105841 -0.507965 0
M  V30 13 C -1.998276 1.925648 0.718392 0
M  V30 14 C -3.368683 1.637880 0.785478 0
M  V30 15 C -4.105770 1.526894 -0.359027 0
M  V30 16 C -5.526896 1.250382 -0.428964 0
M  V30 17 C -6.285305 1.085496 0.749082 0
M  V30 18 C -7.642241 0.832900 0.641898 0
M  V30 19 C -8.301664 0.734494 -0.560360 0
M  V30 20 C -7.519884 0.905729 -1.705418 0
M  V30 21 N -6.217727 1.145699 -1.561534 0
M  V30 22 C -3.444731 1.706615 -1.561009 0
M  V30 23 C -2.103709 1.989656 -1.653880 0
M  V30 24 C 0.897840 -0.964884 -0.374936 0
M  V30 25 N -0.338449 -1.254082 -0.841327 0
M  V30 26 C -0.460100 -2.585468 -0.941827 0
M  V30 27 N 0.643760 -3.231474 -0.560825 0
M  V30 28 C 0.854071 -4.638732 -0.535938 0
M  V30 29 C 1.986871 -5.127188 -1.404006 0
M  V30 30 C -0.412330 -5.399912 -0.934020 0
M  V30 31 C 1.467769 -2.233071 -0.220329 0
M  V30 32 N 2.716244 -2.371141 0.220541 0
M  V30 33 H 3.069086 -2.634706 4.338169 0
M  V30 34 H 3.266223 -3.391722 2.718588 0
M  V30 35 H 2.733270 -1.659983 2.895630 0
M  V30 36 H 5.488718 -2.823140 2.842196 0
M  V30 37 H 5.167907 -1.817241 4.265272 0
M  V30 38 H 6.130244 -0.485395 2.488025 0
M  V30 39 H 4.585379 1.352335 2.418356 0
M  V30 40 H 3.219275 0.288747 2.896000 0
M  V30 41 H 5.606298 0.317889 4.336233 0
M  V30 42 H 5.487392 -0.978882 0.251051 0
M  V30 43 H 1.721454 1.901411 0.040864 0
M  V30 44 H 0.450712 2.999483 -1.252300 0
M  V30 45 H 0.186733 3.149782 0.505363 0
M  V30 46 H -1.494697 1.997464 1.683362 0
M  V30 47 H -3.816800 1.495240 1.736820 0
M  V30 48 H -5.843085 1.141786 1.714623 0
M  V30 49 H -8.289606 0.693793 1.497169 0
M  V30 50 H -9.338966 0.543233 -0.777090 0
M  V30 51 H -7.932442 0.845744 -2.701698 0
M  V30 52 H -3.935829 1.641907 -2.536168 0
M  V30 53 H -1.496666 2.149593 -2.511908 0
M  V30 54 H -1.389892 -3.042214 -1.305238 0
M  V30 55 H 1.132056 -4.971252 0.512401 0
M  V30 56 H 2.971835 -5.068105 -0.885606 0
M  V30 57 H 1.806262 -6.220752 -1.587751 0
M  V30 58 H 2.015078 -4.642570 -2.396342 0
M  V30 59 H -1.169628 -5.417598 -0.154307 0
M  V30 60 H -0.119459 -6.441686 -1.247511 0
M  V30 61 H -0.827970 -4.923928 -1.838863 0
M  V30 END ATOM
M  V30 BEGIN BOND
M  V30 1 1 1 2
M  V30 2 1 2 3
M  V30 3 1 3 4
M  V30 4 1 4 5
M  V30 5 1 3 6
M  V30 6 1 6 7
M  V30 7 2 7 8
M  V30 8 1 8 9
M  V30 9 1 9 10
M  V30 10 1 10 11
M  V30 11 1 11 12
M  V30 12 2 12 13
M  V30 13 1 13 14
M  V30 14 2 14 15
M  V30 15 1 15 16
M  V30 16 2 16 17
M  V30 17 1 17 18
M  V30 18 2 18 19
M  V30 19 1 19 20
M  V30 20 2 20 21
M  V30 21 1 15 22
M  V30 22 2 22 23
M  V30 23 2 9 24
M  V30 24 1 24 25
M  V30 25 2 25 26
M  V30 26 1 26 27
M  V30 27 1 27 28
M  V30 28 1 28 29
M  V30 29 1 28 30
M  V30 30 1 27 31
M  V30 31 2 31 32
M  V30 32 1 32 7
M  V30 33 1 23 12
M  V30 34 1 31 24
M  V30 35 1 21 16
M  V30 36 1 1 33
M  V30 37 1 1 34
M  V30 38 1 1 35
M  V30 39 1 2 36
M  V30 40 1 2 37
M  V30 41 1 3 38 CFG=3
M  V30 42 1 4 39
M  V30 43 1 4 40
M  V30 44 1 5 41
M  V30 45 1 6 42
M  V30 46 1 10 43
M  V30 47 1 11 44
M  V30 48 1 11 45
M  V30 49 1 13 46
M  V30 50 1 14 47
M  V30 51 1 17 48
M  V30 52 1 18 49
M  V30 53 1 19 50
M  V30 54 1 20 51
M  V30 55 1 22 52
M  V30 56 1 23 53
M  V30 57 1 26 54
M  V30 58 1 28 55
M  V30 59 1 29 56
M  V30 60 1 29 57
M  V30 61 1 29 58
M  V30 62 1 30 59
M  V30 63 1 30 60
M  V30 64 1 30 61
M  V30 END BOND
M  V30 END CTAB
M  END
>  <Dataset>  (998) 
ChEMBL_Kinases

>  <Ligand_Instance>  (998) 
nan

>  <PDB_ID>  (998) 
nan

>  <Standardized_SMILES>  (998) 
CC[C@H](CO)Nc1nc(NCc2ccc(-c3ccccn3)cc2)c2ncn(C(C)C)c2n1

>  <Name>  (998) 
nan

>  <Pocket>  (998) 
nan

>  <ATP_Site>  (998) 
nan

>  <Peripheral>  (998) 
nan

>  <Num_H_Atoms_ProtBoundConf>  (998) 
nan

>  <Num_Resolved_Atoms>  (998) 
nan

>  <Num_Not_Resolved_Atoms>  (998) 
nan

$$$$
CHEMBL518811
     RDKit          3D

  0  0  0  0  0  0  0  0  0  0999 V3000
M  V30 BEGIN CTAB
M  V30 COUNTS 61 62 0 0 0
M  V30 BEGIN ATOM
M  V30 1 C 0.532768 -2.499468 3.092354 0
M  V30 2 C 0.166358 -3.200087 1.763490 0
M  V30 3 C 1.381759 -3.126604 0.891586 0
M  V30 4 C 1.795637 -1.699730 0.666025 0
M  V30 5 O 2.105767 -0.871371 1.559815 0
M  V30 6 O 1.919419 -1.015604 -0.530857 0
M  V30 7 C 2.334697 0.333332 -0.411139 0
M  V30 8 C 2.422557 1.032101 -1.728264 0
M  V30 9 C 3.542692 0.535027 -2.597652 0
M  V30 10 O 3.249953 -0.756806 -3.004858 0
M  V30 11 C 2.593326 2.523919 -1.372039 0
M  V30 12 C 1.230412 2.706877 -0.719294 0
M  V30 13 C 0.748033 3.231903 0.420457 0
M  V30 14 C -0.675942 3.227809 0.729421 0
M  V30 15 C -1.307802 4.356077 1.226275 0
M  V30 16 C -2.652311 4.235612 1.522761 0
M  V30 17 C -3.343687 3.058012 1.337952 0
M  V30 18 O -4.678643 2.806621 1.594822 0
M  V30 19 C -5.706603 3.000708 0.650267 0
M  V30 20 F -5.397796 2.169712 -0.423416 0
M  V30 21 F -6.939985 2.732476 1.185129 0
M  V30 22 F -5.620680 4.299854 0.187236 0
M  V30 23 C -2.697088 1.921409 0.834601 0
M  V30 24 C -1.334972 2.021464 0.528543 0
M  V30 25 C 0.424545 2.107693 -1.816200 0
M  V30 26 O -0.752530 2.557482 -2.098988 0
M  V30 27 O 1.164555 1.055782 -2.404734 0
M  V30 28 C -0.159324 -4.603566 2.141573 0
M  V30 29 C -0.550742 -5.460064 0.996672 0
M  V30 30 C -1.753975 -4.859638 0.296141 0
M  V30 31 C 0.490373 -5.898790 0.047081 0
M  V30 32 C -1.043452 -6.791216 1.683640 0
M  V30 33 H -0.103018 -2.843127 3.910313 0
M  V30 34 H 0.326366 -1.420350 2.954528 0
M  V30 35 H 1.598897 -2.620108 3.307485 0
M  V30 36 H -0.661913 -2.652201 1.305401 0
M  V30 37 H 1.219664 -3.508836 -0.139242 0
M  V30 38 H 2.198661 -3.675174 1.351404 0
M  V30 39 H 1.702222 0.894189 0.312553 0
M  V30 40 H 3.361637 0.298831 0.021537 0
M  V30 41 H 4.458207 0.498191 -1.982591 0
M  V30 42 H 3.666439 1.216306 -3.468567 0
M  V30 43 H 3.651900 -1.393918 -2.368725 0
M  V30 44 H 3.390817 2.615626 -0.631702 0
M  V30 45 H 2.685717 3.130178 -2.276037 0
M  V30 46 H 1.588840 3.628236 1.010838 0
M  V30 47 H -0.786216 5.283516 1.377449 0
M  V30 48 H -3.238737 5.054287 1.915937 0
M  V30 49 H -3.163926 0.972523 0.664535 0
M  V30 50 H -0.835235 1.117437 0.148418 0
M  V30 51 H -1.027581 -4.646867 2.872175 0
M  V30 52 H 0.679167 -5.056767 2.744324 0
M  V30 53 H -2.378817 -5.720085 -0.067987 0
M  V30 54 H -1.503564 -4.281656 -0.605303 0
M  V30 55 H -2.316061 -4.243006 1.045237 0
M  V30 56 H 0.426523 -7.027407 -0.116010 0
M  V30 57 H 0.336097 -5.457363 -0.983044 0
M  V30 58 H 1.534464 -5.763980 0.388142 0
M  V30 59 H -0.087837 -7.278904 1.953104 0
M  V30 60 H -1.620975 -7.364422 0.948696 0
M  V30 61 H -1.616872 -6.546692 2.594166 0
M  V30 END ATOM
M  V30 BEGIN BOND
M  V30 1 1 1 2
M  V30 2 1 2 3
M  V30 3 1 3 4
M  V30 4 2 4 5
M  V30 5 1 4 6
M  V30 6 1 6 7
M  V30 7 1 7 8
M  V30 8 1 8 9
M  V30 9 1 9 10
M  V30 10 1 8 11
M  V30 11 1 11 12
M  V30 12 2 12 13
M  V30 13 1 13 14
M  V30 14 2 14 15
M  V30 15 1 15 16
M  V30 16 2 16 17
M  V30 17 1 17 18
M  V30 18 1 18 19
M  V30 19 1 19 20
M  V30 20 1 19 21
M  V30 21 1 19 22
M  V30 22 1 17 23
M  V30 23 2 23 24
M  V30 24 1 12 25
M  V30 25 2 25 26
M  V30 26 1 25 27
M  V30 27 1 2 28
M  V30 28 1 28 29
M  V30 29 1 29 30
M  V30 30 1 29 31
M  V30 31 1 29 32
M  V30 32 1 27 8
M  V30 33 1 24 14
M  V30 34 1 1 33
M  V30 35 1 1 34
M  V30 36 1 1 35
M  V30 37 1 2 36
M  V30 38 1 3 37
M  V30 39 1 3 38
M  V30 40 1 7 39
M  V30 41 1 7 40
M  V30 42 1 9 41
M  V30 43 1 9 42
M  V30 44 1 10 43
M  V30 45 1 11 44
M  V30 46 1 11 45
M  V30 47 1 13 46
M  V30 48 1 15 47
M  V30 49 1 16 48
M  V30 50 1 23 49
M  V30 51 1 24 50
M  V30 52 1 28 51
M  V30 53 1 28 52
M  V30 54 1 30 53
M  V30 55 1 30 54
M  V30 56 1 30 55
M  V30 57 1 31 56
M  V30 58 1 31 57
M  V30 59 1 31 58
M  V30 60 1 32 59
M  V30 61 1 32 60
M  V30 62 1 32 61
M  V30 END BOND
M  V30 END CTAB
M  END
>  <Dataset>  (999) 
ChEMBL_Kinases

>  <Ligand_Instance>  (999) 
nan

>  <PDB_ID>  (999) 
nan

>  <Standardized_SMILES>  (999) 
CC(CC(=O)OCC1(CO)C/C(=C/c2ccc(OC(F)(F)F)cc2)C(=O)O1)CC(C)(C)C

>  <Name>  (999) 
nan

>  <Pocket>  (999) 
nan

>  <ATP_Site>  (999) 
nan

>  <Peripheral>  (999) 
nan

>  <Num_H_Atoms_ProtBoundConf>  (999) 
nan

>  <Num_Resolved_Atoms>  (999) 
nan

>  <Num_Not_Resolved_Atoms>  (999) 
nan

$$$$
