CHEMBL3700506
     RDKit          3D

  0  0  0  0  0  0  0  0  0  0999 V3000
M  V30 BEGIN CTAB
M  V30 COUNTS 37 41 0 0 0
M  V30 BEGIN ATOM
M  V30 1 F 1.321277 -6.753004 1.480822 0
M  V30 2 C 1.976839 -5.571955 1.720518 0
M  V30 3 C 3.005310 -5.589295 2.612985 0
M  V30 4 C 3.644487 -4.398319 2.836035 0
M  V30 5 C 3.298536 -3.198520 2.206398 0
M  V30 6 C 2.234496 -3.232642 1.297360 0
M  V30 7 N 1.779617 -2.096163 0.584802 0
M  V30 8 C 0.751963 -1.140139 0.734950 0
M  V30 9 N 0.716944 -0.269201 -0.269032 0
M  V30 10 C -0.115695 0.749155 -0.436218 0
M  V30 11 C -0.142020 1.634726 -1.469161 0
M  V30 12 C -1.098805 2.629447 -1.450836 0
M  V30 13 C -1.145675 3.591593 -2.551145 0
M  V30 14 N -0.338931 3.634777 -3.631765 0
M  V30 15 N -0.693183 4.650520 -4.405689 0
M  V30 16 N -1.713904 5.275763 -3.858828 0
M  V30 17 N -1.989193 4.636812 -2.736895 0
M  V30 18 C -2.018734 2.753252 -0.430460 0
M  V30 19 C -1.988045 1.845418 0.623825 0
M  V30 20 C -1.017343 0.838332 0.602567 0
M  V30 21 C -1.049918 -0.026020 1.684675 0
M  V30 22 S -2.059984 -0.105181 3.071069 0
M  V30 23 C -1.201645 -1.608921 3.794349 0
M  V30 24 C -0.170921 -1.902962 2.833029 0
M  V30 25 C -0.144054 -1.053890 1.770654 0
M  V30 26 C 1.557113 -4.428559 1.042585 0
M  V30 27 H 3.325165 -6.478568 3.134868 0
M  V30 28 H 4.463478 -4.333759 3.525333 0
M  V30 29 H 3.799424 -2.262941 2.380090 0
M  V30 30 H 2.475284 -2.152124 -0.163213 0
M  V30 31 H 0.583169 1.509336 -2.239805 0
M  V30 32 H -2.745423 4.851873 -2.032161 0
M  V30 33 H -2.761650 3.536054 -0.429020 0
M  V30 34 H -2.716275 1.948415 1.425117 0
M  V30 35 H -1.402233 -2.189795 4.753574 0
M  V30 36 H 0.443183 -2.749838 3.078933 0
M  V30 37 H 0.734993 -4.500103 0.352661 0
M  V30 END ATOM
M  V30 BEGIN BOND
M  V30 1 1 1 2
M  V30 2 2 2 3
M  V30 3 1 3 4
M  V30 4 2 4 5
M  V30 5 1 5 6
M  V30 6 1 6 7
M  V30 7 1 7 8
M  V30 8 2 8 9
M  V30 9 1 9 10
M  V30 10 2 10 11
M  V30 11 1 11 12
M  V30 12 1 12 13
M  V30 13 2 13 14
M  V30 14 1 14 15
M  V30 15 2 15 16
M  V30 16 1 16 17
M  V30 17 2 12 18
M  V30 18 1 18 19
M  V30 19 2 19 20
M  V30 20 1 20 21
M  V30 21 1 21 22
M  V30 22 1 22 23
M  V30 23 2 23 24
M  V30 24 1 24 25
M  V30 25 2 6 26
M  V30 26 1 26 2
M  V30 27 1 25 8
M  V30 28 1 20 10
M  V30 29 2 25 21
M  V30 30 1 17 13
M  V30 31 1 3 27
M  V30 32 1 4 28
M  V30 33 1 5 29
M  V30 34 1 7 30
M  V30 35 1 11 31
M  V30 36 1 17 32
M  V30 37 1 18 33
M  V30 38 1 19 34
M  V30 39 1 23 35
M  V30 40 1 24 36
M  V30 41 1 26 37
M  V30 END BOND
M  V30 END CTAB
M  END
>  <Dataset>  (1) 
ChEMBL_Kinases

>  <Ligand_Instance>  (1) 
nan

>  <PDB_ID>  (1) 
nan

>  <Standardized_SMILES>  (1) 
Fc1cccc(Nc2nc3cc(-c4nnn[nH]4)ccc3c3sccc23)c1

>  <Name>  (1) 
nan

>  <Pocket>  (1) 
nan

>  <ATP_Site>  (1) 
nan

>  <Peripheral>  (1) 
nan

>  <Num_H_Atoms_ProtBoundConf>  (1) 
nan

>  <Num_Resolved_Atoms>  (1) 
nan

>  <Num_Not_Resolved_Atoms>  (1) 
nan

$$$$
CHEMBL3700505
     RDKit          3D

  0  0  0  0  0  0  0  0  0  0999 V3000
M  V30 BEGIN CTAB
M  V30 COUNTS 37 41 0 0 0
M  V30 BEGIN ATOM
M  V30 1 Br -0.860948 -6.382094 3.275241 0
M  V30 2 C 0.649351 -5.543888 2.491578 0
M  V30 3 C 1.917323 -6.068753 2.578629 0
M  V30 4 C 2.996319 -5.440478 1.999008 0
M  V30 5 C 2.846074 -4.257914 1.307467 0
M  V30 6 C 1.584978 -3.663180 1.176812 0
M  V30 7 N 1.235002 -2.473237 0.493143 0
M  V30 8 C 0.673077 -1.200107 0.761942 0
M  V30 9 N 0.424373 -0.519517 -0.355349 0
M  V30 10 C -0.087468 0.695683 -0.490329 0
M  V30 11 C -0.320129 1.343469 -1.676954 0
M  V30 12 C -0.861633 2.610615 -1.600337 0
M  V30 13 C -1.131162 3.346660 -2.837248 0
M  V30 14 N -0.919682 2.939398 -4.099503 0
M  V30 15 N -1.289187 3.883817 -4.959600 0
M  V30 16 N -1.744068 4.912851 -4.265928 0
M  V30 17 N -1.644926 4.580185 -2.990594 0
M  V30 18 C -1.158367 3.207288 -0.390784 0
M  V30 19 C -0.918699 2.541294 0.813753 0
M  V30 20 C -0.370007 1.255950 0.735295 0
M  V30 21 C -0.153088 0.642339 1.955278 0
M  V30 22 S -0.410581 1.135157 3.561612 0
M  V30 23 C 0.244381 -0.455014 4.322735 0
M  V30 24 C 0.609747 -1.234730 3.176134 0
M  V30 25 C 0.387166 -0.630708 1.973867 0
M  V30 26 C 0.538963 -4.362169 1.793234 0
M  V30 27 H 2.089190 -6.994294 3.109990 0
M  V30 28 H 4.007071 -5.832893 2.053297 0
M  V30 29 H 3.635685 -3.689077 0.817141 0
M  V30 30 H 1.539991 -2.801681 -0.442712 0
M  V30 31 H -0.072051 0.836939 -2.592857 0
M  V30 32 H -1.936845 5.216245 -2.220941 0
M  V30 33 H -1.578866 4.199283 -0.391262 0
M  V30 34 H -1.174895 3.064623 1.727877 0
M  V30 35 H 0.309455 -0.681866 5.417540 0
M  V30 36 H 1.011870 -2.178393 3.483634 0
M  V30 37 H -0.469769 -3.958224 1.732161 0
M  V30 END ATOM
M  V30 BEGIN BOND
M  V30 1 1 1 2
M  V30 2 2 2 3
M  V30 3 1 3 4
M  V30 4 2 4 5
M  V30 5 1 5 6
M  V30 6 1 6 7
M  V30 7 1 7 8
M  V30 8 2 8 9
M  V30 9 1 9 10
M  V30 10 2 10 11
M  V30 11 1 11 12
M  V30 12 1 12 13
M  V30 13 2 13 14
M  V30 14 1 14 15
M  V30 15 2 15 16
M  V30 16 1 16 17
M  V30 17 2 12 18
M  V30 18 1 18 19
M  V30 19 2 19 20
M  V30 20 1 20 21
M  V30 21 1 21 22
M  V30 22 1 22 23
M  V30 23 2 23 24
M  V30 24 1 24 25
M  V30 25 2 6 26
M  V30 26 1 26 2
M  V30 27 1 25 8
M  V30 28 1 20 10
M  V30 29 2 25 21
M  V30 30 1 17 13
M  V30 31 1 3 27
M  V30 32 1 4 28
M  V30 33 1 5 29
M  V30 34 1 7 30
M  V30 35 1 11 31
M  V30 36 1 17 32
M  V30 37 1 18 33
M  V30 38 1 19 34
M  V30 39 1 23 35
M  V30 40 1 24 36
M  V30 41 1 26 37
M  V30 END BOND
M  V30 END CTAB
M  END
>  <Dataset>  (2) 
ChEMBL_Kinases

>  <Ligand_Instance>  (2) 
nan

>  <PDB_ID>  (2) 
nan

>  <Standardized_SMILES>  (2) 
Brc1cccc(Nc2nc3cc(-c4nnn[nH]4)ccc3c3sccc23)c1

>  <Name>  (2) 
nan

>  <Pocket>  (2) 
nan

>  <ATP_Site>  (2) 
nan

>  <Peripheral>  (2) 
nan

>  <Num_H_Atoms_ProtBoundConf>  (2) 
nan

>  <Num_Resolved_Atoms>  (2) 
nan

>  <Num_Not_Resolved_Atoms>  (2) 
nan

$$$$
CHEMBL3700504
     RDKit          3D

  0  0  0  0  0  0  0  0  0  0999 V3000
M  V30 BEGIN CTAB
M  V30 COUNTS 44 48 0 0 0
M  V30 BEGIN ATOM
M  V30 1 C -0.650023 4.062217 -2.092301 0
M  V30 2 C 0.617644 3.405285 -1.677151 0
M  V30 3 O 1.567826 3.790262 -0.939525 0
M  V30 4 N 0.699419 2.110347 -2.259179 0
M  V30 5 C 1.689415 1.096512 -2.178394 0
M  V30 6 C 2.720289 1.064604 -3.087765 0
M  V30 7 C 3.679353 0.100963 -3.027550 0
M  V30 8 C 3.619078 -0.847897 -2.051842 0
M  V30 9 C 2.610510 -0.897146 -1.084046 0
M  V30 10 N 2.602560 -1.905682 -0.098660 0
M  V30 11 C 1.713675 -2.159469 0.976199 0
M  V30 12 N 0.685726 -1.335968 1.138870 0
M  V30 13 C -0.273831 -1.343816 2.041914 0
M  V30 14 C -1.308884 -0.438679 2.132270 0
M  V30 15 C -2.226649 -0.602973 3.147688 0
M  V30 16 C -3.340803 0.328207 3.286651 0
M  V30 17 N -3.587463 1.385239 2.494149 0
M  V30 18 N -4.679740 1.992454 2.926076 0
M  V30 19 N -5.161267 1.365328 3.982257 0
M  V30 20 N -4.339314 0.348669 4.198772 0
M  V30 21 C -2.086234 -1.652334 4.031751 0
M  V30 22 C -1.048328 -2.574644 3.955324 0
M  V30 23 C -0.142352 -2.389361 2.930609 0
M  V30 24 C 0.894546 -3.290735 2.834905 0
M  V30 25 S 1.221354 -4.642340 3.837420 0
M  V30 26 C 2.761019 -5.153182 2.894800 0
M  V30 27 C 2.861128 -4.117017 1.799024 0
M  V30 28 C 1.855015 -3.202677 1.853422 0
M  V30 29 C 1.685301 0.111409 -1.218760 0
M  V30 30 H -0.709391 5.075396 -1.666090 0
M  V30 31 H -0.778090 4.108670 -3.183654 0
M  V30 32 H -1.487698 3.453714 -1.675400 0
M  V30 33 H 0.029994 1.613348 -2.888612 0
M  V30 34 H 2.795427 1.798655 -3.868559 0
M  V30 35 H 4.471774 0.089559 -3.739350 0
M  V30 36 H 4.406361 -1.596613 -2.043501 0
M  V30 37 H 3.399316 -2.586392 -0.181628 0
M  V30 38 H -1.356452 0.350532 1.413207 0
M  V30 39 H -4.434629 -0.349184 4.962934 0
M  V30 40 H -2.808129 -1.786117 4.834888 0
M  V30 41 H -0.950512 -3.403348 4.665696 0
M  V30 42 H 3.629432 -6.018921 2.921893 0
M  V30 43 H 3.687938 -4.216196 1.123341 0
M  V30 44 H 0.863577 0.188503 -0.544506 0
M  V30 END ATOM
M  V30 BEGIN BOND
M  V30 1 1 1 2
M  V30 2 2 2 3
M  V30 3 1 2 4
M  V30 4 1 4 5
M  V30 5 2 5 6
M  V30 6 1 6 7
M  V30 7 2 7 8
M  V30 8 1 8 9
M  V30 9 1 9 10
M  V30 10 1 10 11
M  V30 11 2 11 12
M  V30 12 1 12 13
M  V30 13 2 13 14
M  V30 14 1 14 15
M  V30 15 1 15 16
M  V30 16 2 16 17
M  V30 17 1 17 18
M  V30 18 2 18 19
M  V30 19 1 19 20
M  V30 20 2 15 21
M  V30 21 1 21 22
M  V30 22 2 22 23
M  V30 23 1 23 24
M  V30 24 1 24 25
M  V30 25 1 25 26
M  V30 26 2 26 27
M  V30 27 1 27 28
M  V30 28 2 9 29
M  V30 29 1 29 5
M  V30 30 1 28 11
M  V30 31 1 23 13
M  V30 32 2 28 24
M  V30 33 1 20 16
M  V30 34 1 1 30
M  V30 35 1 1 31
M  V30 36 1 1 32
M  V30 37 1 4 33
M  V30 38 1 6 34
M  V30 39 1 7 35
M  V30 40 1 8 36
M  V30 41 1 10 37
M  V30 42 1 14 38
M  V30 43 1 20 39
M  V30 44 1 21 40
M  V30 45 1 22 41
M  V30 46 1 26 42
M  V30 47 1 27 43
M  V30 48 1 29 44
M  V30 END BOND
M  V30 END CTAB
M  END
>  <Dataset>  (3) 
ChEMBL_Kinases

>  <Ligand_Instance>  (3) 
nan

>  <PDB_ID>  (3) 
nan

>  <Standardized_SMILES>  (3) 
CC(=O)Nc1cccc(Nc2nc3cc(-c4nnn[nH]4)ccc3c3sccc23)c1

>  <Name>  (3) 
nan

>  <Pocket>  (3) 
nan

>  <ATP_Site>  (3) 
nan

>  <Peripheral>  (3) 
nan

>  <Num_H_Atoms_ProtBoundConf>  (3) 
nan

>  <Num_Resolved_Atoms>  (3) 
nan

>  <Num_Not_Resolved_Atoms>  (3) 
nan

$$$$
CHEMBL3700503
     RDKit          3D

  0  0  0  0  0  0  0  0  0  0999 V3000
M  V30 BEGIN CTAB
M  V30 COUNTS 42 46 0 0 0
M  V30 BEGIN ATOM
M  V30 1 N 2.405239 -1.108706 5.188702 0
M  V30 2 S 2.765446 -2.256667 3.954165 0
M  V30 3 O 3.680871 -3.296509 4.552716 0
M  V30 4 O 1.472772 -2.871621 3.504106 0
M  V30 5 C 3.515998 -1.501134 2.581858 0
M  V30 6 C 4.885786 -1.384064 2.512816 0
M  V30 7 C 5.507915 -0.792405 1.442140 0
M  V30 8 C 4.732899 -0.308669 0.419774 0
M  V30 9 C 3.339741 -0.379753 0.397346 0
M  V30 10 N 2.608140 0.138837 -0.690198 0
M  V30 11 C 1.210298 0.198663 -0.923580 0
M  V30 12 N 0.381633 -0.289904 -0.007547 0
M  V30 13 C -0.942513 -0.345825 -0.004321 0
M  V30 14 C -1.704621 -0.880722 1.010221 0
M  V30 15 C -3.077075 -0.864760 0.863894 0
M  V30 16 C -3.940213 -1.417153 1.903598 0
M  V30 17 N -3.525870 -1.976075 3.058369 0
M  V30 18 N -4.566860 -2.378757 3.782248 0
M  V30 19 N -5.631299 -2.063182 3.063249 0
M  V30 20 N -5.286017 -1.482810 1.926725 0
M  V30 21 C -3.642349 -0.323098 -0.274613 0
M  V30 22 C -2.874695 0.217694 -1.300439 0
M  V30 23 C -1.505082 0.194796 -1.140397 0
M  V30 24 C -0.700267 0.724814 -2.142050 0
M  V30 25 S -1.205919 1.438443 -3.623177 0
M  V30 26 C 0.550778 1.799703 -4.206365 0
M  V30 27 C 1.369581 1.283254 -3.097093 0
M  V30 28 C 0.666620 0.740359 -2.060355 0
M  V30 29 C 2.825864 -0.991097 1.518438 0
M  V30 30 H 2.544066 -1.540677 6.151981 0
M  V30 31 H 1.383841 -0.836112 5.201943 0
M  V30 32 H 5.536673 -1.749311 3.292282 0
M  V30 33 H 6.581569 -0.699182 1.385409 0
M  V30 34 H 5.269243 0.158525 -0.420261 0
M  V30 35 H 3.204020 0.545573 -1.447275 0
M  V30 36 H -1.212717 -1.290892 1.877722 0
M  V30 37 H -5.939735 -1.130978 1.168023 0
M  V30 38 H -4.720163 -0.284832 -0.441774 0
M  V30 39 H -3.327538 0.647408 -2.204069 0
M  V30 40 H 1.034802 2.285611 -5.146571 0
M  V30 41 H 2.435208 1.386944 -3.217652 0
M  V30 42 H 1.758823 -1.108273 1.621727 0
M  V30 END ATOM
M  V30 BEGIN BOND
M  V30 1 1 1 2
M  V30 2 2 2 3
M  V30 3 2 2 4
M  V30 4 1 2 5
M  V30 5 2 5 6
M  V30 6 1 6 7
M  V30 7 2 7 8
M  V30 8 1 8 9
M  V30 9 1 9 10
M  V30 10 1 10 11
M  V30 11 2 11 12
M  V30 12 1 12 13
M  V30 13 2 13 14
M  V30 14 1 14 15
M  V30 15 1 15 16
M  V30 16 2 16 17
M  V30 17 1 17 18
M  V30 18 2 18 19
M  V30 19 1 19 20
M  V30 20 2 15 21
M  V30 21 1 21 22
M  V30 22 2 22 23
M  V30 23 1 23 24
M  V30 24 1 24 25
M  V30 25 1 25 26
M  V30 26 2 26 27
M  V30 27 1 27 28
M  V30 28 2 9 29
M  V30 29 1 29 5
M  V30 30 1 28 11
M  V30 31 1 23 13
M  V30 32 2 28 24
M  V30 33 1 20 16
M  V30 34 1 1 30
M  V30 35 1 1 31
M  V30 36 1 6 32
M  V30 37 1 7 33
M  V30 38 1 8 34
M  V30 39 1 10 35
M  V30 40 1 14 36
M  V30 41 1 20 37
M  V30 42 1 21 38
M  V30 43 1 22 39
M  V30 44 1 26 40
M  V30 45 1 27 41
M  V30 46 1 29 42
M  V30 END BOND
M  V30 END CTAB
M  END
>  <Dataset>  (4) 
ChEMBL_Kinases

>  <Ligand_Instance>  (4) 
nan

>  <PDB_ID>  (4) 
nan

>  <Standardized_SMILES>  (4) 
NS(=O)(=O)c1cccc(Nc2nc3cc(-c4nnn[nH]4)ccc3c3sccc23)c1

>  <Name>  (4) 
nan

>  <Pocket>  (4) 
nan

>  <ATP_Site>  (4) 
nan

>  <Peripheral>  (4) 
nan

>  <Num_H_Atoms_ProtBoundConf>  (4) 
nan

>  <Num_Resolved_Atoms>  (4) 
nan

>  <Num_Not_Resolved_Atoms>  (4) 
nan

$$$$
CHEMBL3700502
     RDKit          3D

  0  0  0  0  0  0  0  0  0  0999 V3000
M  V30 BEGIN CTAB
M  V30 COUNTS 44 48 0 0 0
M  V30 BEGIN ATOM
M  V30 1 C -2.000890 -1.161314 -3.060112 0
M  V30 2 N -0.753040 -1.052780 -2.353881 0
M  V30 3 C 0.489371 -1.170358 -3.035630 0
M  V30 4 O 0.439222 -1.371118 -4.272245 0
M  V30 5 C 1.797777 -1.073718 -2.407697 0
M  V30 6 C 2.899942 -1.153781 -3.237470 0
M  V30 7 C 4.175117 -1.058689 -2.678219 0
M  V30 8 C 4.314293 -0.885465 -1.297605 0
M  V30 9 C 3.242933 -0.803595 -0.456549 0
M  V30 10 N 3.357605 -0.607869 0.943635 0
M  V30 11 C 2.198279 -0.712739 1.763419 0
M  V30 12 N 1.314696 0.298183 1.590002 0
M  V30 13 C 0.161476 0.394501 2.267393 0
M  V30 14 C -0.756732 1.406165 2.103847 0
M  V30 15 C -1.919805 1.411324 2.844654 0
M  V30 16 C -2.895753 2.479423 2.671731 0
M  V30 17 N -2.759709 3.530062 1.819982 0
M  V30 18 N -3.808450 4.321416 1.901151 0
M  V30 19 N -4.646983 3.795993 2.809861 0
M  V30 20 N -4.081175 2.695612 3.258037 0
M  V30 21 C -2.191537 0.395537 3.774558 0
M  V30 22 C -1.278895 -0.639465 3.958350 0
M  V30 23 C -0.131190 -0.586214 3.183070 0
M  V30 24 C 0.756127 -1.693769 3.426646 0
M  V30 25 S 0.846929 -3.085269 4.409568 0
M  V30 26 C 2.550989 -3.686976 3.750772 0
M  V30 27 C 2.812085 -2.629005 2.789340 0
M  V30 28 C 1.878372 -1.680251 2.687115 0
M  V30 29 C 2.015630 -0.903385 -1.060547 0
M  V30 30 H -2.836315 -0.884236 -2.363107 0
M  V30 31 H -1.997052 -0.459681 -3.938370 0
M  V30 32 H -2.146757 -2.213336 -3.380586 0
M  V30 33 H -0.731107 -0.885444 -1.336251 0
M  V30 34 H 2.823618 -1.288368 -4.313059 0
M  V30 35 H 5.031429 -1.123978 -3.348151 0
M  V30 36 H 5.324913 -0.818336 -0.913223 0
M  V30 37 H 4.333732 -0.389022 1.306971 0
M  V30 38 H -0.535685 2.179119 1.384696 0
M  V30 39 H -4.459362 2.039543 3.975685 0
M  V30 40 H -3.115966 0.402001 4.363857 0
M  V30 41 H -1.482256 -1.424077 4.673646 0
M  V30 42 H 2.327681 -4.576393 4.561535 0
M  V30 43 H 3.726892 -3.148150 2.583031 0
M  V30 44 H 1.107439 -0.852918 -0.472261 0
M  V30 END ATOM
M  V30 BEGIN BOND
M  V30 1 1 1 2
M  V30 2 1 2 3
M  V30 3 2 3 4
M  V30 4 1 3 5
M  V30 5 2 5 6
M  V30 6 1 6 7
M  V30 7 2 7 8
M  V30 8 1 8 9
M  V30 9 1 9 10
M  V30 10 1 10 11
M  V30 11 2 11 12
M  V30 12 1 12 13
M  V30 13 2 13 14
M  V30 14 1 14 15
M  V30 15 1 15 16
M  V30 16 2 16 17
M  V30 17 1 17 18
M  V30 18 2 18 19
M  V30 19 1 19 20
M  V30 20 2 15 21
M  V30 21 1 21 22
M  V30 22 2 22 23
M  V30 23 1 23 24
M  V30 24 1 24 25
M  V30 25 1 25 26
M  V30 26 2 26 27
M  V30 27 1 27 28
M  V30 28 2 9 29
M  V30 29 1 29 5
M  V30 30 1 28 11
M  V30 31 1 23 13
M  V30 32 2 28 24
M  V30 33 1 20 16
M  V30 34 1 1 30
M  V30 35 1 1 31
M  V30 36 1 1 32
M  V30 37 1 2 33
M  V30 38 1 6 34
M  V30 39 1 7 35
M  V30 40 1 8 36
M  V30 41 1 10 37
M  V30 42 1 14 38
M  V30 43 1 20 39
M  V30 44 1 21 40
M  V30 45 1 22 41
M  V30 46 1 26 42
M  V30 47 1 27 43
M  V30 48 1 29 44
M  V30 END BOND
M  V30 END CTAB
M  END
>  <Dataset>  (5) 
ChEMBL_Kinases

>  <Ligand_Instance>  (5) 
nan

>  <PDB_ID>  (5) 
nan

>  <Standardized_SMILES>  (5) 
CNC(=O)c1cccc(Nc2nc3cc(-c4nnn[nH]4)ccc3c3sccc23)c1

>  <Name>  (5) 
nan

>  <Pocket>  (5) 
nan

>  <ATP_Site>  (5) 
nan

>  <Peripheral>  (5) 
nan

>  <Num_H_Atoms_ProtBoundConf>  (5) 
nan

>  <Num_Resolved_Atoms>  (5) 
nan

>  <Num_Not_Resolved_Atoms>  (5) 
nan

$$$$
CHEMBL3700501
     RDKit          3D

  0  0  0  0  0  0  0  0  0  0999 V3000
M  V30 BEGIN CTAB
M  V30 COUNTS 37 41 0 0 0
M  V30 BEGIN ATOM
M  V30 1 Cl -0.031194 -6.598020 2.298689 0
M  V30 2 C 1.276934 -5.484909 1.970233 0
M  V30 3 C 2.537443 -5.915538 2.293028 0
M  V30 4 C 3.581686 -5.053488 2.043006 0
M  V30 5 C 3.439469 -3.801531 1.495258 0
M  V30 6 C 2.171630 -3.355556 1.165386 0
M  V30 7 N 1.694318 -2.157883 0.577221 0
M  V30 8 C 0.805755 -1.083178 0.827837 0
M  V30 9 N 0.629238 -0.331733 -0.255527 0
M  V30 10 C -0.122604 0.752985 -0.398797 0
M  V30 11 C -0.264215 1.483793 -1.550700 0
M  V30 12 C -1.102585 2.576216 -1.466441 0
M  V30 13 C -1.292240 3.390379 -2.671206 0
M  V30 14 N -0.735202 3.193937 -3.889703 0
M  V30 15 N -1.168618 4.160879 -4.720767 0
M  V30 16 N -1.970829 4.934415 -4.037051 0
M  V30 17 N -2.055226 4.487605 -2.810922 0
M  V30 18 C -1.770717 2.940609 -0.321915 0
M  V30 19 C -1.615173 2.182777 0.843571 0
M  V30 20 C -0.766690 1.070486 0.775254 0
M  V30 21 C -0.655597 0.364499 1.952455 0
M  V30 22 S -1.325530 0.559255 3.499624 0
M  V30 23 C -0.488227 -0.916603 4.254092 0
M  V30 24 C 0.288600 -1.462016 3.150152 0
M  V30 25 C 0.155738 -0.753211 1.992655 0
M  V30 26 C 1.105713 -4.233159 1.419529 0
M  V30 27 H 2.786289 -6.872501 2.729455 0
M  V30 28 H 4.605482 -5.333929 2.274845 0
M  V30 29 H 4.171845 -3.062566 1.261713 0
M  V30 30 H 2.267639 -2.254998 -0.282893 0
M  V30 31 H 0.268148 1.172850 -2.428339 0
M  V30 32 H -2.597140 4.851300 -2.000444 0
M  V30 33 H -2.425628 3.797569 -0.262480 0
M  V30 34 H -2.142071 2.471696 1.733100 0
M  V30 35 H -0.552915 -1.317489 5.318395 0
M  V30 36 H 0.841739 -2.329836 3.450170 0
M  V30 37 H 0.052383 -4.029528 1.214491 0
M  V30 END ATOM
M  V30 BEGIN BOND
M  V30 1 1 1 2
M  V30 2 2 2 3
M  V30 3 1 3 4
M  V30 4 2 4 5
M  V30 5 1 5 6
M  V30 6 1 6 7
M  V30 7 1 7 8
M  V30 8 2 8 9
M  V30 9 1 9 10
M  V30 10 2 10 11
M  V30 11 1 11 12
M  V30 12 1 12 13
M  V30 13 2 13 14
M  V30 14 1 14 15
M  V30 15 2 15 16
M  V30 16 1 16 17
M  V30 17 2 12 18
M  V30 18 1 18 19
M  V30 19 2 19 20
M  V30 20 1 20 21
M  V30 21 1 21 22
M  V30 22 1 22 23
M  V30 23 2 23 24
M  V30 24 1 24 25
M  V30 25 2 6 26
M  V30 26 1 26 2
M  V30 27 1 25 8
M  V30 28 1 20 10
M  V30 29 2 25 21
M  V30 30 1 17 13
M  V30 31 1 3 27
M  V30 32 1 4 28
M  V30 33 1 5 29
M  V30 34 1 7 30
M  V30 35 1 11 31
M  V30 36 1 17 32
M  V30 37 1 18 33
M  V30 38 1 19 34
M  V30 39 1 23 35
M  V30 40 1 24 36
M  V30 41 1 26 37
M  V30 END BOND
M  V30 END CTAB
M  END
>  <Dataset>  (6) 
ChEMBL_Kinases

>  <Ligand_Instance>  (6) 
nan

>  <PDB_ID>  (6) 
nan

>  <Standardized_SMILES>  (6) 
Clc1cccc(Nc2nc3cc(-c4nnn[nH]4)ccc3c3sccc23)c1

>  <Name>  (6) 
nan

>  <Pocket>  (6) 
nan

>  <ATP_Site>  (6) 
nan

>  <Peripheral>  (6) 
nan

>  <Num_H_Atoms_ProtBoundConf>  (6) 
nan

>  <Num_Resolved_Atoms>  (6) 
nan

>  <Num_Not_Resolved_Atoms>  (6) 
nan

$$$$
CHEMBL3700500
     RDKit          3D

  0  0  0  0  0  0  0  0  0  0999 V3000
M  V30 BEGIN CTAB
M  V30 COUNTS 41 45 0 0 0
M  V30 BEGIN ATOM
M  V30 1 O 3.529737 -5.569230 3.353559 0
M  V30 2 C 2.857375 -5.888042 2.185214 0
M  V30 3 C 1.840589 -4.832108 1.893283 0
M  V30 4 C 0.532812 -4.894202 2.368641 0
M  V30 5 C -0.407943 -3.922820 2.101217 0
M  V30 6 C -0.017725 -2.850733 1.327468 0
M  V30 7 C 1.264496 -2.749772 0.837385 0
M  V30 8 N 1.652914 -1.638975 0.040685 0
M  V30 9 C 0.768084 -0.574316 -0.284482 0
M  V30 10 N 0.777154 0.435785 0.567082 0
M  V30 11 C 0.072015 1.552041 0.530307 0
M  V30 12 C 0.108048 2.583384 1.435593 0
M  V30 13 C -0.718596 3.669460 1.206881 0
M  V30 14 C -0.665574 4.754728 2.179135 0
M  V30 15 N -1.344224 5.919694 2.220108 0
M  V30 16 N -1.009839 6.639461 3.273064 0
M  V30 17 N -0.102310 5.934164 3.925387 0
M  V30 18 N 0.121250 4.782404 3.274864 0
M  V30 19 C -1.567177 3.760035 0.121900 0
M  V30 20 C -1.598543 2.707715 -0.794475 0
M  V30 21 C -0.773727 1.640912 -0.552314 0
M  V30 22 C -0.835583 0.600825 -1.500947 0
M  V30 23 S -1.769340 0.366723 -2.971764 0
M  V30 24 C -1.099590 -1.242648 -3.393025 0
M  V30 25 C -0.184300 -1.492262 -2.349194 0
M  V30 26 C -0.053434 -0.550934 -1.388373 0
M  V30 27 C 2.194411 -3.727253 1.112134 0
M  V30 28 H 3.968840 -6.354593 3.722790 0
M  V30 29 H 2.377764 -6.866298 2.201092 0
M  V30 30 H 3.584166 -5.849821 1.347518 0
M  V30 31 H 0.321174 -5.779908 2.970523 0
M  V30 32 H -1.407372 -4.047997 2.511137 0
M  V30 33 H -0.780784 -2.092432 1.128158 0
M  V30 34 H 2.615005 -1.557728 -0.343273 0
M  V30 35 H 0.778261 2.472799 2.260130 0
M  V30 36 H 0.808051 4.063125 3.614560 0
M  V30 37 H -2.207921 4.620264 -0.040018 0
M  V30 38 H -2.276178 2.820087 -1.627819 0
M  V30 39 H -1.360690 -1.827995 -4.236019 0
M  V30 40 H 0.342907 -2.434446 -2.410956 0
M  V30 41 H 3.218632 -3.675140 0.737927 0
M  V30 END ATOM
M  V30 BEGIN BOND
M  V30 1 1 1 2
M  V30 2 1 2 3
M  V30 3 2 3 4
M  V30 4 1 4 5
M  V30 5 2 5 6
M  V30 6 1 6 7
M  V30 7 1 7 8
M  V30 8 1 8 9
M  V30 9 2 9 10
M  V30 10 1 10 11
M  V30 11 2 11 12
M  V30 12 1 12 13
M  V30 13 1 13 14
M  V30 14 2 14 15
M  V30 15 1 15 16
M  V30 16 2 16 17
M  V30 17 1 17 18
M  V30 18 2 13 19
M  V30 19 1 19 20
M  V30 20 2 20 21
M  V30 21 1 21 22
M  V30 22 1 22 23
M  V30 23 1 23 24
M  V30 24 2 24 25
M  V30 25 1 25 26
M  V30 26 2 7 27
M  V30 27 1 27 3
M  V30 28 1 26 9
M  V30 29 1 21 11
M  V30 30 2 26 22
M  V30 31 1 18 14
M  V30 32 1 1 28
M  V30 33 1 2 29
M  V30 34 1 2 30
M  V30 35 1 4 31
M  V30 36 1 5 32
M  V30 37 1 6 33
M  V30 38 1 8 34
M  V30 39 1 12 35
M  V30 40 1 18 36
M  V30 41 1 19 37
M  V30 42 1 20 38
M  V30 43 1 24 39
M  V30 44 1 25 40
M  V30 45 1 27 41
M  V30 END BOND
M  V30 END CTAB
M  END
>  <Dataset>  (7) 
ChEMBL_Kinases

>  <Ligand_Instance>  (7) 
nan

>  <PDB_ID>  (7) 
nan

>  <Standardized_SMILES>  (7) 
OCc1cccc(Nc2nc3cc(-c4nnn[nH]4)ccc3c3sccc23)c1

>  <Name>  (7) 
nan

>  <Pocket>  (7) 
nan

>  <ATP_Site>  (7) 
nan

>  <Peripheral>  (7) 
nan

>  <Num_H_Atoms_ProtBoundConf>  (7) 
nan

>  <Num_Resolved_Atoms>  (7) 
nan

>  <Num_Not_Resolved_Atoms>  (7) 
nan

$$$$
CHEMBL3700499
     RDKit          3D

  0  0  0  0  0  0  0  0  0  0999 V3000
M  V30 BEGIN CTAB
M  V30 COUNTS 42 46 0 0 0
M  V30 BEGIN ATOM
M  V30 1 F 7.017635 -3.679822 -0.631471 0
M  V30 2 C 5.847472 -3.661519 -1.330904 0
M  V30 3 F 5.289991 -4.941464 -1.263969 0
M  V30 4 F 6.151594 -3.351950 -2.648330 0
M  V30 5 C 4.852215 -2.722933 -0.771534 0
M  V30 6 C 5.228279 -1.796747 0.174908 0
M  V30 7 C 4.312503 -0.916469 0.706344 0
M  V30 8 C 3.021720 -1.023042 0.236682 0
M  V30 9 C 2.562148 -1.915303 -0.702952 0
M  V30 10 N 1.238377 -2.031185 -1.176909 0
M  V30 11 C 0.047631 -1.426504 -0.700718 0
M  V30 12 N 0.102983 -0.638364 0.367943 0
M  V30 13 C -0.858033 0.026490 0.986787 0
M  V30 14 C -0.667923 0.818262 2.098769 0
M  V30 15 C -1.777457 1.450098 2.632297 0
M  V30 16 C -1.633072 2.307105 3.819449 0
M  V30 17 N -0.695010 3.032558 4.280702 0
M  V30 18 N -1.072513 3.668791 5.485467 0
M  V30 19 N -2.146396 2.911443 5.965831 0
M  V30 20 N -2.705090 2.464228 4.769124 0
M  V30 21 C -3.016330 1.273310 2.048411 0
M  V30 22 C -3.205781 0.469709 0.920875 0
M  V30 23 C -2.092017 -0.155413 0.397257 0
M  V30 24 C -2.234453 -0.955929 -0.712297 0
M  V30 25 S -3.694456 -1.296595 -1.577949 0
M  V30 26 C -2.832668 -2.413020 -2.828047 0
M  V30 27 C -1.406577 -2.389141 -2.395444 0
M  V30 28 C -1.173772 -1.616172 -1.296935 0
M  V30 29 C 3.541633 -2.757171 -1.181166 0
M  V30 30 H 6.251890 -1.788655 0.478625 0
M  V30 31 H 4.604255 -0.187846 1.449160 0
M  V30 32 H 2.343337 -0.310695 0.678722 0
M  V30 33 H 1.124372 -2.665964 -2.016920 0
M  V30 34 H 0.325274 0.920942 2.514942 0
M  V30 35 H -0.620832 4.525822 5.901625 0
M  V30 36 H -1.789895 2.155425 6.565079 0
M  V30 37 H -3.723506 2.262503 4.548957 0
M  V30 38 H -3.896538 1.759926 2.452216 0
M  V30 39 H -4.190548 0.338263 0.469395 0
M  V30 40 H -3.147488 -3.048000 -3.764642 0
M  V30 41 H -0.722401 -2.972255 -2.982773 0
M  V30 42 H 3.304342 -3.515261 -1.934891 0
M  V30 END ATOM
M  V30 BEGIN BOND
M  V30 1 1 1 2
M  V30 2 1 2 3
M  V30 3 1 2 4
M  V30 4 1 2 5
M  V30 5 2 5 6
M  V30 6 1 6 7
M  V30 7 2 7 8
M  V30 8 1 8 9
M  V30 9 1 9 10
M  V30 10 1 10 11
M  V30 11 2 11 12
M  V30 12 1 12 13
M  V30 13 2 13 14
M  V30 14 1 14 15
M  V30 15 1 15 16
M  V30 16 2 16 17
M  V30 17 1 17 18
M  V30 18 1 18 19
M  V30 19 1 19 20
M  V30 20 2 15 21
M  V30 21 1 21 22
M  V30 22 2 22 23
M  V30 23 1 23 24
M  V30 24 1 24 25
M  V30 25 1 25 26
M  V30 26 2 26 27
M  V30 27 1 27 28
M  V30 28 2 9 29
M  V30 29 1 29 5
M  V30 30 1 28 11
M  V30 31 1 23 13
M  V30 32 2 28 24
M  V30 33 1 20 16
M  V30 34 1 6 30
M  V30 35 1 7 31
M  V30 36 1 8 32
M  V30 37 1 10 33
M  V30 38 1 14 34
M  V30 39 1 18 35
M  V30 40 1 19 36
M  V30 41 1 20 37
M  V30 42 1 21 38
M  V30 43 1 22 39
M  V30 44 1 26 40
M  V30 45 1 27 41
M  V30 46 1 29 42
M  V30 END BOND
M  V30 END CTAB
M  END
>  <Dataset>  (8) 
ChEMBL_Kinases

>  <Ligand_Instance>  (8) 
nan

>  <PDB_ID>  (8) 
nan

>  <Standardized_SMILES>  (8) 
FC(F)(F)c1cccc(Nc2nc3cc(C4=NNNN4)ccc3c3sccc23)c1

>  <Name>  (8) 
nan

>  <Pocket>  (8) 
nan

>  <ATP_Site>  (8) 
nan

>  <Peripheral>  (8) 
nan

>  <Num_H_Atoms_ProtBoundConf>  (8) 
nan

>  <Num_Resolved_Atoms>  (8) 
nan

>  <Num_Not_Resolved_Atoms>  (8) 
nan

$$$$
CHEMBL3700498
     RDKit          3D

  0  0  0  0  0  0  0  0  0  0999 V3000
M  V30 BEGIN CTAB
M  V30 COUNTS 41 45 0 0 0
M  V30 BEGIN ATOM
M  V30 1 C 0.754869 -3.613993 3.842235 0
M  V30 2 O 0.404362 -4.648482 2.943082 0
M  V30 3 C -0.127793 -4.451120 1.681431 0
M  V30 4 C -0.401438 -3.235790 1.095888 0
M  V30 5 C -0.929969 -3.141861 -0.162139 0
M  V30 6 N -1.207528 -1.876964 -0.749459 0
M  V30 7 C -0.898351 -0.640671 -0.120105 0
M  V30 8 N 0.280982 -0.126889 -0.469842 0
M  V30 9 C 0.829987 1.000513 -0.049464 0
M  V30 10 C 2.049614 1.511650 -0.430558 0
M  V30 11 C 2.504905 2.707546 0.083875 0
M  V30 12 C 3.791514 3.244675 -0.330581 0
M  V30 13 N 4.626126 2.668783 -1.215120 0
M  V30 14 N 5.706166 3.427743 -1.363920 0
M  V30 15 N 5.595200 4.481152 -0.599414 0
M  V30 16 N 4.415229 4.368228 0.037426 0
M  V30 17 C 1.706109 3.384925 0.995339 0
M  V30 18 C 0.468776 2.898701 1.403221 0
M  V30 19 C 0.083060 1.716727 0.856530 0
M  V30 20 C -1.187318 1.211637 1.265434 0
M  V30 21 S -2.416945 1.827206 2.386426 0
M  V30 22 C -3.568992 0.460758 2.160152 0
M  V30 23 C -2.917346 -0.366894 1.236888 0
M  V30 24 C -1.697163 0.022944 0.781619 0
M  V30 25 C -1.223099 -4.275304 -0.926488 0
M  V30 26 C -0.946902 -5.493191 -0.335087 0
M  V30 27 C -0.406962 -5.610369 0.948491 0
M  V30 28 F -0.209154 -6.883324 1.350435 0
M  V30 29 H 1.819626 -3.312201 3.774785 0
M  V30 30 H 0.159303 -2.678075 3.689417 0
M  V30 31 H 0.538340 -3.889752 4.909527 0
M  V30 32 H -0.175751 -2.350561 1.685287 0
M  V30 33 H -1.651313 -1.776533 -1.672133 0
M  V30 34 H 2.626379 0.939114 -1.142485 0
M  V30 35 H 4.055018 5.062857 0.714603 0
M  V30 36 H 2.038279 4.329620 1.418790 0
M  V30 37 H -0.137615 3.462387 2.127234 0
M  V30 38 H -4.508755 0.372987 2.649681 0
M  V30 39 H -3.460332 -1.260383 0.965621 0
M  V30 40 H -1.639719 -4.199205 -1.919079 0
M  V30 41 H -1.188567 -6.364642 -0.962457 0
M  V30 END ATOM
M  V30 BEGIN BOND
M  V30 1 1 1 2
M  V30 2 1 2 3
M  V30 3 2 3 4
M  V30 4 1 4 5
M  V30 5 1 5 6
M  V30 6 1 6 7
M  V30 7 2 7 8
M  V30 8 1 8 9
M  V30 9 2 9 10
M  V30 10 1 10 11
M  V30 11 1 11 12
M  V30 12 2 12 13
M  V30 13 1 13 14
M  V30 14 2 14 15
M  V30 15 1 15 16
M  V30 16 2 11 17
M  V30 17 1 17 18
M  V30 18 2 18 19
M  V30 19 1 19 20
M  V30 20 1 20 21
M  V30 21 1 21 22
M  V30 22 2 22 23
M  V30 23 1 23 24
M  V30 24 2 5 25
M  V30 25 1 25 26
M  V30 26 2 26 27
M  V30 27 1 27 28
M  V30 28 1 27 3
M  V30 29 1 24 7
M  V30 30 1 19 9
M  V30 31 2 24 20
M  V30 32 1 16 12
M  V30 33 1 1 29
M  V30 34 1 1 30
M  V30 35 1 1 31
M  V30 36 1 4 32
M  V30 37 1 6 33
M  V30 38 1 10 34
M  V30 39 1 16 35
M  V30 40 1 17 36
M  V30 41 1 18 37
M  V30 42 1 22 38
M  V30 43 1 23 39
M  V30 44 1 25 40
M  V30 45 1 26 41
M  V30 END BOND
M  V30 END CTAB
M  END
>  <Dataset>  (9) 
ChEMBL_Kinases

>  <Ligand_Instance>  (9) 
nan

>  <PDB_ID>  (9) 
nan

>  <Standardized_SMILES>  (9) 
COc1cc(Nc2nc3cc(-c4nnn[nH]4)ccc3c3sccc23)ccc1F

>  <Name>  (9) 
nan

>  <Pocket>  (9) 
nan

>  <ATP_Site>  (9) 
nan

>  <Peripheral>  (9) 
nan

>  <Num_H_Atoms_ProtBoundConf>  (9) 
nan

>  <Num_Resolved_Atoms>  (9) 
nan

>  <Num_Not_Resolved_Atoms>  (9) 
nan

$$$$
CHEMBL3700480
     RDKit          3D

  0  0  0  0  0  0  0  0  0  0999 V3000
M  V30 BEGIN CTAB
M  V30 COUNTS 41 44 0 0 0
M  V30 BEGIN ATOM
M  V30 1 N 2.886346 -3.837408 -1.186378 0
M  V30 2 C 1.860098 -3.381158 -0.315875 0
M  V30 3 N 1.517830 -4.184388 0.680341 0
M  V30 4 C 0.563790 -3.890704 1.587775 0
M  V30 5 C -0.029500 -2.667451 1.385457 0
M  V30 6 C 0.298462 -1.805075 0.362436 0
M  V30 7 N 1.271252 -2.188324 -0.501975 0
M  V30 8 C -0.314498 -0.568147 0.176161 0
M  V30 9 N 0.119183 0.202161 -0.920534 0
M  V30 10 C 1.110988 1.142497 -1.301932 0
M  V30 11 C 1.023084 1.647016 -2.578227 0
M  V30 12 C 2.000692 2.548762 -2.928529 0
M  V30 13 C 2.998939 2.901304 -2.016893 0
M  V30 14 C 3.045996 2.368423 -0.746713 0
M  V30 15 C 4.155036 2.818584 0.119148 0
M  V30 16 F 5.263114 3.191300 -0.651530 0
M  V30 17 F 3.735946 3.857134 0.909372 0
M  V30 18 F 4.577952 1.775600 0.949061 0
M  V30 19 C 2.076216 1.463426 -0.375833 0
M  V30 20 N -1.274698 -0.199971 1.041208 0
M  V30 21 C -1.630843 -1.015690 2.063960 0
M  V30 22 C -2.628068 -0.497244 2.858687 0
M  V30 23 C -3.016892 -1.321533 3.922140 0
M  V30 24 C -4.069763 -0.896847 4.847269 0
M  V30 25 O -4.609512 -1.405529 5.864756 0
M  V30 26 O -4.669818 0.353759 4.620764 0
M  V30 27 C -2.424477 -2.570301 4.141144 0
M  V30 28 C -1.416003 -3.010489 3.275674 0
M  V30 29 C -1.007301 -2.230647 2.221373 0
M  V30 30 H 3.810406 -3.620638 -0.709951 0
M  V30 31 H 3.118995 -4.289762 -2.085890 0
M  V30 32 H 0.337397 -4.588036 2.370044 0
M  V30 33 H -0.633141 -0.143819 -1.579895 0
M  V30 34 H 0.231779 1.353151 -3.266689 0
M  V30 35 H 1.949465 2.963724 -3.943835 0
M  V30 36 H 3.701043 3.625906 -2.440084 0
M  V30 37 H 2.148873 1.077283 0.611580 0
M  V30 38 H -3.085198 0.461298 2.694173 0
M  V30 39 H -5.617156 0.586811 4.875738 0
M  V30 40 H -2.776060 -3.151905 4.983824 0
M  V30 41 H -1.047120 -3.969122 3.543763 0
M  V30 END ATOM
M  V30 BEGIN BOND
M  V30 1 1 1 2
M  V30 2 2 2 3
M  V30 3 1 3 4
M  V30 4 2 4 5
M  V30 5 1 5 6
M  V30 6 2 6 7
M  V30 7 1 6 8
M  V30 8 1 8 9
M  V30 9 1 9 10
M  V30 10 2 10 11
M  V30 11 1 11 12
M  V30 12 2 12 13
M  V30 13 1 13 14
M  V30 14 1 14 15
M  V30 15 1 15 16
M  V30 16 1 15 17
M  V30 17 1 15 18
M  V30 18 2 14 19
M  V30 19 2 8 20
M  V30 20 1 20 21
M  V30 21 2 21 22
M  V30 22 1 22 23
M  V30 23 1 23 24
M  V30 24 2 24 25
M  V30 25 1 24 26
M  V30 26 2 23 27
M  V30 27 1 27 28
M  V30 28 2 28 29
M  V30 29 1 7 2
M  V30 30 1 19 10
M  V30 31 1 29 21
M  V30 32 1 29 5
M  V30 33 1 1 30
M  V30 34 1 1 31
M  V30 35 1 4 32
M  V30 36 1 9 33
M  V30 37 1 11 34
M  V30 38 1 12 35
M  V30 39 1 13 36
M  V30 40 1 19 37
M  V30 41 1 22 38
M  V30 42 1 26 39
M  V30 43 1 27 40
M  V30 44 1 28 41
M  V30 END BOND
M  V30 END CTAB
M  END
>  <Dataset>  (10) 
ChEMBL_Kinases

>  <Ligand_Instance>  (10) 
nan

>  <PDB_ID>  (10) 
nan

>  <Standardized_SMILES>  (10) 
Nc1ncc2c(n1)c(Nc1cccc(C(F)(F)F)c1)nc1cc(C(=O)O)ccc12

>  <Name>  (10) 
nan

>  <Pocket>  (10) 
nan

>  <ATP_Site>  (10) 
nan

>  <Peripheral>  (10) 
nan

>  <Num_H_Atoms_ProtBoundConf>  (10) 
nan

>  <Num_Resolved_Atoms>  (10) 
nan

>  <Num_Not_Resolved_Atoms>  (10) 
nan

$$$$
CHEMBL3700481
     RDKit          3D

  0  0  0  0  0  0  0  0  0  0999 V3000
M  V30 BEGIN CTAB
M  V30 COUNTS 47 51 0 0 0
M  V30 BEGIN ATOM
M  V30 1 O 2.717637 -3.915752 6.410232 0
M  V30 2 C 2.230255 -2.814772 6.044736 0
M  V30 3 O 1.927059 -1.882535 7.028458 0
M  V30 4 C 1.993914 -2.533093 4.632319 0
M  V30 5 C 2.318013 -3.503614 3.705471 0
M  V30 6 C 2.101097 -3.255425 2.359688 0
M  V30 7 C 1.566352 -2.037239 2.012259 0
M  V30 8 C 1.239010 -1.060878 2.929453 0
M  V30 9 C 1.457268 -1.312544 4.273898 0
M  V30 10 N 0.720093 0.108863 2.532502 0
M  V30 11 C 0.465025 0.464662 1.264682 0
M  V30 12 N -0.085373 1.703048 0.846086 0
M  V30 13 C -0.502505 2.841748 1.594379 0
M  V30 14 C 0.442021 3.586067 2.472376 0
M  V30 15 C -0.632879 2.760212 3.079332 0
M  V30 16 C 0.790232 -0.508018 0.340042 0
M  V30 17 N 0.584534 -0.280124 -0.971114 0
M  V30 18 C 0.865931 -1.159125 -1.952757 0
M  V30 19 N 0.628474 -0.867181 -3.329243 0
M  V30 20 C -0.703450 -1.276616 -3.712259 0
M  V30 21 C -1.763883 -0.601637 -2.939463 0
M  V30 22 C -2.335455 0.593908 -3.340749 0
M  V30 23 C -3.321865 1.158754 -2.559805 0
M  V30 24 N -3.787478 0.632433 -1.411432 0
M  V30 25 C -3.235175 -0.534606 -1.012059 0
M  V30 26 C -2.237992 -1.152525 -1.755425 0
M  V30 27 N 1.394293 -2.356137 -1.577590 0
M  V30 28 C 1.625235 -2.646809 -0.276168 0
M  V30 29 C 1.324262 -1.722137 0.697908 0
M  V30 30 H 1.602765 -2.165692 7.961695 0
M  V30 31 H 2.733502 -4.435862 4.045239 0
M  V30 32 H 2.364339 -4.025333 1.697264 0
M  V30 33 H 1.218656 -0.580160 5.043430 0
M  V30 34 H -0.205849 1.801056 -0.211475 0
M  V30 35 H -1.243544 3.520127 1.065595 0
M  V30 36 H 0.326541 4.680073 2.591901 0
M  V30 37 H 1.481314 3.258965 2.490106 0
M  V30 38 H -0.420715 1.816042 3.602753 0
M  V30 39 H -1.501524 3.297981 3.564964 0
M  V30 40 H 1.240451 -0.427450 -4.055407 0
M  V30 41 H -0.781941 -2.367705 -3.469110 0
M  V30 42 H -0.924851 -1.170925 -4.780120 0
M  V30 43 H -1.982051 1.041696 -4.259880 0
M  V30 44 H -3.775852 2.107383 -2.877669 0
M  V30 45 H -3.555086 -1.030677 -0.090682 0
M  V30 46 H -1.803046 -2.088710 -1.424051 0
M  V30 47 H 2.032328 -3.604006 -0.158713 0
M  V30 END ATOM
M  V30 BEGIN BOND
M  V30 1 2 1 2
M  V30 2 1 2 3
M  V30 3 1 2 4
M  V30 4 2 4 5
M  V30 5 1 5 6
M  V30 6 2 6 7
M  V30 7 1 7 8
M  V30 8 2 8 9
M  V30 9 1 8 10
M  V30 10 2 10 11
M  V30 11 1 11 12
M  V30 12 1 12 13
M  V30 13 1 13 14
M  V30 14 1 14 15
M  V30 15 1 11 16
M  V30 16 2 16 17
M  V30 17 1 17 18
M  V30 18 1 18 19
M  V30 19 1 19 20
M  V30 20 1 20 21
M  V30 21 2 21 22
M  V30 22 1 22 23
M  V30 23 2 23 24
M  V30 24 1 24 25
M  V30 25 2 25 26
M  V30 26 2 18 27
M  V30 27 1 27 28
M  V30 28 2 28 29
M  V30 29 1 9 4
M  V30 30 1 15 13
M  V30 31 1 29 16
M  V30 32 1 29 7
M  V30 33 1 26 21
M  V30 34 1 3 30
M  V30 35 1 5 31
M  V30 36 1 6 32
M  V30 37 1 9 33
M  V30 38 1 12 34
M  V30 39 1 13 35
M  V30 40 1 14 36
M  V30 41 1 14 37
M  V30 42 1 15 38
M  V30 43 1 15 39
M  V30 44 1 19 40
M  V30 45 1 20 41
M  V30 46 1 20 42
M  V30 47 1 22 43
M  V30 48 1 23 44
M  V30 49 1 25 45
M  V30 50 1 26 46
M  V30 51 1 28 47
M  V30 END BOND
M  V30 END CTAB
M  END
>  <Dataset>  (11) 
ChEMBL_Kinases

>  <Ligand_Instance>  (11) 
nan

>  <PDB_ID>  (11) 
nan

>  <Standardized_SMILES>  (11) 
O=C(O)c1ccc2c(c1)nc(NC1CC1)c1nc(NCc3ccncc3)ncc12

>  <Name>  (11) 
nan

>  <Pocket>  (11) 
nan

>  <ATP_Site>  (11) 
nan

>  <Peripheral>  (11) 
nan

>  <Num_H_Atoms_ProtBoundConf>  (11) 
nan

>  <Num_Resolved_Atoms>  (11) 
nan

>  <Num_Not_Resolved_Atoms>  (11) 
nan

$$$$
CHEMBL3700482
     RDKit          3D

  0  0  0  0  0  0  0  0  0  0999 V3000
M  V30 BEGIN CTAB
M  V30 COUNTS 42 45 0 0 0
M  V30 BEGIN ATOM
M  V30 1 O 5.999476 -0.223399 3.452000 0
M  V30 2 C 5.695287 -1.282589 2.846888 0
M  V30 3 O 6.701835 -2.238200 2.924913 0
M  V30 4 C 4.438018 -1.498129 2.141505 0
M  V30 5 C 4.179428 -2.693405 1.499766 0
M  V30 6 C 2.973515 -2.857368 0.841664 0
M  V30 7 C 2.077245 -1.814133 0.855325 0
M  V30 8 C 2.336936 -0.621202 1.496585 0
M  V30 9 C 3.540030 -0.440027 2.160735 0
M  V30 10 N 1.436869 0.374482 1.487826 0
M  V30 11 C 0.241343 0.325764 0.884481 0
M  V30 12 N -0.706795 1.366427 0.871119 0
M  V30 13 C -0.598960 2.661582 1.486467 0
M  V30 14 C 0.614463 3.476389 0.958268 0
M  V30 15 C 0.494699 3.009145 2.400817 0
M  V30 16 C -0.015062 -0.867577 0.244716 0
M  V30 17 N -1.207050 -1.000676 -0.393286 0
M  V30 18 C -1.517987 -2.139624 -1.036275 0
M  V30 19 N -2.777428 -2.264393 -1.703454 0
M  V30 20 C -3.739584 -1.209171 -1.708416 0
M  V30 21 C -4.228573 -0.807497 -0.330924 0
M  V30 22 O -4.838202 -1.873892 0.331488 0
M  V30 23 N -0.640707 -3.158578 -1.048741 0
M  V30 24 C 0.561927 -3.076218 -0.427381 0
M  V30 25 C 0.865450 -1.925498 0.217081 0
M  V30 26 H 7.161139 -2.485140 3.806402 0
M  V30 27 H 4.930361 -3.494287 1.519942 0
M  V30 28 H 2.839835 -3.791513 0.373456 0
M  V30 29 H 3.776828 0.476921 2.671776 0
M  V30 30 H -1.615211 1.197808 0.350709 0
M  V30 31 H -1.522711 3.279559 1.597476 0
M  V30 32 H 1.346309 2.951864 0.323399 0
M  V30 33 H 0.429016 4.520598 0.687016 0
M  V30 34 H 0.335416 3.895510 3.084307 0
M  V30 35 H 1.260217 2.327801 2.774914 0
M  V30 36 H -2.997059 -3.162148 -2.204001 0
M  V30 37 H -4.617461 -1.471805 -2.294870 0
M  V30 38 H -3.280201 -0.264455 -2.123618 0
M  V30 39 H -5.043659 -0.071437 -0.518357 0
M  V30 40 H -3.484587 -0.299115 0.283490 0
M  V30 41 H -4.669657 -2.675735 -0.226133 0
M  V30 42 H 1.130145 -3.949185 -0.527362 0
M  V30 END ATOM
M  V30 BEGIN BOND
M  V30 1 2 1 2
M  V30 2 1 2 3
M  V30 3 1 2 4
M  V30 4 2 4 5
M  V30 5 1 5 6
M  V30 6 2 6 7
M  V30 7 1 7 8
M  V30 8 2 8 9
M  V30 9 1 8 10
M  V30 10 2 10 11
M  V30 11 1 11 12
M  V30 12 1 12 13
M  V30 13 1 13 14
M  V30 14 1 14 15
M  V30 15 1 11 16
M  V30 16 2 16 17
M  V30 17 1 17 18
M  V30 18 1 18 19
M  V30 19 1 19 20
M  V30 20 1 20 21
M  V30 21 1 21 22
M  V30 22 2 18 23
M  V30 23 1 23 24
M  V30 24 2 24 25
M  V30 25 1 9 4
M  V30 26 1 15 13
M  V30 27 1 25 16
M  V30 28 1 25 7
M  V30 29 1 3 26
M  V30 30 1 5 27
M  V30 31 1 6 28
M  V30 32 1 9 29
M  V30 33 1 12 30
M  V30 34 1 13 31
M  V30 35 1 14 32
M  V30 36 1 14 33
M  V30 37 1 15 34
M  V30 38 1 15 35
M  V30 39 1 19 36
M  V30 40 1 20 37
M  V30 41 1 20 38
M  V30 42 1 21 39
M  V30 43 1 21 40
M  V30 44 1 22 41
M  V30 45 1 24 42
M  V30 END BOND
M  V30 END CTAB
M  END
>  <Dataset>  (12) 
ChEMBL_Kinases

>  <Ligand_Instance>  (12) 
nan

>  <PDB_ID>  (12) 
nan

>  <Standardized_SMILES>  (12) 
O=C(O)c1ccc2c(c1)nc(NC1CC1)c1nc(NCCO)ncc12

>  <Name>  (12) 
nan

>  <Pocket>  (12) 
nan

>  <ATP_Site>  (12) 
nan

>  <Peripheral>  (12) 
nan

>  <Num_H_Atoms_ProtBoundConf>  (12) 
nan

>  <Num_Resolved_Atoms>  (12) 
nan

>  <Num_Not_Resolved_Atoms>  (12) 
nan

$$$$
CHEMBL3700483
     RDKit          3D

  0  0  0  0  0  0  0  0  0  0999 V3000
M  V30 BEGIN CTAB
M  V30 COUNTS 47 51 0 0 0
M  V30 BEGIN ATOM
M  V30 1 O 1.580718 -1.619026 6.801605 0
M  V30 2 C 1.746814 -2.525874 5.947698 0
M  V30 3 O 2.081660 -3.682207 6.634403 0
M  V30 4 C 1.606913 -2.367446 4.490281 0
M  V30 5 C 1.812773 -3.434267 3.639314 0
M  V30 6 C 1.662045 -3.200308 2.278290 0
M  V30 7 C 1.320202 -1.939090 1.841793 0
M  V30 8 C 1.125724 -0.904728 2.735742 0
M  V30 9 C 1.263810 -1.089145 4.094792 0
M  V30 10 N 0.795642 0.313248 2.277102 0
M  V30 11 C 0.627159 0.643761 0.987879 0
M  V30 12 N 0.302172 1.936065 0.502531 0
M  V30 13 C 0.083855 3.187277 1.144551 0
M  V30 14 C 1.153301 3.811955 1.973723 0
M  V30 15 C -0.044998 3.176197 2.643586 0
M  V30 16 C 0.817311 -0.386234 0.062469 0
M  V30 17 N 0.681388 -0.184605 -1.278205 0
M  V30 18 C 0.868619 -1.169147 -2.181253 0
M  V30 19 N 0.632910 -0.630749 -3.474091 0
M  V30 20 C -0.710120 -1.132377 -3.702321 0
M  V30 21 C -1.667200 -0.839426 -2.639775 0
M  V30 22 C -2.498534 0.256580 -2.478502 0
M  V30 23 C -3.363773 0.395444 -1.419702 0
M  V30 24 C -3.440995 -0.586377 -0.439927 0
M  V30 25 C -2.610506 -1.664893 -0.615669 0
M  V30 26 N -1.776968 -1.777585 -1.655327 0
M  V30 27 N 1.201248 -2.391723 -1.721362 0
M  V30 28 C 1.348177 -2.646706 -0.411060 0
M  V30 29 C 1.157045 -1.641540 0.511106 0
M  V30 30 H 1.457348 -4.084690 7.333712 0
M  V30 31 H 2.078631 -4.381643 4.091614 0
M  V30 32 H 1.818730 -4.010555 1.638120 0
M  V30 33 H 1.110407 -0.274154 4.795991 0
M  V30 34 H 0.194620 2.017433 -0.557027 0
M  V30 35 H -0.553328 3.943283 0.590526 0
M  V30 36 H 2.154721 3.333224 2.048761 0
M  V30 37 H 1.198297 4.900142 2.060516 0
M  V30 38 H -0.825734 3.873741 3.053657 0
M  V30 39 H 0.087429 2.290978 3.251193 0
M  V30 40 H 1.373178 -0.067465 -3.921328 0
M  V30 41 H -1.109598 -0.752818 -4.683011 0
M  V30 42 H -0.644902 -2.227876 -3.844810 0
M  V30 43 H -2.401726 1.000172 -3.271628 0
M  V30 44 H -3.993706 1.260183 -1.329139 0
M  V30 45 H -4.087200 -0.559892 0.419342 0
M  V30 46 H -2.631121 -2.464563 0.127813 0
M  V30 47 H 1.607649 -3.646844 -0.232378 0
M  V30 END ATOM
M  V30 BEGIN BOND
M  V30 1 2 1 2
M  V30 2 1 2 3
M  V30 3 1 2 4
M  V30 4 2 4 5
M  V30 5 1 5 6
M  V30 6 2 6 7
M  V30 7 1 7 8
M  V30 8 2 8 9
M  V30 9 1 8 10
M  V30 10 2 10 11
M  V30 11 1 11 12
M  V30 12 1 12 13
M  V30 13 1 13 14
M  V30 14 1 14 15
M  V30 15 1 11 16
M  V30 16 2 16 17
M  V30 17 1 17 18
M  V30 18 1 18 19
M  V30 19 1 19 20
M  V30 20 1 20 21
M  V30 21 2 21 22
M  V30 22 1 22 23
M  V30 23 2 23 24
M  V30 24 1 24 25
M  V30 25 2 25 26
M  V30 26 2 18 27
M  V30 27 1 27 28
M  V30 28 2 28 29
M  V30 29 1 9 4
M  V30 30 1 15 13
M  V30 31 1 29 16
M  V30 32 1 29 7
M  V30 33 1 26 21
M  V30 34 1 3 30
M  V30 35 1 5 31
M  V30 36 1 6 32
M  V30 37 1 9 33
M  V30 38 1 12 34
M  V30 39 1 13 35
M  V30 40 1 14 36
M  V30 41 1 14 37
M  V30 42 1 15 38
M  V30 43 1 15 39
M  V30 44 1 19 40
M  V30 45 1 20 41
M  V30 46 1 20 42
M  V30 47 1 22 43
M  V30 48 1 23 44
M  V30 49 1 24 45
M  V30 50 1 25 46
M  V30 51 1 28 47
M  V30 END BOND
M  V30 END CTAB
M  END
>  <Dataset>  (13) 
ChEMBL_Kinases

>  <Ligand_Instance>  (13) 
nan

>  <PDB_ID>  (13) 
nan

>  <Standardized_SMILES>  (13) 
O=C(O)c1ccc2c(c1)nc(NC1CC1)c1nc(NCc3ccccn3)ncc12

>  <Name>  (13) 
nan

>  <Pocket>  (13) 
nan

>  <ATP_Site>  (13) 
nan

>  <Peripheral>  (13) 
nan

>  <Num_H_Atoms_ProtBoundConf>  (13) 
nan

>  <Num_Resolved_Atoms>  (13) 
nan

>  <Num_Not_Resolved_Atoms>  (13) 
nan

$$$$
CHEMBL3700484
     RDKit          3D

  0  0  0  0  0  0  0  0  0  0999 V3000
M  V30 BEGIN CTAB
M  V30 COUNTS 51 55 0 0 0
M  V30 BEGIN ATOM
M  V30 1 O 6.603297 -2.704552 3.071478 0
M  V30 2 C 5.538271 -3.363270 3.235875 0
M  V30 3 O 5.834469 -4.629122 3.714942 0
M  V30 4 C 4.211235 -2.838201 2.953212 0
M  V30 5 C 3.081395 -3.599764 3.150896 0
M  V30 6 C 1.846641 -3.050583 2.865644 0
M  V30 7 C 1.745420 -1.763328 2.391396 0
M  V30 8 C 2.897826 -1.030025 2.205464 0
M  V30 9 C 4.145493 -1.551696 2.481709 0
M  V30 10 N 2.824678 0.232209 1.741862 0
M  V30 11 C 1.650330 0.810319 1.449794 0
M  V30 12 N 1.586028 2.135048 0.963183 0
M  V30 13 C 2.793298 2.912230 0.764085 0
M  V30 14 C 3.680739 3.186207 1.921752 0
M  V30 15 C 2.760699 4.298170 1.391702 0
M  V30 16 C 0.483494 0.084958 1.631779 0
M  V30 17 N -0.737268 0.630403 1.347873 0
M  V30 18 C -1.864954 -0.098464 1.533489 0
M  V30 19 N -3.103999 0.528416 1.219438 0
M  V30 20 C -3.540430 0.374437 -0.157606 0
M  V30 21 C -3.693130 -1.070842 -0.432098 0
M  V30 22 C -4.132725 -1.402922 -1.799392 0
M  V30 23 C -5.442643 -1.542282 -2.247968 0
M  V30 24 C -5.702711 -1.856764 -3.561772 0
M  V30 25 C -4.706720 -2.050182 -4.499559 0
M  V30 26 C -3.389457 -1.918606 -4.085126 0
M  V30 27 C -3.141198 -1.601596 -2.759006 0
M  V30 28 N -1.809595 -1.378160 2.002395 0
M  V30 29 C -0.624587 -1.947092 2.292300 0
M  V30 30 C 0.521244 -1.209531 2.104692 0
M  V30 31 H 6.460490 -5.278093 3.229617 0
M  V30 32 H 3.236352 -4.604593 3.526364 0
M  V30 33 H 1.019782 -3.712453 3.048305 0
M  V30 34 H 5.021574 -0.912989 2.310860 0
M  V30 35 H 0.662823 2.571077 0.740932 0
M  V30 36 H 3.275633 2.852675 -0.233430 0
M  V30 37 H 3.453337 2.892140 2.949430 0
M  V30 38 H 4.773291 3.297879 1.722160 0
M  V30 39 H 1.872033 4.574161 1.992297 0
M  V30 40 H 3.227233 5.138957 0.861074 0
M  V30 41 H -3.298062 0.924029 2.176202 0
M  V30 42 H -2.773757 0.886873 -0.762003 0
M  V30 43 H -4.513339 0.894341 -0.329219 0
M  V30 44 H -2.794217 -1.651406 -0.143017 0
M  V30 45 H -4.520001 -1.438602 0.241090 0
M  V30 46 H -6.205394 -1.386849 -1.498559 0
M  V30 47 H -6.725971 -1.961753 -3.894960 0
M  V30 48 H -4.911909 -2.297052 -5.531598 0
M  V30 49 H -2.546081 -2.054007 -4.757654 0
M  V30 50 H -2.089843 -1.505397 -2.464577 0
M  V30 51 H -0.691413 -2.941061 2.648915 0
M  V30 END ATOM
M  V30 BEGIN BOND
M  V30 1 2 1 2
M  V30 2 1 2 3
M  V30 3 1 2 4
M  V30 4 2 4 5
M  V30 5 1 5 6
M  V30 6 2 6 7
M  V30 7 1 7 8
M  V30 8 2 8 9
M  V30 9 1 8 10
M  V30 10 2 10 11
M  V30 11 1 11 12
M  V30 12 1 12 13
M  V30 13 1 13 14
M  V30 14 1 14 15
M  V30 15 1 11 16
M  V30 16 2 16 17
M  V30 17 1 17 18
M  V30 18 1 18 19
M  V30 19 1 19 20
M  V30 20 1 20 21
M  V30 21 1 21 22
M  V30 22 2 22 23
M  V30 23 1 23 24
M  V30 24 2 24 25
M  V30 25 1 25 26
M  V30 26 2 26 27
M  V30 27 2 18 28
M  V30 28 1 28 29
M  V30 29 2 29 30
M  V30 30 1 9 4
M  V30 31 1 15 13
M  V30 32 1 30 16
M  V30 33 1 30 7
M  V30 34 1 27 22
M  V30 35 1 3 31
M  V30 36 1 5 32
M  V30 37 1 6 33
M  V30 38 1 9 34
M  V30 39 1 12 35
M  V30 40 1 13 36
M  V30 41 1 14 37
M  V30 42 1 14 38
M  V30 43 1 15 39
M  V30 44 1 15 40
M  V30 45 1 19 41
M  V30 46 1 20 42
M  V30 47 1 20 43
M  V30 48 1 21 44
M  V30 49 1 21 45
M  V30 50 1 23 46
M  V30 51 1 24 47
M  V30 52 1 25 48
M  V30 53 1 26 49
M  V30 54 1 27 50
M  V30 55 1 29 51
M  V30 END BOND
M  V30 END CTAB
M  END
>  <Dataset>  (14) 
ChEMBL_Kinases

>  <Ligand_Instance>  (14) 
nan

>  <PDB_ID>  (14) 
nan

>  <Standardized_SMILES>  (14) 
O=C(O)c1ccc2c(c1)nc(NC1CC1)c1nc(NCCc3ccccc3)ncc12

>  <Name>  (14) 
nan

>  <Pocket>  (14) 
nan

>  <ATP_Site>  (14) 
nan

>  <Peripheral>  (14) 
nan

>  <Num_H_Atoms_ProtBoundConf>  (14) 
nan

>  <Num_Resolved_Atoms>  (14) 
nan

>  <Num_Not_Resolved_Atoms>  (14) 
nan

$$$$
CHEMBL3700485
     RDKit          3D

  0  0  0  0  0  0  0  0  0  0999 V3000
M  V30 BEGIN CTAB
M  V30 COUNTS 44 47 0 0 0
M  V30 BEGIN ATOM
M  V30 1 C 3.797317 -4.726370 -0.826612 0
M  V30 2 C 2.466759 -4.126428 -0.464402 0
M  V30 3 C 1.436570 -4.369020 -1.528918 0
M  V30 4 N 2.571510 -2.708226 -0.165549 0
M  V30 5 C 1.400316 -1.977667 0.198634 0
M  V30 6 N 0.226417 -2.638056 0.252535 0
M  V30 7 C -0.904361 -1.991541 0.591056 0
M  V30 8 C -0.789353 -0.652387 0.870544 0
M  V30 9 C 0.405497 0.028981 0.817668 0
M  V30 10 N 1.496047 -0.666133 0.475228 0
M  V30 11 C 0.541951 1.369222 1.095439 0
M  V30 12 N 1.755224 2.103562 1.047289 0
M  V30 13 C 3.084120 1.671897 0.705001 0
M  V30 14 C 4.257735 2.581934 0.749677 0
M  V30 15 C 4.069579 1.538853 1.840593 0
M  V30 16 N -0.582859 2.010000 1.433636 0
M  V30 17 C -1.781174 1.413654 1.506256 0
M  V30 18 C -2.846912 2.220340 1.871519 0
M  V30 19 C -4.076123 1.568364 1.936920 0
M  V30 20 C -5.280990 2.335041 2.317183 0
M  V30 21 O -6.467210 1.930312 2.430793 0
M  V30 22 O -5.167328 3.689475 2.602166 0
M  V30 23 C -4.262192 0.210254 1.663572 0
M  V30 24 C -3.128459 -0.526640 1.302276 0
M  V30 25 C -1.896399 0.072277 1.224453 0
M  V30 26 H 3.720070 -5.092560 -1.876816 0
M  V30 27 H 4.637453 -4.037466 -0.695131 0
M  V30 28 H 4.018702 -5.653244 -0.221371 0
M  V30 29 H 2.113727 -4.644308 0.470627 0
M  V30 30 H 1.300112 -3.418912 -2.106283 0
M  V30 31 H 1.796062 -5.129914 -2.264916 0
M  V30 32 H 0.464127 -4.721083 -1.103285 0
M  V30 33 H 3.504135 -2.250112 -0.223248 0
M  V30 34 H -1.779687 -2.571857 0.611609 0
M  V30 35 H 1.734759 3.120754 1.289254 0
M  V30 36 H 3.100678 0.926154 -0.129941 0
M  V30 37 H 5.108325 2.349437 0.079936 0
M  V30 38 H 4.146530 3.655035 1.019880 0
M  V30 39 H 4.732115 0.633140 1.837706 0
M  V30 40 H 3.790163 1.953558 2.821663 0
M  V30 41 H -2.788679 3.266288 2.096714 0
M  V30 42 H -5.923105 4.358947 2.477573 0
M  V30 43 H -5.254199 -0.216687 1.738678 0
M  V30 44 H -3.349086 -1.559687 1.107981 0
M  V30 END ATOM
M  V30 BEGIN BOND
M  V30 1 1 1 2
M  V30 2 1 2 3
M  V30 3 1 2 4
M  V30 4 1 4 5
M  V30 5 2 5 6
M  V30 6 1 6 7
M  V30 7 2 7 8
M  V30 8 1 8 9
M  V30 9 2 9 10
M  V30 10 1 9 11
M  V30 11 1 11 12
M  V30 12 1 12 13
M  V30 13 1 13 14
M  V30 14 1 14 15
M  V30 15 2 11 16
M  V30 16 1 16 17
M  V30 17 2 17 18
M  V30 18 1 18 19
M  V30 19 1 19 20
M  V30 20 2 20 21
M  V30 21 1 20 22
M  V30 22 2 19 23
M  V30 23 1 23 24
M  V30 24 2 24 25
M  V30 25 1 10 5
M  V30 26 1 15 13
M  V30 27 1 25 17
M  V30 28 1 25 8
M  V30 29 1 1 26
M  V30 30 1 1 27
M  V30 31 1 1 28
M  V30 32 1 2 29
M  V30 33 1 3 30
M  V30 34 1 3 31
M  V30 35 1 3 32
M  V30 36 1 4 33
M  V30 37 1 7 34
M  V30 38 1 12 35
M  V30 39 1 13 36
M  V30 40 1 14 37
M  V30 41 1 14 38
M  V30 42 1 15 39
M  V30 43 1 15 40
M  V30 44 1 18 41
M  V30 45 1 22 42
M  V30 46 1 23 43
M  V30 47 1 24 44
M  V30 END BOND
M  V30 END CTAB
M  END
>  <Dataset>  (15) 
ChEMBL_Kinases

>  <Ligand_Instance>  (15) 
nan

>  <PDB_ID>  (15) 
nan

>  <Standardized_SMILES>  (15) 
CC(C)Nc1ncc2c(n1)c(NC1CC1)nc1cc(C(=O)O)ccc12

>  <Name>  (15) 
nan

>  <Pocket>  (15) 
nan

>  <ATP_Site>  (15) 
nan

>  <Peripheral>  (15) 
nan

>  <Num_H_Atoms_ProtBoundConf>  (15) 
nan

>  <Num_Resolved_Atoms>  (15) 
nan

>  <Num_Not_Resolved_Atoms>  (15) 
nan

$$$$
CHEMBL3700486
     RDKit          3D

  0  0  0  0  0  0  0  0  0  0999 V3000
M  V30 BEGIN CTAB
M  V30 COUNTS 48 52 0 0 0
M  V30 BEGIN ATOM
M  V30 1 O 6.707477 -2.642983 2.360990 0
M  V30 2 C 6.056116 -3.201578 1.440021 0
M  V30 3 O 6.742712 -4.315758 0.964900 0
M  V30 4 C 4.762772 -2.763918 0.924673 0
M  V30 5 C 4.099707 -3.423922 -0.090931 0
M  V30 6 C 2.877305 -2.932979 -0.512120 0
M  V30 7 C 2.381917 -1.805891 0.105987 0
M  V30 8 C 3.033292 -1.135460 1.122590 0
M  V30 9 C 4.254407 -1.617754 1.550151 0
M  V30 10 N 2.495828 -0.035268 1.688768 0
M  V30 11 C 1.306162 0.465428 1.298024 0
M  V30 12 N 0.832074 1.629674 1.964748 0
M  V30 13 C 1.638834 2.212934 3.018699 0
M  V30 14 C 1.175779 3.427264 3.733175 0
M  V30 15 C 2.266547 3.538974 2.686674 0
M  V30 16 C 0.608224 -0.160767 0.287158 0
M  V30 17 N -0.578692 0.351026 -0.091389 0
M  V30 18 C -1.261912 -0.275174 -1.091098 0
M  V30 19 N -2.517162 0.245505 -1.510957 0
M  V30 20 C -3.798298 -0.048937 -1.010713 0
M  V30 21 C -4.914236 0.548315 -1.561067 0
M  V30 22 C -6.165937 0.274109 -1.084495 0
M  V30 23 C -6.282679 -0.624127 -0.028965 0
M  V30 24 C -5.150633 -1.213592 0.510418 0
M  V30 25 C -5.401150 -2.158868 1.640107 0
M  V30 26 F -6.520182 -2.913486 1.363514 0
M  V30 27 F -4.299065 -2.952230 1.913750 0
M  V30 28 F -5.658800 -1.382538 2.775911 0
M  V30 29 C -3.871622 -0.946229 0.038296 0
M  V30 30 N -0.741697 -1.377178 -1.670468 0
M  V30 31 C 0.449346 -1.889089 -1.289335 0
M  V30 32 C 1.168633 -1.285259 -0.283886 0
M  V30 33 H 7.724436 -4.248267 0.664451 0
M  V30 34 H 4.573871 -4.306072 -0.515312 0
M  V30 35 H 2.415900 -3.473234 -1.287673 0
M  V30 36 H 4.759064 -1.099839 2.336745 0
M  V30 37 H -0.080412 2.036697 1.683230 0
M  V30 38 H 2.271762 1.455748 3.556496 0
M  V30 39 H 1.549507 3.529535 4.770948 0
M  V30 40 H 0.188324 3.851377 3.462524 0
M  V30 41 H 3.310358 3.654693 3.013510 0
M  V30 42 H 1.995139 4.046531 1.729245 0
M  V30 43 H -2.189480 0.866276 -2.253003 0
M  V30 44 H -4.795914 1.239768 -2.376797 0
M  V30 45 H -7.063429 0.715138 -1.481337 0
M  V30 46 H -7.274727 -0.845733 0.353310 0
M  V30 47 H -3.052862 -1.438588 0.504751 0
M  V30 48 H 0.717423 -2.741488 -1.829495 0
M  V30 END ATOM
M  V30 BEGIN BOND
M  V30 1 2 1 2
M  V30 2 1 2 3
M  V30 3 1 2 4
M  V30 4 2 4 5
M  V30 5 1 5 6
M  V30 6 2 6 7
M  V30 7 1 7 8
M  V30 8 2 8 9
M  V30 9 1 8 10
M  V30 10 2 10 11
M  V30 11 1 11 12
M  V30 12 1 12 13
M  V30 13 1 13 14
M  V30 14 1 14 15
M  V30 15 1 11 16
M  V30 16 2 16 17
M  V30 17 1 17 18
M  V30 18 1 18 19
M  V30 19 1 19 20
M  V30 20 2 20 21
M  V30 21 1 21 22
M  V30 22 2 22 23
M  V30 23 1 23 24
M  V30 24 1 24 25
M  V30 25 1 25 26
M  V30 26 1 25 27
M  V30 27 1 25 28
M  V30 28 2 24 29
M  V30 29 2 18 30
M  V30 30 1 30 31
M  V30 31 2 31 32
M  V30 32 1 9 4
M  V30 33 1 15 13
M  V30 34 1 32 16
M  V30 35 1 32 7
M  V30 36 1 29 20
M  V30 37 1 3 33
M  V30 38 1 5 34
M  V30 39 1 6 35
M  V30 40 1 9 36
M  V30 41 1 12 37
M  V30 42 1 13 38
M  V30 43 1 14 39
M  V30 44 1 14 40
M  V30 45 1 15 41
M  V30 46 1 15 42
M  V30 47 1 19 43
M  V30 48 1 21 44
M  V30 49 1 22 45
M  V30 50 1 23 46
M  V30 51 1 29 47
M  V30 52 1 31 48
M  V30 END BOND
M  V30 END CTAB
M  END
>  <Dataset>  (16) 
ChEMBL_Kinases

>  <Ligand_Instance>  (16) 
nan

>  <PDB_ID>  (16) 
nan

>  <Standardized_SMILES>  (16) 
O=C(O)c1ccc2c(c1)nc(NC1CC1)c1nc(Nc3cccc(C(F)(F)F)c3)ncc12

>  <Name>  (16) 
nan

>  <Pocket>  (16) 
nan

>  <ATP_Site>  (16) 
nan

>  <Peripheral>  (16) 
nan

>  <Num_H_Atoms_ProtBoundConf>  (16) 
nan

>  <Num_Resolved_Atoms>  (16) 
nan

>  <Num_Not_Resolved_Atoms>  (16) 
nan

$$$$
CHEMBL3700487
     RDKit          3D

  0  0  0  0  0  0  0  0  0  0999 V3000
M  V30 BEGIN CTAB
M  V30 COUNTS 43 46 0 0 0
M  V30 BEGIN ATOM
M  V30 1 O 3.620923 -2.687909 3.221253 0
M  V30 2 C 2.981231 -3.628556 2.689999 0
M  V30 3 O 3.265175 -4.956183 3.054412 0
M  V30 4 C 1.928029 -3.482109 1.690105 0
M  V30 5 C 1.222827 -4.504080 1.092922 0
M  V30 6 C 0.235675 -4.268743 0.158502 0
M  V30 7 C -0.022807 -2.944860 -0.160362 0
M  V30 8 C 0.666642 -1.902926 0.421178 0
M  V30 9 C 1.643936 -2.153207 1.347091 0
M  V30 10 N 0.251874 -0.725917 -0.030890 0
M  V30 11 C -0.692054 -0.463249 -0.922885 0
M  V30 12 N -0.837385 0.928971 -1.116064 0
M  V30 13 C -0.340434 2.205598 -0.725924 0
M  V30 14 C -0.520737 2.515231 0.727527 0
M  V30 15 N 0.205254 1.610926 1.561397 0
M  V30 16 C 1.613054 1.840099 1.475421 0
M  V30 17 C 2.188842 1.785598 2.855408 0
M  V30 18 C 1.017564 1.710216 3.778411 0
M  V30 19 C -0.192192 1.774942 2.920290 0
M  V30 20 C -1.393375 -1.498326 -1.516554 0
M  V30 21 C -2.370315 -1.299142 -2.431567 0
M  V30 22 C -2.944638 -2.565102 -2.887366 0
M  V30 23 S -2.009656 -3.861127 -1.948012 0
M  V30 24 C -1.025017 -2.735354 -1.103899 0
M  V30 25 H 4.031027 -5.183164 3.691283 0
M  V30 26 H 1.482714 -5.511025 1.393862 0
M  V30 27 H -0.299447 -5.081544 -0.292853 0
M  V30 28 H 2.099721 -1.242367 1.718983 0
M  V30 29 H -1.621824 1.086146 -1.824169 0
M  V30 30 H 0.785593 2.153805 -0.891754 0
M  V30 31 H -0.650890 3.040562 -1.378940 0
M  V30 32 H -0.174456 3.571711 0.917098 0
M  V30 33 H -1.620291 2.530729 0.968574 0
M  V30 34 H 1.839311 2.835515 0.985965 0
M  V30 35 H 2.114700 1.088306 0.840745 0
M  V30 36 H 2.830462 2.690890 3.072854 0
M  V30 37 H 2.819584 0.866518 2.943126 0
M  V30 38 H 1.055744 2.559186 4.524705 0
M  V30 39 H 1.087933 0.754229 4.357799 0
M  V30 40 H -0.950869 0.994304 3.174771 0
M  V30 41 H -0.733878 2.742147 3.106047 0
M  V30 42 H -2.777189 -0.399419 -2.859986 0
M  V30 43 H -3.835394 -2.570700 -3.709712 0
M  V30 END ATOM
M  V30 BEGIN BOND
M  V30 1 2 1 2
M  V30 2 1 2 3
M  V30 3 1 2 4
M  V30 4 2 4 5
M  V30 5 1 5 6
M  V30 6 2 6 7
M  V30 7 1 7 8
M  V30 8 2 8 9
M  V30 9 1 8 10
M  V30 10 2 10 11
M  V30 11 1 11 12
M  V30 12 1 12 13
M  V30 13 1 13 14
M  V30 14 1 14 15
M  V30 15 1 15 16
M  V30 16 1 16 17
M  V30 17 1 17 18
M  V30 18 1 18 19
M  V30 19 1 11 20
M  V30 20 1 20 21
M  V30 21 2 21 22
M  V30 22 1 22 23
M  V30 23 1 23 24
M  V30 24 1 9 4
M  V30 25 1 19 15
M  V30 26 2 24 20
M  V30 27 1 24 7
M  V30 28 1 3 25
M  V30 29 1 5 26
M  V30 30 1 6 27
M  V30 31 1 9 28
M  V30 32 1 12 29
M  V30 33 1 13 30
M  V30 34 1 13 31
M  V30 35 1 14 32
M  V30 36 1 14 33
M  V30 37 1 16 34
M  V30 38 1 16 35
M  V30 39 1 17 36
M  V30 40 1 17 37
M  V30 41 1 18 38
M  V30 42 1 18 39
M  V30 43 1 19 40
M  V30 44 1 19 41
M  V30 45 1 21 42
M  V30 46 1 22 43
M  V30 END BOND
M  V30 END CTAB
M  END
>  <Dataset>  (17) 
ChEMBL_Kinases

>  <Ligand_Instance>  (17) 
nan

>  <PDB_ID>  (17) 
nan

>  <Standardized_SMILES>  (17) 
O=C(O)c1ccc2c(c1)nc(NCCN1CCCC1)c1ccsc12

>  <Name>  (17) 
nan

>  <Pocket>  (17) 
nan

>  <ATP_Site>  (17) 
nan

>  <Peripheral>  (17) 
nan

>  <Num_H_Atoms_ProtBoundConf>  (17) 
nan

>  <Num_Resolved_Atoms>  (17) 
nan

>  <Num_Not_Resolved_Atoms>  (17) 
nan

$$$$
CHEMBL3700497
     RDKit          3D

  0  0  0  0  0  0  0  0  0  0999 V3000
M  V30 BEGIN CTAB
M  V30 COUNTS 45 49 0 0 0
M  V30 BEGIN ATOM
M  V30 1 C -3.504489 -4.739119 4.340612 0
M  V30 2 O -2.856323 -5.027082 3.138135 0
M  V30 3 C -2.146040 -4.059046 2.446786 0
M  V30 4 C -2.034884 -2.763422 2.892197 0
M  V30 5 C -1.322089 -1.830916 2.182273 0
M  V30 6 N -1.109415 -0.469254 2.536165 0
M  V30 7 C -0.552976 0.496477 1.618262 0
M  V30 8 N 0.768283 0.386373 1.468243 0
M  V30 9 C 1.557138 1.130421 0.698466 0
M  V30 10 C 2.902956 1.013943 0.546091 0
M  V30 11 C 3.520425 1.898976 -0.311449 0
M  V30 12 C 4.976189 1.806205 -0.512127 0
M  V30 13 N 5.823937 0.928285 0.042237 0
M  V30 14 N 7.072622 1.127557 -0.364665 0
M  V30 15 N 7.014599 2.167995 -1.205676 0
M  V30 16 N 5.765129 2.577682 -1.298558 0
M  V30 17 C 2.859805 2.883601 -1.014404 0
M  V30 18 C 1.484484 3.008817 -0.864362 0
M  V30 19 C 0.866411 2.123237 -0.006898 0
M  V30 20 C -0.491692 2.293050 0.100534 0
M  V30 21 S -1.580531 3.402418 -0.627798 0
M  V30 22 C -3.100440 2.714311 0.228922 0
M  V30 23 C -2.574663 1.588805 1.075027 0
M  V30 24 C -1.238188 1.488763 0.912477 0
M  V30 25 C -0.706778 -2.227633 0.987505 0
M  V30 26 C -0.787742 -3.511452 0.498369 0
M  V30 27 O -0.231675 -4.007979 -0.642731 0
M  V30 28 C 0.554448 -3.338618 -1.582869 0
M  V30 29 C -1.518391 -4.422792 1.247841 0
M  V30 30 H -2.743584 -4.731048 5.172752 0
M  V30 31 H -3.970223 -3.742586 4.273290 0
M  V30 32 H -4.245835 -5.525429 4.617725 0
M  V30 33 H -2.492797 -2.430182 3.811308 0
M  V30 34 H -1.392589 -0.222773 3.512920 0
M  V30 35 H 3.407416 0.249365 1.094830 0
M  V30 36 H 5.398034 3.376094 -1.879677 0
M  V30 37 H 3.378457 3.574953 -1.692283 0
M  V30 38 H 0.944925 3.770104 -1.401003 0
M  V30 39 H -4.294303 2.993031 0.217032 0
M  V30 40 H -3.333337 1.088165 1.634461 0
M  V30 41 H -0.125139 -1.529225 0.376932 0
M  V30 42 H 0.167969 -3.319654 -2.608776 0
M  V30 43 H 0.792057 -2.273858 -1.292814 0
M  V30 44 H 1.561407 -3.832415 -1.580430 0
M  V30 45 H -1.633732 -5.457149 0.935272 0
M  V30 END ATOM
M  V30 BEGIN BOND
M  V30 1 1 1 2
M  V30 2 1 2 3
M  V30 3 2 3 4
M  V30 4 1 4 5
M  V30 5 1 5 6
M  V30 6 1 6 7
M  V30 7 2 7 8
M  V30 8 1 8 9
M  V30 9 2 9 10
M  V30 10 1 10 11
M  V30 11 1 11 12
M  V30 12 2 12 13
M  V30 13 1 13 14
M  V30 14 2 14 15
M  V30 15 1 15 16
M  V30 16 2 11 17
M  V30 17 1 17 18
M  V30 18 2 18 19
M  V30 19 1 19 20
M  V30 20 1 20 21
M  V30 21 1 21 22
M  V30 22 2 22 23
M  V30 23 1 23 24
M  V30 24 2 5 25
M  V30 25 1 25 26
M  V30 26 1 26 27
M  V30 27 1 27 28
M  V30 28 2 26 29
M  V30 29 1 29 3
M  V30 30 1 24 7
M  V30 31 1 19 9
M  V30 32 2 24 20
M  V30 33 1 16 12
M  V30 34 1 1 30
M  V30 35 1 1 31
M  V30 36 1 1 32
M  V30 37 1 4 33
M  V30 38 1 6 34
M  V30 39 1 10 35
M  V30 40 1 16 36
M  V30 41 1 17 37
M  V30 42 1 18 38
M  V30 43 1 22 39
M  V30 44 1 23 40
M  V30 45 1 25 41
M  V30 46 1 28 42
M  V30 47 1 28 43
M  V30 48 1 28 44
M  V30 49 1 29 45
M  V30 END BOND
M  V30 END CTAB
M  END
>  <Dataset>  (18) 
ChEMBL_Kinases

>  <Ligand_Instance>  (18) 
nan

>  <PDB_ID>  (18) 
nan

>  <Standardized_SMILES>  (18) 
COc1cc(Nc2nc3cc(-c4nnn[nH]4)ccc3c3sccc23)cc(OC)c1

>  <Name>  (18) 
nan

>  <Pocket>  (18) 
nan

>  <ATP_Site>  (18) 
nan

>  <Peripheral>  (18) 
nan

>  <Num_H_Atoms_ProtBoundConf>  (18) 
nan

>  <Num_Resolved_Atoms>  (18) 
nan

>  <Num_Not_Resolved_Atoms>  (18) 
nan

$$$$
CHEMBL3700489
     RDKit          3D

  0  0  0  0  0  0  0  0  0  0999 V3000
M  V30 BEGIN CTAB
M  V30 COUNTS 41 44 0 0 0
M  V30 BEGIN ATOM
M  V30 1 C -1.299336 -2.980213 -1.841418 0
M  V30 2 N -0.451606 -3.386489 -0.735688 0
M  V30 3 C -0.270865 -4.811328 -0.821082 0
M  V30 4 C 0.783466 -2.654314 -0.843402 0
M  V30 5 C 1.763754 -2.967802 0.232148 0
M  V30 6 N 1.294877 -2.687743 1.567130 0
M  V30 7 C 0.889755 -1.421674 2.073290 0
M  V30 8 N 0.982226 -0.454439 1.163645 0
M  V30 9 C 0.680774 0.838335 1.318608 0
M  V30 10 C 0.786977 1.817619 0.357099 0
M  V30 11 C 0.418563 3.092189 0.739551 0
M  V30 12 C 0.524009 4.144278 -0.265512 0
M  V30 13 N 0.248345 5.457100 -0.206349 0
M  V30 14 N 0.496552 6.028762 -1.368113 0
M  V30 15 N 0.934330 5.103837 -2.195246 0
M  V30 16 N 0.950048 3.967536 -1.527707 0
M  V30 17 C -0.032108 3.376305 2.013357 0
M  V30 18 C -0.135909 2.386942 2.973490 0
M  V30 19 C 0.231301 1.117398 2.591743 0
M  V30 20 C 0.108497 0.150784 3.598829 0
M  V30 21 S -0.416402 0.246718 5.231033 0
M  V30 22 C -0.152098 -1.599371 5.545672 0
M  V30 23 C 0.337165 -2.107201 4.288786 0
M  V30 24 C 0.440588 -1.151611 3.351138 0
M  V30 25 H -2.376044 -3.067218 -1.565973 0
M  V30 26 H -1.050744 -1.961077 -2.220253 0
M  V30 27 H -1.128357 -3.693040 -2.674696 0
M  V30 28 H 0.676898 -5.111887 -1.302615 0
M  V30 29 H -0.197969 -5.174432 0.244939 0
M  V30 30 H -1.152233 -5.342564 -1.252533 0
M  V30 31 H 0.550712 -1.588252 -0.921174 0
M  V30 32 H 1.240932 -2.963057 -1.805434 0
M  V30 33 H 2.108409 -4.016139 0.147510 0
M  V30 34 H 2.687760 -2.366081 -0.013668 0
M  V30 35 H 1.243051 -3.502087 2.248378 0
M  V30 36 H 1.147729 1.518281 -0.617121 0
M  V30 37 H 1.265044 3.082428 -1.984045 0
M  V30 38 H -0.298406 4.399347 2.225502 0
M  V30 39 H -0.489287 2.610249 3.971995 0
M  V30 40 H -0.328290 -2.264359 6.534314 0
M  V30 41 H 0.540726 -3.161780 4.298954 0
M  V30 END ATOM
M  V30 BEGIN BOND
M  V30 1 1 1 2
M  V30 2 1 2 3
M  V30 3 1 2 4
M  V30 4 1 4 5
M  V30 5 1 5 6
M  V30 6 1 6 7
M  V30 7 2 7 8
M  V30 8 1 8 9
M  V30 9 2 9 10
M  V30 10 1 10 11
M  V30 11 1 11 12
M  V30 12 2 12 13
M  V30 13 1 13 14
M  V30 14 2 14 15
M  V30 15 1 15 16
M  V30 16 2 11 17
M  V30 17 1 17 18
M  V30 18 2 18 19
M  V30 19 1 19 20
M  V30 20 1 20 21
M  V30 21 1 21 22
M  V30 22 2 22 23
M  V30 23 1 23 24
M  V30 24 1 24 7
M  V30 25 1 19 9
M  V30 26 2 24 20
M  V30 27 1 16 12
M  V30 28 1 1 25
M  V30 29 1 1 26
M  V30 30 1 1 27
M  V30 31 1 3 28
M  V30 32 1 3 29
M  V30 33 1 3 30
M  V30 34 1 4 31
M  V30 35 1 4 32
M  V30 36 1 5 33
M  V30 37 1 5 34
M  V30 38 1 6 35
M  V30 39 1 10 36
M  V30 40 1 16 37
M  V30 41 1 17 38
M  V30 42 1 18 39
M  V30 43 1 22 40
M  V30 44 1 23 41
M  V30 END BOND
M  V30 END CTAB
M  END
>  <Dataset>  (19) 
ChEMBL_Kinases

>  <Ligand_Instance>  (19) 
nan

>  <PDB_ID>  (19) 
nan

>  <Standardized_SMILES>  (19) 
CN(C)CCNc1nc2cc(-c3nnn[nH]3)ccc2c2sccc12

>  <Name>  (19) 
nan

>  <Pocket>  (19) 
nan

>  <ATP_Site>  (19) 
nan

>  <Peripheral>  (19) 
nan

>  <Num_H_Atoms_ProtBoundConf>  (19) 
nan

>  <Num_Resolved_Atoms>  (19) 
nan

>  <Num_Not_Resolved_Atoms>  (19) 
nan

$$$$
CHEMBL3700490
     RDKit          3D

  0  0  0  0  0  0  0  0  0  0999 V3000
M  V30 BEGIN CTAB
M  V30 COUNTS 37 41 0 0 0
M  V30 BEGIN ATOM
M  V30 1 F 1.525900 -7.312335 3.181139 0
M  V30 2 C 1.522741 -6.059193 2.674302 0
M  V30 3 C 2.514165 -5.175817 3.038685 0
M  V30 4 C 2.552462 -3.901314 2.553560 0
M  V30 5 C 1.587877 -3.439151 1.667371 0
M  V30 6 N 1.428230 -2.190946 1.020854 0
M  V30 7 C 0.524646 -1.106003 0.962771 0
M  V30 8 N 0.840367 -0.228435 0.010838 0
M  V30 9 C 0.231261 0.894498 -0.317052 0
M  V30 10 C 0.613709 1.765197 -1.316262 0
M  V30 11 C -0.153092 2.896738 -1.505961 0
M  V30 12 C 0.225072 3.846826 -2.560924 0
M  V30 13 N -0.418058 4.989583 -2.857556 0
M  V30 14 N 0.183864 5.607729 -3.853800 0
M  V30 15 N 1.230962 4.848989 -4.202675 0
M  V30 16 N 1.246546 3.779084 -3.408826 0
M  V30 17 C -1.261272 3.149845 -0.726567 0
M  V30 18 C -1.643532 2.273234 0.276368 0
M  V30 19 C -0.875388 1.142393 0.465045 0
M  V30 20 C -1.250443 0.263573 1.470742 0
M  V30 21 S -2.610860 0.393246 2.581424 0
M  V30 22 C -2.159988 -1.232920 3.444525 0
M  V30 23 C -0.981111 -1.686114 2.746847 0
M  V30 24 C -0.573166 -0.878583 1.754390 0
M  V30 25 C 0.582353 -4.335157 1.297700 0
M  V30 26 C 0.539671 -5.641357 1.792278 0
M  V30 27 H 3.307422 -5.447824 3.722604 0
M  V30 28 H 3.280804 -3.113894 2.765721 0
M  V30 29 H 2.298027 -2.262907 0.489489 0
M  V30 30 H 1.489985 1.515944 -1.896220 0
M  V30 31 H 1.955890 2.989147 -3.436169 0
M  V30 32 H -1.834081 4.041653 -0.901158 0
M  V30 33 H -2.513612 2.496118 0.866907 0
M  V30 34 H -2.715624 -1.730200 4.326504 0
M  V30 35 H -0.635411 -2.610090 3.165595 0
M  V30 36 H -0.250554 -4.140492 0.612355 0
M  V30 37 H -0.208112 -6.357490 1.538130 0
M  V30 END ATOM
M  V30 BEGIN BOND
M  V30 1 1 1 2
M  V30 2 2 2 3
M  V30 3 1 3 4
M  V30 4 2 4 5
M  V30 5 1 5 6
M  V30 6 1 6 7
M  V30 7 2 7 8
M  V30 8 1 8 9
M  V30 9 2 9 10
M  V30 10 1 10 11
M  V30 11 1 11 12
M  V30 12 2 12 13
M  V30 13 1 13 14
M  V30 14 2 14 15
M  V30 15 1 15 16
M  V30 16 2 11 17
M  V30 17 1 17 18
M  V30 18 2 18 19
M  V30 19 1 19 20
M  V30 20 1 20 21
M  V30 21 1 21 22
M  V30 22 2 22 23
M  V30 23 1 23 24
M  V30 24 1 5 25
M  V30 25 2 25 26
M  V30 26 1 26 2
M  V30 27 1 24 7
M  V30 28 1 19 9
M  V30 29 2 24 20
M  V30 30 1 16 12
M  V30 31 1 3 27
M  V30 32 1 4 28
M  V30 33 1 6 29
M  V30 34 1 10 30
M  V30 35 1 16 31
M  V30 36 1 17 32
M  V30 37 1 18 33
M  V30 38 1 22 34
M  V30 39 1 23 35
M  V30 40 1 25 36
M  V30 41 1 26 37
M  V30 END BOND
M  V30 END CTAB
M  END
>  <Dataset>  (20) 
ChEMBL_Kinases

>  <Ligand_Instance>  (20) 
nan

>  <PDB_ID>  (20) 
nan

>  <Standardized_SMILES>  (20) 
Fc1ccc(Nc2nc3cc(-c4nnn[nH]4)ccc3c3sccc23)cc1

>  <Name>  (20) 
nan

>  <Pocket>  (20) 
nan

>  <ATP_Site>  (20) 
nan

>  <Peripheral>  (20) 
nan

>  <Num_H_Atoms_ProtBoundConf>  (20) 
nan

>  <Num_Resolved_Atoms>  (20) 
nan

>  <Num_Not_Resolved_Atoms>  (20) 
nan

$$$$
CHEMBL3700491
     RDKit          3D

  0  0  0  0  0  0  0  0  0  0999 V3000
M  V30 BEGIN CTAB
M  V30 COUNTS 37 41 0 0 0
M  V30 BEGIN ATOM
M  V30 1 F 1.598331 -7.345680 2.973723 0
M  V30 2 C 1.555801 -6.105357 2.430108 0
M  V30 3 C 2.740574 -5.435354 2.223305 0
M  V30 4 C 2.823719 -4.174797 1.679792 0
M  V30 5 C 1.639341 -3.523322 1.311732 0
M  V30 6 N 1.377249 -2.266689 0.717202 0
M  V30 7 C 0.639169 -1.072839 0.925127 0
M  V30 8 N 0.652412 -0.316499 -0.165041 0
M  V30 9 C 0.082961 0.865778 -0.365514 0
M  V30 10 C 0.110960 1.631325 -1.507342 0
M  V30 11 C -0.563300 2.833208 -1.468385 0
M  V30 12 C -0.531037 3.647874 -2.678829 0
M  V30 13 N -1.106457 4.840272 -2.879665 0
M  V30 14 N -0.867353 5.293467 -4.107437 0
M  V30 15 N -0.122371 4.358107 -4.688194 0
M  V30 16 N 0.081671 3.369139 -3.834558 0
M  V30 17 C -1.244202 3.279388 -0.355665 0
M  V30 18 C -1.271809 2.508959 0.792196 0
M  V30 19 C -0.590263 1.294461 0.752347 0
M  V30 20 C -0.651152 0.560358 1.936195 0
M  V30 21 S -1.405857 0.884937 3.449817 0
M  V30 22 C -0.826685 -0.707944 4.227958 0
M  V30 23 C -0.066671 -1.366409 3.178826 0
M  V30 24 C -0.031466 -0.649476 2.048038 0
M  V30 25 C 0.433613 -4.207252 1.523373 0
M  V30 26 C 0.380391 -5.480954 2.073755 0
M  V30 27 Cl -1.102312 -6.365611 2.352804 0
M  V30 28 H 3.725395 -5.829986 2.466529 0
M  V30 29 H 3.657888 -3.546174 1.464725 0
M  V30 30 H 1.994134 -2.451851 -0.106510 0
M  V30 31 H 0.660252 1.220695 -2.334793 0
M  V30 32 H 0.638185 2.515871 -4.055279 0
M  V30 33 H -1.747845 4.229258 -0.399990 0
M  V30 34 H -1.803540 2.852043 1.670914 0
M  V30 35 H -1.006094 -1.152748 5.360574 0
M  V30 36 H 0.318452 -2.297450 3.537237 0
M  V30 37 H -0.574438 -3.845171 1.293891 0
M  V30 END ATOM
M  V30 BEGIN BOND
M  V30 1 1 1 2
M  V30 2 2 2 3
M  V30 3 1 3 4
M  V30 4 2 4 5
M  V30 5 1 5 6
M  V30 6 1 6 7
M  V30 7 2 7 8
M  V30 8 1 8 9
M  V30 9 2 9 10
M  V30 10 1 10 11
M  V30 11 1 11 12
M  V30 12 2 12 13
M  V30 13 1 13 14
M  V30 14 2 14 15
M  V30 15 1 15 16
M  V30 16 2 11 17
M  V30 17 1 17 18
M  V30 18 2 18 19
M  V30 19 1 19 20
M  V30 20 1 20 21
M  V30 21 1 21 22
M  V30 22 2 22 23
M  V30 23 1 23 24
M  V30 24 1 5 25
M  V30 25 2 25 26
M  V30 26 1 26 27
M  V30 27 1 26 2
M  V30 28 1 24 7
M  V30 29 1 19 9
M  V30 30 2 24 20
M  V30 31 1 16 12
M  V30 32 1 3 28
M  V30 33 1 4 29
M  V30 34 1 6 30
M  V30 35 1 10 31
M  V30 36 1 16 32
M  V30 37 1 17 33
M  V30 38 1 18 34
M  V30 39 1 22 35
M  V30 40 1 23 36
M  V30 41 1 25 37
M  V30 END BOND
M  V30 END CTAB
M  END
>  <Dataset>  (21) 
ChEMBL_Kinases

>  <Ligand_Instance>  (21) 
nan

>  <PDB_ID>  (21) 
nan

>  <Standardized_SMILES>  (21) 
Fc1ccc(Nc2nc3cc(-c4nnn[nH]4)ccc3c3sccc23)cc1Cl

>  <Name>  (21) 
nan

>  <Pocket>  (21) 
nan

>  <ATP_Site>  (21) 
nan

>  <Peripheral>  (21) 
nan

>  <Num_H_Atoms_ProtBoundConf>  (21) 
nan

>  <Num_Resolved_Atoms>  (21) 
nan

>  <Num_Not_Resolved_Atoms>  (21) 
nan

$$$$
CHEMBL3700492
     RDKit          3D

  0  0  0  0  0  0  0  0  0  0999 V3000
M  V30 BEGIN CTAB
M  V30 COUNTS 41 45 0 0 0
M  V30 BEGIN ATOM
M  V30 1 C 0.048883 -3.929446 2.837610 0
M  V30 2 O 1.254141 -4.533794 2.491534 0
M  V30 3 C 2.057654 -3.977130 1.512512 0
M  V30 4 C 3.236706 -4.598780 1.198363 0
M  V30 5 C 4.110727 -4.128903 0.239317 0
M  V30 6 C 3.817530 -2.977740 -0.460590 0
M  V30 7 C 2.622914 -2.326787 -0.159955 0
M  V30 8 N 2.258897 -1.129127 -0.865271 0
M  V30 9 C 1.005128 -0.487719 -0.586788 0
M  V30 10 N 1.007495 0.541830 0.258343 0
M  V30 11 C -0.019699 1.274225 0.658663 0
M  V30 12 C -0.039223 2.329886 1.514488 0
M  V30 13 C -1.183818 3.018917 1.850675 0
M  V30 14 C -1.174870 4.144926 2.773980 0
M  V30 15 N -2.229042 4.886030 3.130931 0
M  V30 16 N -1.815680 5.827787 3.993775 0
M  V30 17 N -0.525392 5.678638 4.174960 0
M  V30 18 N -0.119502 4.656927 3.438325 0
M  V30 19 C -2.356688 2.586830 1.268971 0
M  V30 20 C -2.393398 1.516548 0.390008 0
M  V30 21 C -1.216048 0.878356 0.100882 0
M  V30 22 C -1.302716 -0.162314 -0.768939 0
M  V30 23 S -2.666351 -0.879116 -1.619369 0
M  V30 24 C -1.635905 -2.203535 -2.503076 0
M  V30 25 C -0.315024 -1.942880 -2.034153 0
M  V30 26 C -0.174265 -0.905759 -1.158925 0
M  V30 27 C 1.778037 -2.829155 0.805373 0
M  V30 28 H 0.242922 -3.148126 3.623071 0
M  V30 29 H -0.484111 -3.468961 1.982481 0
M  V30 30 H -0.677840 -4.639574 3.300683 0
M  V30 31 H 3.501854 -5.509128 1.728045 0
M  V30 32 H 5.010413 -4.660430 0.044008 0
M  V30 33 H 4.503091 -2.606715 -1.213105 0
M  V30 34 H 2.923363 -0.745701 -1.573566 0
M  V30 35 H 0.924253 2.612622 1.933276 0
M  V30 36 H 0.889379 4.314395 3.405226 0
M  V30 37 H -3.294645 3.087638 1.492878 0
M  V30 38 H -3.356188 1.227157 -0.035656 0
M  V30 39 H -1.962176 -2.988046 -3.205537 0
M  V30 40 H 0.440703 -2.599174 -2.423700 0
M  V30 41 H 0.861330 -2.300723 1.015334 0
M  V30 END ATOM
M  V30 BEGIN BOND
M  V30 1 1 1 2
M  V30 2 1 2 3
M  V30 3 2 3 4
M  V30 4 1 4 5
M  V30 5 2 5 6
M  V30 6 1 6 7
M  V30 7 1 7 8
M  V30 8 1 8 9
M  V30 9 2 9 10
M  V30 10 1 10 11
M  V30 11 2 11 12
M  V30 12 1 12 13
M  V30 13 1 13 14
M  V30 14 2 14 15
M  V30 15 1 15 16
M  V30 16 2 16 17
M  V30 17 1 17 18
M  V30 18 2 13 19
M  V30 19 1 19 20
M  V30 20 2 20 21
M  V30 21 1 21 22
M  V30 22 1 22 23
M  V30 23 1 23 24
M  V30 24 2 24 25
M  V30 25 1 25 26
M  V30 26 2 7 27
M  V30 27 1 27 3
M  V30 28 1 26 9
M  V30 29 1 21 11
M  V30 30 2 26 22
M  V30 31 1 18 14
M  V30 32 1 1 28
M  V30 33 1 1 29
M  V30 34 1 1 30
M  V30 35 1 4 31
M  V30 36 1 5 32
M  V30 37 1 6 33
M  V30 38 1 8 34
M  V30 39 1 12 35
M  V30 40 1 18 36
M  V30 41 1 19 37
M  V30 42 1 20 38
M  V30 43 1 24 39
M  V30 44 1 25 40
M  V30 45 1 27 41
M  V30 END BOND
M  V30 END CTAB
M  END
>  <Dataset>  (22) 
ChEMBL_Kinases

>  <Ligand_Instance>  (22) 
nan

>  <PDB_ID>  (22) 
nan

>  <Standardized_SMILES>  (22) 
COc1cccc(Nc2nc3cc(-c4nnn[nH]4)ccc3c3sccc23)c1

>  <Name>  (22) 
nan

>  <Pocket>  (22) 
nan

>  <ATP_Site>  (22) 
nan

>  <Peripheral>  (22) 
nan

>  <Num_H_Atoms_ProtBoundConf>  (22) 
nan

>  <Num_Resolved_Atoms>  (22) 
nan

>  <Num_Not_Resolved_Atoms>  (22) 
nan

$$$$
CHEMBL3700493
     RDKit          3D

  0  0  0  0  0  0  0  0  0  0999 V3000
M  V30 BEGIN CTAB
M  V30 COUNTS 37 41 0 0 0
M  V30 BEGIN ATOM
M  V30 1 Cl 1.422276 -7.676412 3.256679 0
M  V30 2 C 1.456292 -6.035623 2.681320 0
M  V30 3 C 2.439659 -5.172602 3.105442 0
M  V30 4 C 2.523753 -3.864137 2.690052 0
M  V30 5 C 1.593455 -3.363991 1.807320 0
M  V30 6 N 1.437717 -2.097766 1.191922 0
M  V30 7 C 0.498338 -1.053407 1.033065 0
M  V30 8 N 0.883760 -0.168689 0.115432 0
M  V30 9 C 0.265014 0.929627 -0.287179 0
M  V30 10 C 0.708167 1.816682 -1.244650 0
M  V30 11 C -0.095818 2.907019 -1.516819 0
M  V30 12 C 0.378344 3.841448 -2.529224 0
M  V30 13 N -0.156532 4.976068 -3.009972 0
M  V30 14 N 0.585353 5.540137 -3.927684 0
M  V30 15 N 1.659340 4.757986 -4.071080 0
M  V30 16 N 1.521081 3.737048 -3.221491 0
M  V30 17 C -1.298884 3.123536 -0.871262 0
M  V30 18 C -1.723349 2.219413 0.085876 0
M  V30 19 C -0.929383 1.123341 0.369761 0
M  V30 20 C -1.392403 0.240108 1.339295 0
M  V30 21 S -2.852973 0.307547 2.287544 0
M  V30 22 C -2.429696 -1.293565 3.207284 0
M  V30 23 C -1.150221 -1.702873 2.640625 0
M  V30 24 C -0.689687 -0.867552 1.693672 0
M  V30 25 C 0.589222 -4.243598 1.373378 0
M  V30 26 C 0.510188 -5.559857 1.795300 0
M  V30 27 H 3.210884 -5.479331 3.798068 0
M  V30 28 H 3.246213 -3.103638 2.953361 0
M  V30 29 H 2.395112 -2.085869 0.773238 0
M  V30 30 H 1.653323 1.602058 -1.720307 0
M  V30 31 H 2.273385 3.005693 -3.186564 0
M  V30 32 H -1.924560 3.985022 -1.091792 0
M  V30 33 H -2.678379 2.404810 0.587863 0
M  V30 34 H -3.054436 -1.830015 4.040036 0
M  V30 35 H -0.831368 -2.604948 3.116959 0
M  V30 36 H -0.215850 -4.007639 0.682023 0
M  V30 37 H -0.229687 -6.262455 1.495482 0
M  V30 END ATOM
M  V30 BEGIN BOND
M  V30 1 1 1 2
M  V30 2 2 2 3
M  V30 3 1 3 4
M  V30 4 2 4 5
M  V30 5 1 5 6
M  V30 6 1 6 7
M  V30 7 2 7 8
M  V30 8 1 8 9
M  V30 9 2 9 10
M  V30 10 1 10 11
M  V30 11 1 11 12
M  V30 12 2 12 13
M  V30 13 1 13 14
M  V30 14 2 14 15
M  V30 15 1 15 16
M  V30 16 2 11 17
M  V30 17 1 17 18
M  V30 18 2 18 19
M  V30 19 1 19 20
M  V30 20 1 20 21
M  V30 21 1 21 22
M  V30 22 2 22 23
M  V30 23 1 23 24
M  V30 24 1 5 25
M  V30 25 2 25 26
M  V30 26 1 26 2
M  V30 27 1 24 7
M  V30 28 1 19 9
M  V30 29 2 24 20
M  V30 30 1 16 12
M  V30 31 1 3 27
M  V30 32 1 4 28
M  V30 33 1 6 29
M  V30 34 1 10 30
M  V30 35 1 16 31
M  V30 36 1 17 32
M  V30 37 1 18 33
M  V30 38 1 22 34
M  V30 39 1 23 35
M  V30 40 1 25 36
M  V30 41 1 26 37
M  V30 END BOND
M  V30 END CTAB
M  END
>  <Dataset>  (23) 
ChEMBL_Kinases

>  <Ligand_Instance>  (23) 
nan

>  <PDB_ID>  (23) 
nan

>  <Standardized_SMILES>  (23) 
Clc1ccc(Nc2nc3cc(-c4nnn[nH]4)ccc3c3sccc23)cc1

>  <Name>  (23) 
nan

>  <Pocket>  (23) 
nan

>  <ATP_Site>  (23) 
nan

>  <Peripheral>  (23) 
nan

>  <Num_H_Atoms_ProtBoundConf>  (23) 
nan

>  <Num_Resolved_Atoms>  (23) 
nan

>  <Num_Not_Resolved_Atoms>  (23) 
nan

$$$$
CHEMBL3700494
     RDKit          3D

  0  0  0  0  0  0  0  0  0  0999 V3000
M  V30 BEGIN CTAB
M  V30 COUNTS 41 45 0 0 0
M  V30 BEGIN ATOM
M  V30 1 C -1.058024 -7.654933 0.477021 0
M  V30 2 O 0.223163 -7.142424 0.780720 0
M  V30 3 C 0.474082 -5.781815 0.675900 0
M  V30 4 C -0.514432 -4.908622 0.275197 0
M  V30 5 C -0.164218 -3.576864 0.202498 0
M  V30 6 C 1.097999 -3.043639 0.498165 0
M  V30 7 N 1.243889 -1.645923 0.377824 0
M  V30 8 C 0.697255 -0.444419 0.880035 0
M  V30 9 N 1.130907 0.637863 0.240623 0
M  V30 10 C 0.827694 1.905956 0.453735 0
M  V30 11 C 1.324050 2.976202 -0.257839 0
M  V30 12 C 0.914576 4.247645 0.082569 0
M  V30 13 C 1.426088 5.399369 -0.655597 0
M  V30 14 N 2.293037 5.354309 -1.675204 0
M  V30 15 N 2.548700 6.572562 -2.117476 0
M  V30 16 N 1.841677 7.407728 -1.378013 0
M  V30 17 N 1.146663 6.702863 -0.475392 0
M  V30 18 C 0.016206 4.426789 1.128558 0
M  V30 19 C -0.489740 3.339603 1.853337 0
M  V30 20 C -0.062440 2.079849 1.490515 0
M  V30 21 C -0.551921 0.992425 2.198225 0
M  V30 22 S -1.657992 0.928132 3.538419 0
M  V30 23 C -1.607833 -0.910222 3.702300 0
M  V30 24 C -0.722884 -1.278207 2.681147 0
M  V30 25 C -0.189020 -0.295542 1.916584 0
M  V30 26 C 2.049073 -3.959517 0.893206 0
M  V30 27 C 1.732241 -5.310387 0.978633 0
M  V30 28 Cl 3.051864 -6.348149 1.496875 0
M  V30 29 H -1.185716 -8.680686 0.903310 0
M  V30 30 H -1.867658 -7.052319 0.915848 0
M  V30 31 H -1.233370 -7.668463 -0.619509 0
M  V30 32 H -1.513094 -5.235820 0.028607 0
M  V30 33 H -0.956029 -2.907028 -0.114519 0
M  V30 34 H 2.027454 -1.664714 -0.333930 0
M  V30 35 H 2.020530 2.783348 -1.062505 0
M  V30 36 H 0.496112 7.062072 0.251631 0
M  V30 37 H -0.318697 5.413387 1.413717 0
M  V30 38 H -1.186192 3.520073 2.659468 0
M  V30 39 H -2.179108 -1.446664 4.455781 0
M  V30 40 H -0.596254 -2.345918 2.673754 0
M  V30 41 H 3.024200 -3.543949 1.120862 0
M  V30 END ATOM
M  V30 BEGIN BOND
M  V30 1 1 1 2
M  V30 2 1 2 3
M  V30 3 2 3 4
M  V30 4 1 4 5
M  V30 5 2 5 6
M  V30 6 1 6 7
M  V30 7 1 7 8
M  V30 8 2 8 9
M  V30 9 1 9 10
M  V30 10 2 10 11
M  V30 11 1 11 12
M  V30 12 1 12 13
M  V30 13 2 13 14
M  V30 14 1 14 15
M  V30 15 2 15 16
M  V30 16 1 16 17
M  V30 17 2 12 18
M  V30 18 1 18 19
M  V30 19 2 19 20
M  V30 20 1 20 21
M  V30 21 1 21 22
M  V30 22 1 22 23
M  V30 23 2 23 24
M  V30 24 1 24 25
M  V30 25 1 6 26
M  V30 26 2 26 27
M  V30 27 1 27 28
M  V30 28 1 27 3
M  V30 29 1 25 8
M  V30 30 1 20 10
M  V30 31 2 25 21
M  V30 32 1 17 13
M  V30 33 1 1 29
M  V30 34 1 1 30
M  V30 35 1 1 31
M  V30 36 1 4 32
M  V30 37 1 5 33
M  V30 38 1 7 34
M  V30 39 1 11 35
M  V30 40 1 17 36
M  V30 41 1 18 37
M  V30 42 1 19 38
M  V30 43 1 23 39
M  V30 44 1 24 40
M  V30 45 1 26 41
M  V30 END BOND
M  V30 END CTAB
M  END
>  <Dataset>  (24) 
ChEMBL_Kinases

>  <Ligand_Instance>  (24) 
nan

>  <PDB_ID>  (24) 
nan

>  <Standardized_SMILES>  (24) 
COc1ccc(Nc2nc3cc(-c4nnn[nH]4)ccc3c3sccc23)cc1Cl

>  <Name>  (24) 
nan

>  <Pocket>  (24) 
nan

>  <ATP_Site>  (24) 
nan

>  <Peripheral>  (24) 
nan

>  <Num_H_Atoms_ProtBoundConf>  (24) 
nan

>  <Num_Resolved_Atoms>  (24) 
nan

>  <Num_Not_Resolved_Atoms>  (24) 
nan

$$$$
CHEMBL3700495
     RDKit          3D

  0  0  0  0  0  0  0  0  0  0999 V3000
M  V30 BEGIN CTAB
M  V30 COUNTS 45 49 0 0 0
M  V30 BEGIN ATOM
M  V30 1 C 0.103837 -3.813076 3.132756 0
M  V30 2 O 1.420404 -3.995134 2.693195 0
M  V30 3 C 1.995660 -3.243433 1.688231 0
M  V30 4 C 3.315712 -3.640474 1.457332 0
M  V30 5 C 4.080864 -3.006465 0.478374 0
M  V30 6 C 3.551733 -1.982530 -0.274804 0
M  V30 7 O 4.250177 -1.296921 -1.272911 0
M  V30 8 C 5.587988 -1.708604 -1.497884 0
M  V30 9 C 2.250573 -1.606270 -0.032430 0
M  V30 10 N 1.646091 -0.557449 -0.774762 0
M  V30 11 C 0.300174 -0.185225 -0.507900 0
M  V30 12 N 0.133436 0.761303 0.414012 0
M  V30 13 C -1.027857 1.275048 0.834383 0
M  V30 14 C -1.156643 2.256958 1.794020 0
M  V30 15 C -2.449573 2.656845 2.092146 0
M  V30 16 C -2.616407 3.694726 3.104137 0
M  V30 17 N -3.749165 4.251334 3.568822 0
M  V30 18 N -3.460582 5.157034 4.484385 0
M  V30 19 N -2.148456 5.209117 4.633932 0
M  V30 20 N -1.646569 4.320724 3.794576 0
M  V30 21 C -3.571198 2.128119 1.486442 0
M  V30 22 C -3.401103 1.139375 0.523153 0
M  V30 23 C -2.138144 0.739349 0.222620 0
M  V30 24 C -2.045633 -0.234531 -0.731808 0
M  V30 25 S -3.248655 -1.106679 -1.682506 0
M  V30 26 C -1.978172 -2.157449 -2.624822 0
M  V30 27 C -0.728967 -1.716142 -2.095950 0
M  V30 28 C -0.782395 -0.744719 -1.141070 0
M  V30 29 C 1.474365 -2.217889 0.929816 0
M  V30 30 H 0.156103 -3.281740 4.123691 0
M  V30 31 H -0.546134 -3.273291 2.419985 0
M  V30 32 H -0.401345 -4.813466 3.265750 0
M  V30 33 H 3.848919 -4.437067 1.986266 0
M  V30 34 H 5.104366 -3.279229 0.265048 0
M  V30 35 H 5.551241 -2.764174 -1.830935 0
M  V30 36 H 6.096641 -1.036254 -2.224776 0
M  V30 37 H 6.157621 -1.696284 -0.525145 0
M  V30 38 H 2.196089 -0.070078 -1.509170 0
M  V30 39 H -0.266085 2.650225 2.248791 0
M  V30 40 H -0.617367 4.155940 3.708895 0
M  V30 41 H -4.558202 2.476862 1.756968 0
M  V30 42 H -4.287273 0.731182 0.053948 0
M  V30 43 H -2.152198 -2.921923 -3.392401 0
M  V30 44 H 0.135473 -2.200851 -2.509835 0
M  V30 45 H 0.449491 -1.989800 1.187576 0
M  V30 END ATOM
M  V30 BEGIN BOND
M  V30 1 1 1 2
M  V30 2 1 2 3
M  V30 3 2 3 4
M  V30 4 1 4 5
M  V30 5 2 5 6
M  V30 6 1 6 7
M  V30 7 1 7 8
M  V30 8 1 6 9
M  V30 9 1 9 10
M  V30 10 1 10 11
M  V30 11 2 11 12
M  V30 12 1 12 13
M  V30 13 2 13 14
M  V30 14 1 14 15
M  V30 15 1 15 16
M  V30 16 2 16 17
M  V30 17 1 17 18
M  V30 18 2 18 19
M  V30 19 1 19 20
M  V30 20 2 15 21
M  V30 21 1 21 22
M  V30 22 2 22 23
M  V30 23 1 23 24
M  V30 24 1 24 25
M  V30 25 1 25 26
M  V30 26 2 26 27
M  V30 27 1 27 28
M  V30 28 2 9 29
M  V30 29 1 29 3
M  V30 30 1 28 11
M  V30 31 1 23 13
M  V30 32 2 28 24
M  V30 33 1 20 16
M  V30 34 1 1 30
M  V30 35 1 1 31
M  V30 36 1 1 32
M  V30 37 1 4 33
M  V30 38 1 5 34
M  V30 39 1 8 35
M  V30 40 1 8 36
M  V30 41 1 8 37
M  V30 42 1 10 38
M  V30 43 1 14 39
M  V30 44 1 20 40
M  V30 45 1 21 41
M  V30 46 1 22 42
M  V30 47 1 26 43
M  V30 48 1 27 44
M  V30 49 1 29 45
M  V30 END BOND
M  V30 END CTAB
M  END
>  <Dataset>  (25) 
ChEMBL_Kinases

>  <Ligand_Instance>  (25) 
nan

>  <PDB_ID>  (25) 
nan

>  <Standardized_SMILES>  (25) 
COc1ccc(OC)c(Nc2nc3cc(-c4nnn[nH]4)ccc3c3sccc23)c1

>  <Name>  (25) 
nan

>  <Pocket>  (25) 
nan

>  <ATP_Site>  (25) 
nan

>  <Peripheral>  (25) 
nan

>  <Num_H_Atoms_ProtBoundConf>  (25) 
nan

>  <Num_Resolved_Atoms>  (25) 
nan

>  <Num_Not_Resolved_Atoms>  (25) 
nan

$$$$
CHEMBL3700496
     RDKit          3D

  0  0  0  0  0  0  0  0  0  0999 V3000
M  V30 BEGIN CTAB
M  V30 COUNTS 47 51 0 0 0
M  V30 BEGIN ATOM
M  V30 1 C 3.901132 -2.846672 3.579232 0
M  V30 2 C 3.494088 -3.457900 2.231017 0
M  V30 3 C 2.819412 -4.787021 2.522343 0
M  V30 4 O 2.645776 -2.542575 1.628873 0
M  V30 5 C 2.828209 -1.851178 0.459724 0
M  V30 6 C 3.974060 -2.020543 -0.286373 0
M  V30 7 C 4.136552 -1.316292 -1.456892 0
M  V30 8 C 3.156701 -0.453631 -1.868336 0
M  V30 9 C 1.971586 -0.243185 -1.148304 0
M  V30 10 N 1.006974 0.668028 -1.643256 0
M  V30 11 C -0.256582 1.037351 -1.104398 0
M  V30 12 N -0.692246 0.501068 0.031627 0
M  V30 13 C -1.822099 0.710440 0.687253 0
M  V30 14 C -2.139732 0.085360 1.850300 0
M  V30 15 C -3.359771 0.416724 2.407427 0
M  V30 16 C -3.763403 -0.218811 3.657586 0
M  V30 17 N -3.092800 -1.127294 4.389143 0
M  V30 18 N -3.798099 -1.457682 5.457927 0
M  V30 19 N -4.932754 -0.782098 5.451744 0
M  V30 20 N -4.901570 -0.036288 4.359234 0
M  V30 21 C -4.228463 1.330030 1.834741 0
M  V30 22 C -3.864838 1.946300 0.645351 0
M  V30 23 C -2.647404 1.627141 0.072915 0
M  V30 24 C -2.260588 2.216483 -1.097773 0
M  V30 25 S -3.149019 3.392545 -2.030352 0
M  V30 26 C -1.811803 3.533926 -3.363691 0
M  V30 27 C -0.816418 2.623567 -2.901986 0
M  V30 28 C -1.063093 1.953869 -1.734442 0
M  V30 29 C 1.885127 -0.973784 -0.005147 0
M  V30 30 H 4.731447 -2.100102 3.409961 0
M  V30 31 H 3.048884 -2.268293 3.993954 0
M  V30 32 H 4.195035 -3.603844 4.312185 0
M  V30 33 H 4.437730 -3.671965 1.720711 0
M  V30 34 H 3.249567 -5.169170 3.468512 0
M  V30 35 H 3.068334 -5.532994 1.740038 0
M  V30 36 H 1.727803 -4.684251 2.679515 0
M  V30 37 H 4.772591 -2.678931 -0.016234 0
M  V30 38 H 5.029322 -1.437592 -2.053898 0
M  V30 39 H 3.336883 0.077710 -2.801407 0
M  V30 40 H 1.275730 1.145020 -2.557969 0
M  V30 41 H -1.453292 -0.630975 2.295257 0
M  V30 42 H -5.658633 0.634192 4.041182 0
M  V30 43 H -5.174848 1.572190 2.288262 0
M  V30 44 H -4.545724 2.673496 0.180460 0
M  V30 45 H -1.760639 4.150890 -4.290647 0
M  V30 46 H 0.061911 2.539265 -3.524047 0
M  V30 47 H 1.029050 -0.886794 0.610274 0
M  V30 END ATOM
M  V30 BEGIN BOND
M  V30 1 1 1 2
M  V30 2 1 2 3
M  V30 3 1 2 4
M  V30 4 1 4 5
M  V30 5 2 5 6
M  V30 6 1 6 7
M  V30 7 2 7 8
M  V30 8 1 8 9
M  V30 9 1 9 10
M  V30 10 1 10 11
M  V30 11 2 11 12
M  V30 12 1 12 13
M  V30 13 2 13 14
M  V30 14 1 14 15
M  V30 15 1 15 16
M  V30 16 2 16 17
M  V30 17 1 17 18
M  V30 18 2 18 19
M  V30 19 1 19 20
M  V30 20 2 15 21
M  V30 21 1 21 22
M  V30 22 2 22 23
M  V30 23 1 23 24
M  V30 24 1 24 25
M  V30 25 1 25 26
M  V30 26 2 26 27
M  V30 27 1 27 28
M  V30 28 2 9 29
M  V30 29 1 29 5
M  V30 30 1 28 11
M  V30 31 1 23 13
M  V30 32 2 28 24
M  V30 33 1 20 16
M  V30 34 1 1 30
M  V30 35 1 1 31
M  V30 36 1 1 32
M  V30 37 1 2 33
M  V30 38 1 3 34
M  V30 39 1 3 35
M  V30 40 1 3 36
M  V30 41 1 6 37
M  V30 42 1 7 38
M  V30 43 1 8 39
M  V30 44 1 10 40
M  V30 45 1 14 41
M  V30 46 1 20 42
M  V30 47 1 21 43
M  V30 48 1 22 44
M  V30 49 1 26 45
M  V30 50 1 27 46
M  V30 51 1 29 47
M  V30 END BOND
M  V30 END CTAB
M  END
>  <Dataset>  (26) 
ChEMBL_Kinases

>  <Ligand_Instance>  (26) 
nan

>  <PDB_ID>  (26) 
nan

>  <Standardized_SMILES>  (26) 
CC(C)Oc1cccc(Nc2nc3cc(-c4nnn[nH]4)ccc3c3sccc23)c1

>  <Name>  (26) 
nan

>  <Pocket>  (26) 
nan

>  <ATP_Site>  (26) 
nan

>  <Peripheral>  (26) 
nan

>  <Num_H_Atoms_ProtBoundConf>  (26) 
nan

>  <Num_Resolved_Atoms>  (26) 
nan

>  <Num_Not_Resolved_Atoms>  (26) 
nan

$$$$
CHEMBL3700488
     RDKit          3D

  0  0  0  0  0  0  0  0  0  0999 V3000
M  V30 BEGIN CTAB
M  V30 COUNTS 41 44 0 0 0
M  V30 BEGIN ATOM
M  V30 1 O 1.478821 -6.695263 1.055465 0
M  V30 2 C 1.439399 -5.674400 0.264451 0
M  V30 3 O 1.722223 -6.925723 -0.247457 0
M  V30 4 C 1.134076 -4.663985 1.219097 0
M  V30 5 C 0.725143 -4.755207 2.523950 0
M  V30 6 C 0.527286 -3.611718 3.331785 0
M  V30 7 C 0.814908 -2.462326 2.599947 0
M  V30 8 C 1.229929 -2.213115 1.311652 0
M  V30 9 C 1.368222 -3.453102 0.654538 0
M  V30 10 N 1.448330 -0.975620 0.825189 0
M  V30 11 C 1.303935 0.297760 1.492810 0
M  V30 12 N 1.682009 0.839355 0.374749 0
M  V30 13 C 1.701404 2.263685 0.263830 0
M  V30 14 C 0.343834 2.868398 0.406383 0
M  V30 15 C -0.616420 2.287621 -0.613636 0
M  V30 16 C -1.381311 1.199396 -0.156785 0
M  V30 17 C -2.229111 0.690524 -1.154155 0
M  V30 18 C -2.361139 1.147490 -2.457250 0
M  V30 19 C -1.561751 2.215184 -2.789978 0
M  V30 20 C -0.690048 2.790807 -1.887098 0
M  V30 21 C 0.904639 -0.278077 2.673777 0
M  V30 22 C 0.781876 0.977128 3.342290 0
M  V30 23 C 0.385366 1.075470 4.663545 0
M  V30 24 S 0.165993 -0.799446 4.987762 0
M  V30 25 C 0.613756 -1.338855 3.426116 0
M  V30 26 H 1.423142 -7.181715 -1.221805 0
M  V30 27 H 0.540700 -5.728956 2.941850 0
M  V30 28 H 0.207261 -3.658975 4.346034 0
M  V30 29 H 1.702019 -3.241846 -0.379443 0
M  V30 30 H 2.017584 0.707502 -0.567389 0
M  V30 31 H 2.427172 2.722887 1.007252 0
M  V30 32 H 2.099669 2.608018 -0.705551 0
M  V30 33 H 0.398098 3.964201 0.076347 0
M  V30 34 H -0.105465 2.873733 1.398617 0
M  V30 35 H -1.411284 0.742063 0.788414 0
M  V30 36 H -2.900599 -0.172256 -0.969382 0
M  V30 37 H -3.057955 0.677439 -3.172112 0
M  V30 38 H -1.640659 2.598926 -3.810941 0
M  V30 39 H -0.076855 3.646129 -2.206528 0
M  V30 40 H 0.891473 2.088682 3.270629 0
M  V30 41 H 0.107163 1.452137 5.648110 0
M  V30 END ATOM
M  V30 BEGIN BOND
M  V30 1 2 1 2
M  V30 2 1 2 3
M  V30 3 1 2 4
M  V30 4 2 4 5
M  V30 5 1 5 6
M  V30 6 2 6 7
M  V30 7 1 7 8
M  V30 8 2 8 9
M  V30 9 1 8 10
M  V30 10 2 10 11
M  V30 11 1 11 12
M  V30 12 1 12 13
M  V30 13 1 13 14
M  V30 14 1 14 15
M  V30 15 2 15 16
M  V30 16 1 16 17
M  V30 17 2 17 18
M  V30 18 1 18 19
M  V30 19 2 19 20
M  V30 20 1 11 21
M  V30 21 1 21 22
M  V30 22 2 22 23
M  V30 23 1 23 24
M  V30 24 1 24 25
M  V30 25 1 9 4
M  V30 26 1 20 15
M  V30 27 2 25 21
M  V30 28 1 25 7
M  V30 29 1 3 26
M  V30 30 1 5 27
M  V30 31 1 6 28
M  V30 32 1 9 29
M  V30 33 1 12 30
M  V30 34 1 13 31
M  V30 35 1 13 32
M  V30 36 1 14 33
M  V30 37 1 14 34
M  V30 38 1 16 35
M  V30 39 1 17 36
M  V30 40 1 18 37
M  V30 41 1 19 38
M  V30 42 1 20 39
M  V30 43 1 22 40
M  V30 44 1 23 41
M  V30 END BOND
M  V30 END CTAB
M  END
>  <Dataset>  (27) 
ChEMBL_Kinases

>  <Ligand_Instance>  (27) 
nan

>  <PDB_ID>  (27) 
nan

>  <Standardized_SMILES>  (27) 
O=C(O)c1ccc2c(c1)nc(NCCc1ccccc1)c1ccsc12

>  <Name>  (27) 
nan

>  <Pocket>  (27) 
nan

>  <ATP_Site>  (27) 
nan

>  <Peripheral>  (27) 
nan

>  <Num_H_Atoms_ProtBoundConf>  (27) 
nan

>  <Num_Resolved_Atoms>  (27) 
nan

>  <Num_Not_Resolved_Atoms>  (27) 
nan

$$$$
CHEMBL3700395
     RDKit          3D

  0  0  0  0  0  0  0  0  0  0999 V3000
M  V30 BEGIN CTAB
M  V30 COUNTS 35 38 0 0 0
M  V30 BEGIN ATOM
M  V30 1 O 1.577395 -6.099013 1.496161 0
M  V30 2 C 1.159654 -5.221069 0.721783 0
M  V30 3 O 0.562458 -5.911581 -0.312999 0
M  V30 4 C 1.323518 -3.797717 0.958896 0
M  V30 5 C 1.985137 -3.454094 2.119452 0
M  V30 6 C 2.177493 -2.122998 2.421889 0
M  V30 7 C 1.693604 -1.181303 1.538891 0
M  V30 8 C 1.037629 -1.564253 0.388609 0
M  V30 9 C 0.829989 -2.880617 0.059298 0
M  V30 10 N 0.640584 -0.514842 -0.328536 0
M  V30 11 C 0.819480 0.774547 -0.035396 0
M  V30 12 N 0.257847 1.644322 -1.041390 0
M  V30 13 C -1.139114 1.677209 -0.677932 0
M  V30 14 C -1.877955 2.545295 0.092539 0
M  V30 15 C -3.227740 2.297811 0.245391 0
M  V30 16 C -3.836640 1.213247 -0.350668 0
M  V30 17 F -5.173828 1.033262 -0.154954 0
M  V30 18 C -3.109306 0.314673 -1.138277 0
M  V30 19 Cl -3.943305 -1.042401 -1.867113 0
M  V30 20 C -1.742649 0.571365 -1.289289 0
M  V30 21 C 1.475141 1.156200 1.112963 0
M  V30 22 C 1.664460 2.461318 1.419542 0
M  V30 23 C 2.380137 2.627281 2.672971 0
M  V30 24 S 2.691984 0.853835 3.255043 0
M  V30 25 C 1.922507 0.145124 1.918684 0
M  V30 26 H -0.155141 -6.596135 -0.178554 0
M  V30 27 H 2.358861 -4.182669 2.803380 0
M  V30 28 H 2.698212 -1.833797 3.336589 0
M  V30 29 H 0.309460 -3.127150 -0.854062 0
M  V30 30 H 0.726721 2.128209 -1.827543 0
M  V30 31 H -1.248893 3.325850 0.476087 0
M  V30 32 H -3.724305 3.030282 0.866811 0
M  V30 33 H -1.292155 -0.195728 -1.921946 0
M  V30 34 H 1.404595 3.386007 0.942991 0
M  V30 35 H 2.668327 3.668076 3.159978 0
M  V30 END ATOM
M  V30 BEGIN BOND
M  V30 1 2 1 2
M  V30 2 1 2 3
M  V30 3 1 2 4
M  V30 4 2 4 5
M  V30 5 1 5 6
M  V30 6 2 6 7
M  V30 7 1 7 8
M  V30 8 2 8 9
M  V30 9 1 8 10
M  V30 10 2 10 11
M  V30 11 1 11 12
M  V30 12 1 12 13
M  V30 13 2 13 14
M  V30 14 1 14 15
M  V30 15 2 15 16
M  V30 16 1 16 17
M  V30 17 1 16 18
M  V30 18 1 18 19
M  V30 19 2 18 20
M  V30 20 1 11 21
M  V30 21 1 21 22
M  V30 22 2 22 23
M  V30 23 1 23 24
M  V30 24 1 24 25
M  V30 25 1 9 4
M  V30 26 1 20 13
M  V30 27 2 25 21
M  V30 28 1 25 7
M  V30 29 1 3 26
M  V30 30 1 5 27
M  V30 31 1 6 28
M  V30 32 1 9 29
M  V30 33 1 12 30
M  V30 34 1 14 31
M  V30 35 1 15 32
M  V30 36 1 20 33
M  V30 37 1 22 34
M  V30 38 1 23 35
M  V30 END BOND
M  V30 END CTAB
M  END
>  <Dataset>  (28) 
ChEMBL_Kinases

>  <Ligand_Instance>  (28) 
nan

>  <PDB_ID>  (28) 
nan

>  <Standardized_SMILES>  (28) 
O=C(O)c1ccc2c(c1)nc(Nc1ccc(F)c(Cl)c1)c1ccsc12

>  <Name>  (28) 
nan

>  <Pocket>  (28) 
nan

>  <ATP_Site>  (28) 
nan

>  <Peripheral>  (28) 
nan

>  <Num_H_Atoms_ProtBoundConf>  (28) 
nan

>  <Num_Resolved_Atoms>  (28) 
nan

>  <Num_Not_Resolved_Atoms>  (28) 
nan

$$$$
CHEMBL3700394
     RDKit          3D

  0  0  0  0  0  0  0  0  0  0999 V3000
M  V30 BEGIN CTAB
M  V30 COUNTS 35 38 0 0 0
M  V30 BEGIN ATOM
M  V30 1 O -0.060996 -6.461814 1.153147 0
M  V30 2 C -0.560120 -5.313787 1.027350 0
M  V30 3 O -1.946491 -5.284883 1.000250 0
M  V30 4 C 0.277108 -4.141613 0.922272 0
M  V30 5 C 1.645888 -4.301838 0.962546 0
M  V30 6 C 2.508095 -3.219623 0.867021 0
M  V30 7 C 1.919390 -1.977626 0.729715 0
M  V30 8 C 0.550574 -1.826986 0.690265 0
M  V30 9 C -0.304862 -2.898786 0.784972 0
M  V30 10 N 0.192253 -0.566061 0.554840 0
M  V30 11 C 0.938008 0.521742 0.456282 0
M  V30 12 N 0.267317 1.757580 0.318024 0
M  V30 13 C -1.083698 2.114617 0.280541 0
M  V30 14 C -1.530040 3.377576 -0.011417 0
M  V30 15 C -2.846551 3.753085 -0.050170 0
M  V30 16 C -3.813076 2.819540 0.218319 0
M  V30 17 F -5.097997 3.223251 0.171328 0
M  V30 18 C -3.437047 1.542346 0.516771 0
M  V30 19 C -2.099677 1.223076 0.540854 0
M  V30 20 C 2.304150 0.406179 0.492113 0
M  V30 21 C 3.176036 1.425864 0.403024 0
M  V30 22 C 4.598359 0.995758 0.472220 0
M  V30 23 S 4.489525 -0.865564 0.661102 0
M  V30 24 C 2.752445 -0.889893 0.632849 0
M  V30 25 H -2.527847 -5.837382 1.611635 0
M  V30 26 H 2.090088 -5.288884 1.071258 0
M  V30 27 H 3.589429 -3.340732 0.898492 0
M  V30 28 H -1.369474 -2.717936 0.747707 0
M  V30 29 H 0.899889 2.607361 0.222392 0
M  V30 30 H -0.795747 4.157096 -0.232820 0
M  V30 31 H -3.113994 4.757220 -0.285887 0
M  V30 32 H -4.251038 0.860723 0.717657 0
M  V30 33 H -1.950508 0.188076 0.792463 0
M  V30 34 H 3.007732 2.481067 0.291823 0
M  V30 35 H 5.477042 1.849799 0.400353 0
M  V30 END ATOM
M  V30 BEGIN BOND
M  V30 1 2 1 2
M  V30 2 1 2 3
M  V30 3 1 2 4
M  V30 4 2 4 5
M  V30 5 1 5 6
M  V30 6 2 6 7
M  V30 7 1 7 8
M  V30 8 2 8 9
M  V30 9 1 8 10
M  V30 10 2 10 11
M  V30 11 1 11 12
M  V30 12 1 12 13
M  V30 13 2 13 14
M  V30 14 1 14 15
M  V30 15 2 15 16
M  V30 16 1 16 17
M  V30 17 1 16 18
M  V30 18 2 18 19
M  V30 19 1 11 20
M  V30 20 1 20 21
M  V30 21 2 21 22
M  V30 22 1 22 23
M  V30 23 1 23 24
M  V30 24 1 9 4
M  V30 25 1 19 13
M  V30 26 2 24 20
M  V30 27 1 24 7
M  V30 28 1 3 25
M  V30 29 1 5 26
M  V30 30 1 6 27
M  V30 31 1 9 28
M  V30 32 1 12 29
M  V30 33 1 14 30
M  V30 34 1 15 31
M  V30 35 1 18 32
M  V30 36 1 19 33
M  V30 37 1 21 34
M  V30 38 1 22 35
M  V30 END BOND
M  V30 END CTAB
M  END
>  <Dataset>  (29) 
ChEMBL_Kinases

>  <Ligand_Instance>  (29) 
nan

>  <PDB_ID>  (29) 
nan

>  <Standardized_SMILES>  (29) 
O=C(O)c1ccc2c(c1)nc(Nc1ccc(F)cc1)c1ccsc12

>  <Name>  (29) 
nan

>  <Pocket>  (29) 
nan

>  <ATP_Site>  (29) 
nan

>  <Peripheral>  (29) 
nan

>  <Num_H_Atoms_ProtBoundConf>  (29) 
nan

>  <Num_Resolved_Atoms>  (29) 
nan

>  <Num_Not_Resolved_Atoms>  (29) 
nan

$$$$
CHEMBL3700393
     RDKit          3D

  0  0  0  0  0  0  0  0  0  0999 V3000
M  V30 BEGIN CTAB
M  V30 COUNTS 38 41 0 0 0
M  V30 BEGIN ATOM
M  V30 1 C -1.041561 -3.476323 0.471919 0
M  V30 2 N -0.085046 -2.474032 0.809361 0
M  V30 3 C 1.246629 -2.862074 1.135015 0
M  V30 4 C 1.528769 -4.217100 1.101138 0
M  V30 5 C 2.808547 -4.666294 1.407933 0
M  V30 6 C 3.783998 -3.765259 1.742269 0
M  V30 7 C 3.522694 -2.415888 1.781275 0
M  V30 8 C 2.238646 -1.963451 1.473598 0
M  V30 9 C -0.498652 -1.109784 0.808748 0
M  V30 10 N 0.139210 -0.282332 -0.023157 0
M  V30 11 C -0.067897 1.021951 -0.199935 0
M  V30 12 C 0.622696 1.807700 -1.069314 0
M  V30 13 C 0.252559 3.153240 -1.105254 0
M  V30 14 C 0.972790 4.025272 -2.026859 0
M  V30 15 O 1.888773 3.538982 -2.745760 0
M  V30 16 O 0.670042 5.371059 -2.125889 0
M  V30 17 C -0.751088 3.664909 -0.311554 0
M  V30 18 C -1.439622 2.847025 0.565026 0
M  V30 19 C -1.075405 1.511776 0.603582 0
M  V30 20 C -1.780615 0.730842 1.485287 0
M  V30 21 S -3.082169 1.100100 2.598181 0
M  V30 22 C -3.219493 -0.686523 3.234266 0
M  V30 23 C -2.237712 -1.358053 2.506448 0
M  V30 24 C -1.505966 -0.623526 1.613098 0
M  V30 25 H -2.041202 -3.070048 0.302347 0
M  V30 26 H -1.131826 -4.252231 1.271487 0
M  V30 27 H -0.636960 -4.025757 -0.413082 0
M  V30 28 H 0.793870 -4.942773 0.845468 0
M  V30 29 H 3.028029 -5.734215 1.380465 0
M  V30 30 H 4.788437 -4.110710 1.983632 0
M  V30 31 H 4.252469 -1.659188 2.038080 0
M  V30 32 H 2.005447 -0.903996 1.496714 0
M  V30 33 H 1.404595 1.375638 -1.678151 0
M  V30 34 H 1.433665 6.015384 -2.383540 0
M  V30 35 H -1.022766 4.720514 -0.357244 0
M  V30 36 H -2.218053 3.298465 1.165112 0
M  V30 37 H -3.911352 -0.994313 3.969051 0
M  V30 38 H -2.159758 -2.410119 2.732418 0
M  V30 END ATOM
M  V30 BEGIN BOND
M  V30 1 1 1 2
M  V30 2 1 2 3
M  V30 3 2 3 4
M  V30 4 1 4 5
M  V30 5 2 5 6
M  V30 6 1 6 7
M  V30 7 2 7 8
M  V30 8 1 2 9
M  V30 9 2 9 10
M  V30 10 1 10 11
M  V30 11 2 11 12
M  V30 12 1 12 13
M  V30 13 1 13 14
M  V30 14 2 14 15
M  V30 15 1 14 16
M  V30 16 2 13 17
M  V30 17 1 17 18
M  V30 18 2 18 19
M  V30 19 1 19 20
M  V30 20 1 20 21
M  V30 21 1 21 22
M  V30 22 2 22 23
M  V30 23 1 23 24
M  V30 24 1 8 3
M  V30 25 1 24 9
M  V30 26 1 19 11
M  V30 27 2 24 20
M  V30 28 1 1 25
M  V30 29 1 1 26
M  V30 30 1 1 27
M  V30 31 1 4 28
M  V30 32 1 5 29
M  V30 33 1 6 30
M  V30 34 1 7 31
M  V30 35 1 8 32
M  V30 36 1 12 33
M  V30 37 1 16 34
M  V30 38 1 17 35
M  V30 39 1 18 36
M  V30 40 1 22 37
M  V30 41 1 23 38
M  V30 END BOND
M  V30 END CTAB
M  END
>  <Dataset>  (30) 
ChEMBL_Kinases

>  <Ligand_Instance>  (30) 
nan

>  <PDB_ID>  (30) 
nan

>  <Standardized_SMILES>  (30) 
CN(c1ccccc1)c1nc2cc(C(=O)O)ccc2c2sccc12

>  <Name>  (30) 
nan

>  <Pocket>  (30) 
nan

>  <ATP_Site>  (30) 
nan

>  <Peripheral>  (30) 
nan

>  <Num_H_Atoms_ProtBoundConf>  (30) 
nan

>  <Num_Resolved_Atoms>  (30) 
nan

>  <Num_Not_Resolved_Atoms>  (30) 
nan

$$$$
CHEMBL3700392
     RDKit          3D

  0  0  0  0  0  0  0  0  0  0999 V3000
M  V30 BEGIN CTAB
M  V30 COUNTS 37 41 0 0 0
M  V30 BEGIN ATOM
M  V30 1 C 2.027313 -5.167382 3.268383 0
M  V30 2 C 2.877056 -4.335058 3.983670 0
M  V30 3 C 2.770587 -2.983047 3.638357 0
M  V30 4 C 1.923307 -2.451256 2.686541 0
M  V30 5 N 1.937325 -1.034706 2.463832 0
M  V30 6 C 0.904473 -0.473211 1.639326 0
M  V30 7 N 1.199426 0.108334 0.495043 0
M  V30 8 C 0.374950 0.681983 -0.381752 0
M  V30 9 C 0.708767 1.289247 -1.568230 0
M  V30 10 C -0.304522 1.835591 -2.337092 0
M  V30 11 C 0.014553 2.484955 -3.629218 0
M  V30 12 N 1.200303 2.620646 -4.246410 0
M  V30 13 N 1.064731 3.257492 -5.395001 0
M  V30 14 N -0.221873 3.540673 -5.528203 0
M  V30 15 N -0.835367 3.069484 -4.461115 0
M  V30 16 C -1.628440 1.796077 -1.963528 0
M  V30 17 C -1.952391 1.185923 -0.774574 0
M  V30 18 C -0.949690 0.641157 -0.007167 0
M  V30 19 C -1.336561 0.056653 1.162100 0
M  V30 20 S -2.928363 -0.148498 1.885211 0
M  V30 21 C -2.285995 -1.059504 3.418598 0
M  V30 22 C -0.878978 -1.104939 3.196843 0
M  V30 23 C -0.404101 -0.545982 2.067730 0
M  V30 24 C 1.105872 -3.327883 2.011333 0
M  V30 25 C 1.158871 -4.698265 2.305307 0
M  V30 26 H 2.127539 -6.225504 3.553900 0
M  V30 27 H 3.576257 -4.638043 4.748789 0
M  V30 28 H 3.414511 -2.299367 4.168971 0
M  V30 29 H 2.669529 -0.448766 2.886057 0
M  V30 30 H 1.763473 1.313591 -1.847923 0
M  V30 31 H -1.885611 3.151715 -4.292735 0
M  V30 32 H -2.412590 2.221328 -2.564242 0
M  V30 33 H -2.996134 1.155827 -0.478122 0
M  V30 34 H -2.834465 -1.489620 4.323166 0
M  V30 35 H -0.326236 -1.598478 3.976530 0
M  V30 36 H 0.430050 -2.943879 1.248063 0
M  V30 37 H 0.530071 -5.393709 1.790536 0
M  V30 END ATOM
M  V30 BEGIN BOND
M  V30 1 2 1 2
M  V30 2 1 2 3
M  V30 3 2 3 4
M  V30 4 1 4 5
M  V30 5 1 5 6
M  V30 6 2 6 7
M  V30 7 1 7 8
M  V30 8 2 8 9
M  V30 9 1 9 10
M  V30 10 1 10 11
M  V30 11 2 11 12
M  V30 12 1 12 13
M  V30 13 2 13 14
M  V30 14 1 14 15
M  V30 15 2 10 16
M  V30 16 1 16 17
M  V30 17 2 17 18
M  V30 18 1 18 19
M  V30 19 1 19 20
M  V30 20 1 20 21
M  V30 21 2 21 22
M  V30 22 1 22 23
M  V30 23 1 4 24
M  V30 24 2 24 25
M  V30 25 1 25 1
M  V30 26 1 23 6
M  V30 27 1 18 8
M  V30 28 2 23 19
M  V30 29 1 15 11
M  V30 30 1 1 26
M  V30 31 1 2 27
M  V30 32 1 3 28
M  V30 33 1 5 29
M  V30 34 1 9 30
M  V30 35 1 15 31
M  V30 36 1 16 32
M  V30 37 1 17 33
M  V30 38 1 21 34
M  V30 39 1 22 35
M  V30 40 1 24 36
M  V30 41 1 25 37
M  V30 END BOND
M  V30 END CTAB
M  END
>  <Dataset>  (31) 
ChEMBL_Kinases

>  <Ligand_Instance>  (31) 
nan

>  <PDB_ID>  (31) 
nan

>  <Standardized_SMILES>  (31) 
c1ccc(Nc2nc3cc(-c4nnn[nH]4)ccc3c3sccc23)cc1

>  <Name>  (31) 
nan

>  <Pocket>  (31) 
nan

>  <ATP_Site>  (31) 
nan

>  <Peripheral>  (31) 
nan

>  <Num_H_Atoms_ProtBoundConf>  (31) 
nan

>  <Num_Resolved_Atoms>  (31) 
nan

>  <Num_Not_Resolved_Atoms>  (31) 
nan

$$$$
CHEMBL3700390
     RDKit          3D

  0  0  0  0  0  0  0  0  0  0999 V3000
M  V30 BEGIN CTAB
M  V30 COUNTS 43 46 0 0 0
M  V30 BEGIN ATOM
M  V30 1 C 0.825711 -4.659131 4.539501 0
M  V30 2 O 0.626490 -5.018290 3.190408 0
M  V30 3 C 0.411996 -4.027712 2.247319 0
M  V30 4 C 0.364334 -2.676873 2.486751 0
M  V30 5 C 0.138996 -1.807465 1.422563 0
M  V30 6 C -0.044167 -2.217121 0.116301 0
M  V30 7 N -0.263122 -1.262715 -0.940953 0
M  V30 8 C -0.280776 0.073735 -0.451720 0
M  V30 9 N 0.916739 0.573036 -0.215343 0
M  V30 10 C 1.215068 1.785304 0.260660 0
M  V30 11 C 2.431094 2.318624 0.537170 0
M  V30 12 C 2.543421 3.606233 1.062356 0
M  V30 13 C 3.929077 4.025301 1.314534 0
M  V30 14 O 4.890480 3.319203 0.960878 0
M  V30 15 O 4.245824 5.216198 1.952386 0
M  V30 16 C 1.445861 4.405383 1.326752 0
M  V30 17 C 0.241455 3.814247 1.026291 0
M  V30 18 C 0.104585 2.560281 0.514655 0
M  V30 19 C -1.188171 2.063775 0.273712 0
M  V30 20 S -2.796382 2.796419 0.485912 0
M  V30 21 C -3.709208 1.352702 -0.103455 0
M  V30 22 C -2.690360 0.418835 -0.416916 0
M  V30 23 C -1.425047 0.805485 -0.216643 0
M  V30 24 C 0.000873 -3.594346 -0.140180 0
M  V30 25 O -0.188452 -3.939460 -1.456193 0
M  V30 26 C -0.197958 -5.215485 -2.008911 0
M  V30 27 C 0.228517 -4.458138 0.936605 0
M  V30 28 H 1.764756 -4.029579 4.557001 0
M  V30 29 H 1.038798 -5.544051 5.171903 0
M  V30 30 H 0.019524 -4.004243 4.912870 0
M  V30 31 H 0.507831 -2.348906 3.506313 0
M  V30 32 H 0.119584 -0.776379 1.713048 0
M  V30 33 H -0.380814 -1.598268 -1.901003 0
M  V30 34 H 3.275413 1.688084 0.326517 0
M  V30 35 H 5.056813 5.721112 1.620083 0
M  V30 36 H 1.583355 5.393549 1.731995 0
M  V30 37 H -0.644052 4.428858 1.224973 0
M  V30 38 H -4.786292 1.263383 -0.183340 0
M  V30 39 H -3.053307 -0.531268 -0.794070 0
M  V30 40 H 0.843864 -5.616349 -2.124541 0
M  V30 41 H -0.703821 -5.275080 -2.985523 0
M  V30 42 H -0.696730 -5.892321 -1.270710 0
M  V30 43 H 0.253169 -5.515948 0.678833 0
M  V30 END ATOM
M  V30 BEGIN BOND
M  V30 1 1 1 2
M  V30 2 1 2 3
M  V30 3 2 3 4
M  V30 4 1 4 5
M  V30 5 2 5 6
M  V30 6 1 6 7
M  V30 7 1 7 8
M  V30 8 2 8 9
M  V30 9 1 9 10
M  V30 10 2 10 11
M  V30 11 1 11 12
M  V30 12 1 12 13
M  V30 13 2 13 14
M  V30 14 1 13 15
M  V30 15 2 12 16
M  V30 16 1 16 17
M  V30 17 2 17 18
M  V30 18 1 18 19
M  V30 19 1 19 20
M  V30 20 1 20 21
M  V30 21 2 21 22
M  V30 22 1 22 23
M  V30 23 1 6 24
M  V30 24 1 24 25
M  V30 25 1 25 26
M  V30 26 2 24 27
M  V30 27 1 27 3
M  V30 28 1 23 8
M  V30 29 1 18 10
M  V30 30 2 23 19
M  V30 31 1 1 28
M  V30 32 1 1 29
M  V30 33 1 1 30
M  V30 34 1 4 31
M  V30 35 1 5 32
M  V30 36 1 7 33
M  V30 37 1 11 34
M  V30 38 1 15 35
M  V30 39 1 16 36
M  V30 40 1 17 37
M  V30 41 1 21 38
M  V30 42 1 22 39
M  V30 43 1 26 40
M  V30 44 1 26 41
M  V30 45 1 26 42
M  V30 46 1 27 43
M  V30 END BOND
M  V30 END CTAB
M  END
>  <Dataset>  (32) 
ChEMBL_Kinases

>  <Ligand_Instance>  (32) 
nan

>  <PDB_ID>  (32) 
nan

>  <Standardized_SMILES>  (32) 
COc1ccc(Nc2nc3cc(C(=O)O)ccc3c3sccc23)c(OC)c1

>  <Name>  (32) 
nan

>  <Pocket>  (32) 
nan

>  <ATP_Site>  (32) 
nan

>  <Peripheral>  (32) 
nan

>  <Num_H_Atoms_ProtBoundConf>  (32) 
nan

>  <Num_Resolved_Atoms>  (32) 
nan

>  <Num_Not_Resolved_Atoms>  (32) 
nan

$$$$
CHEMBL3700389
     RDKit          3D

  0  0  0  0  0  0  0  0  0  0999 V3000
M  V30 BEGIN CTAB
M  V30 COUNTS 36 39 0 0 0
M  V30 BEGIN ATOM
M  V30 1 O 0.344147 -3.592261 4.979946 0
M  V30 2 C 0.644697 -4.259703 3.957023 0
M  V30 3 O 0.643669 -5.595908 4.326621 0
M  V30 4 C 0.933845 -3.689531 2.643406 0
M  V30 5 C 1.261768 -4.372038 1.491683 0
M  V30 6 C 1.514124 -3.741665 0.290837 0
M  V30 7 C 1.418189 -2.374747 0.308280 0
M  V30 8 C 1.095579 -1.645611 1.427597 0
M  V30 9 C 0.851891 -2.302149 2.600918 0
M  V30 10 N 1.052089 -0.325142 1.234415 0
M  V30 11 C 1.278030 0.342402 0.113943 0
M  V30 12 N 1.136553 1.743232 0.319398 0
M  V30 13 C -0.212578 2.258833 0.278209 0
M  V30 14 C -0.524505 3.569680 0.565726 0
M  V30 15 C -1.836852 4.014466 0.521479 0
M  V30 16 C -2.875015 3.161912 0.188474 0
M  V30 17 C -2.598352 1.828133 -0.109488 0
M  V30 18 O -3.594887 0.898303 -0.457316 0
M  V30 19 C -1.294917 1.457114 -0.048255 0
M  V30 20 C 1.603098 -0.327049 -1.039489 0
M  V30 21 C 1.855932 0.218189 -2.241147 0
M  V30 22 C 2.173735 -0.615492 -3.309855 0
M  V30 23 S 2.102029 -2.270041 -2.539114 0
M  V30 24 C 1.661075 -1.697280 -0.886716 0
M  V30 25 H -0.086394 -6.057213 4.859164 0
M  V30 26 H 1.308990 -5.453639 1.593919 0
M  V30 27 H 1.764177 -4.349534 -0.562578 0
M  V30 28 H 0.604789 -1.637761 3.423797 0
M  V30 29 H 1.876742 2.456295 0.493851 0
M  V30 30 H 0.269805 4.263251 0.830899 0
M  V30 31 H -2.079016 5.044554 0.749332 0
M  V30 32 H -3.898653 3.495138 0.150151 0
M  V30 33 H -3.364042 0.273059 -1.229444 0
M  V30 34 H -1.078611 0.407951 -0.283929 0
M  V30 35 H 1.853086 1.257252 -2.529239 0
M  V30 36 H 2.409449 -0.509874 -4.317516 0
M  V30 END ATOM
M  V30 BEGIN BOND
M  V30 1 2 1 2
M  V30 2 1 2 3
M  V30 3 1 2 4
M  V30 4 2 4 5
M  V30 5 1 5 6
M  V30 6 2 6 7
M  V30 7 1 7 8
M  V30 8 2 8 9
M  V30 9 1 8 10
M  V30 10 2 10 11
M  V30 11 1 11 12
M  V30 12 1 12 13
M  V30 13 2 13 14
M  V30 14 1 14 15
M  V30 15 2 15 16
M  V30 16 1 16 17
M  V30 17 1 17 18
M  V30 18 2 17 19
M  V30 19 1 11 20
M  V30 20 1 20 21
M  V30 21 2 21 22
M  V30 22 1 22 23
M  V30 23 1 23 24
M  V30 24 1 9 4
M  V30 25 1 19 13
M  V30 26 2 24 20
M  V30 27 1 24 7
M  V30 28 1 3 25
M  V30 29 1 5 26
M  V30 30 1 6 27
M  V30 31 1 9 28
M  V30 32 1 12 29
M  V30 33 1 14 30
M  V30 34 1 15 31
M  V30 35 1 16 32
M  V30 36 1 18 33
M  V30 37 1 19 34
M  V30 38 1 21 35
M  V30 39 1 22 36
M  V30 END BOND
M  V30 END CTAB
M  END
>  <Dataset>  (33) 
ChEMBL_Kinases

>  <Ligand_Instance>  (33) 
nan

>  <PDB_ID>  (33) 
nan

>  <Standardized_SMILES>  (33) 
O=C(O)c1ccc2c(c1)nc(Nc1cccc(O)c1)c1ccsc12

>  <Name>  (33) 
nan

>  <Pocket>  (33) 
nan

>  <ATP_Site>  (33) 
nan

>  <Peripheral>  (33) 
nan

>  <Num_H_Atoms_ProtBoundConf>  (33) 
nan

>  <Num_Resolved_Atoms>  (33) 
nan

>  <Num_Not_Resolved_Atoms>  (33) 
nan

$$$$
CHEMBL3700388
     RDKit          3D

  0  0  0  0  0  0  0  0  0  0999 V3000
M  V30 BEGIN CTAB
M  V30 COUNTS 39 42 0 0 0
M  V30 BEGIN ATOM
M  V30 1 C 0.308531 -4.195464 2.194777 0
M  V30 2 O 0.308759 -3.394881 1.055741 0
M  V30 3 C 1.358231 -3.242149 0.174943 0
M  V30 4 C 2.599595 -3.792322 0.170168 0
M  V30 5 C 3.519640 -3.514543 -0.803588 0
M  V30 6 C 3.175456 -2.637998 -1.828224 0
M  V30 7 C 1.895010 -2.069535 -1.824299 0
M  V30 8 C 0.960809 -2.365969 -0.814100 0
M  V30 9 N -0.229469 -1.627196 -1.095626 0
M  V30 10 C -0.687501 -0.710933 -0.112899 0
M  V30 11 N 0.059206 0.395726 -0.095871 0
M  V30 12 C -0.084993 1.459881 0.690174 0
M  V30 13 C 0.706723 2.585546 0.680062 0
M  V30 14 C 0.408318 3.605400 1.578711 0
M  V30 15 C 1.303816 4.747332 1.489267 0
M  V30 16 O 2.260675 4.824313 0.689369 0
M  V30 17 O 1.054655 5.812984 2.368750 0
M  V30 18 C -0.646172 3.479890 2.443412 0
M  V30 19 C -1.453701 2.336467 2.456111 0
M  V30 20 C -1.148832 1.331831 1.560876 0
M  V30 21 C -1.980838 0.221993 1.617997 0
M  V30 22 S -3.337862 -0.173565 2.579672 0
M  V30 23 C -3.605923 -1.868387 1.769896 0
M  V30 24 C -2.563956 -1.935465 0.802106 0
M  V30 25 C -1.748649 -0.839912 0.754676 0
M  V30 26 H -0.714432 -4.675723 2.230404 0
M  V30 27 H 1.049283 -5.027846 2.088290 0
M  V30 28 H 0.506670 -3.633227 3.137229 0
M  V30 29 H 2.779765 -4.456892 0.997142 0
M  V30 30 H 4.509022 -3.982346 -0.763877 0
M  V30 31 H 3.936268 -2.467376 -2.551548 0
M  V30 32 H 1.788832 -1.413827 -2.685218 0
M  V30 33 H -0.735374 -1.771480 -2.006545 0
M  V30 34 H 1.480676 2.511286 -0.058498 0
M  V30 35 H 1.599471 6.683153 2.328944 0
M  V30 36 H -0.835985 4.294182 3.118451 0
M  V30 37 H -2.274457 2.299420 3.167297 0
M  V30 38 H -4.383561 -2.587470 2.013192 0
M  V30 39 H -2.550745 -2.845701 0.228746 0
M  V30 END ATOM
M  V30 BEGIN BOND
M  V30 1 1 1 2
M  V30 2 1 2 3
M  V30 3 2 3 4
M  V30 4 1 4 5
M  V30 5 2 5 6
M  V30 6 1 6 7
M  V30 7 2 7 8
M  V30 8 1 8 9
M  V30 9 1 9 10
M  V30 10 2 10 11
M  V30 11 1 11 12
M  V30 12 2 12 13
M  V30 13 1 13 14
M  V30 14 1 14 15
M  V30 15 2 15 16
M  V30 16 1 15 17
M  V30 17 2 14 18
M  V30 18 1 18 19
M  V30 19 2 19 20
M  V30 20 1 20 21
M  V30 21 1 21 22
M  V30 22 1 22 23
M  V30 23 2 23 24
M  V30 24 1 24 25
M  V30 25 1 8 3
M  V30 26 1 25 10
M  V30 27 1 20 12
M  V30 28 2 25 21
M  V30 29 1 1 26
M  V30 30 1 1 27
M  V30 31 1 1 28
M  V30 32 1 4 29
M  V30 33 1 5 30
M  V30 34 1 6 31
M  V30 35 1 7 32
M  V30 36 1 9 33
M  V30 37 1 13 34
M  V30 38 1 17 35
M  V30 39 1 18 36
M  V30 40 1 19 37
M  V30 41 1 23 38
M  V30 42 1 24 39
M  V30 END BOND
M  V30 END CTAB
M  END
>  <Dataset>  (34) 
ChEMBL_Kinases

>  <Ligand_Instance>  (34) 
nan

>  <PDB_ID>  (34) 
nan

>  <Standardized_SMILES>  (34) 
COc1ccccc1Nc1nc2cc(C(=O)O)ccc2c2sccc12

>  <Name>  (34) 
nan

>  <Pocket>  (34) 
nan

>  <ATP_Site>  (34) 
nan

>  <Peripheral>  (34) 
nan

>  <Num_H_Atoms_ProtBoundConf>  (34) 
nan

>  <Num_Resolved_Atoms>  (34) 
nan

>  <Num_Not_Resolved_Atoms>  (34) 
nan

$$$$
CHEMBL3700387
     RDKit          3D

  0  0  0  0  0  0  0  0  0  0999 V3000
M  V30 BEGIN CTAB
M  V30 COUNTS 37 40 0 0 0
M  V30 BEGIN ATOM
M  V30 1 O 0.805479 -4.717674 5.022074 0
M  V30 2 C 0.504625 -5.027005 3.850570 0
M  V30 3 O 0.129491 -6.384253 3.931955 0
M  V30 4 C 0.423436 -4.467891 2.509907 0
M  V30 5 C 0.074657 -5.159023 1.369904 0
M  V30 6 C 0.033271 -4.438034 0.200154 0
M  V30 7 C 0.318078 -3.092787 0.129077 0
M  V30 8 C 0.655719 -2.470816 1.294779 0
M  V30 9 C 0.726561 -3.098945 2.510192 0
M  V30 10 N 0.887026 -1.195719 1.093577 0
M  V30 11 C 0.833953 -0.493469 -0.036015 0
M  V30 12 N 1.086393 0.905467 -0.217911 0
M  V30 13 C 1.330059 2.254812 -0.392419 0
M  V30 14 C 0.434019 3.127335 0.402917 0
M  V30 15 C -0.764400 3.473108 -0.228924 0
M  V30 16 C -1.618984 4.286766 0.475694 0
M  V30 17 N -1.371391 4.766143 1.725929 0
M  V30 18 C -0.201296 4.406751 2.297580 0
M  V30 19 C 0.749283 3.585228 1.684354 0
M  V30 20 C 0.485275 -1.149512 -1.228277 0
M  V30 21 C 0.380803 -0.607139 -2.474518 0
M  V30 22 C 0.009026 -1.497821 -3.543884 0
M  V30 23 S -0.181578 -3.158928 -2.644051 0
M  V30 24 C 0.223370 -2.493876 -1.116767 0
M  V30 25 H -0.425952 -6.760097 4.706599 0
M  V30 26 H -0.140647 -6.209167 1.477353 0
M  V30 27 H -0.250691 -5.049487 -0.668744 0
M  V30 28 H 1.004249 -2.515771 3.364054 0
M  V30 29 H 1.335763 1.110600 0.809226 0
M  V30 30 H 2.386989 2.592483 -0.174646 0
M  V30 31 H 1.253700 2.567438 -1.496602 0
M  V30 32 H -1.028845 3.137063 -1.206817 0
M  V30 33 H -2.587710 4.633550 0.103109 0
M  V30 34 H 0.032950 4.771274 3.297174 0
M  V30 35 H 1.677062 3.293766 2.122152 0
M  V30 36 H 0.521326 0.389890 -2.870418 0
M  V30 37 H -0.133424 -1.270684 -4.635366 0
M  V30 END ATOM
M  V30 BEGIN BOND
M  V30 1 2 1 2
M  V30 2 1 2 3
M  V30 3 1 2 4
M  V30 4 2 4 5
M  V30 5 1 5 6
M  V30 6 2 6 7
M  V30 7 1 7 8
M  V30 8 2 8 9
M  V30 9 1 8 10
M  V30 10 2 10 11
M  V30 11 1 11 12
M  V30 12 1 12 13
M  V30 13 1 13 14
M  V30 14 2 14 15
M  V30 15 1 15 16
M  V30 16 2 16 17
M  V30 17 1 17 18
M  V30 18 2 18 19
M  V30 19 1 11 20
M  V30 20 1 20 21
M  V30 21 2 21 22
M  V30 22 1 22 23
M  V30 23 1 23 24
M  V30 24 1 9 4
M  V30 25 1 19 14
M  V30 26 2 24 20
M  V30 27 1 24 7
M  V30 28 1 3 25
M  V30 29 1 5 26
M  V30 30 1 6 27
M  V30 31 1 9 28
M  V30 32 1 12 29
M  V30 33 1 13 30
M  V30 34 1 13 31
M  V30 35 1 15 32
M  V30 36 1 16 33
M  V30 37 1 18 34
M  V30 38 1 19 35
M  V30 39 1 21 36
M  V30 40 1 22 37
M  V30 END BOND
M  V30 END CTAB
M  END
>  <Dataset>  (35) 
ChEMBL_Kinases

>  <Ligand_Instance>  (35) 
nan

>  <PDB_ID>  (35) 
nan

>  <Standardized_SMILES>  (35) 
O=C(O)c1ccc2c(c1)nc(NCc1ccncc1)c1ccsc12

>  <Name>  (35) 
nan

>  <Pocket>  (35) 
nan

>  <ATP_Site>  (35) 
nan

>  <Peripheral>  (35) 
nan

>  <Num_H_Atoms_ProtBoundConf>  (35) 
nan

>  <Num_Resolved_Atoms>  (35) 
nan

>  <Num_Not_Resolved_Atoms>  (35) 
nan

$$$$
CHEMBL3700386
     RDKit          3D

  0  0  0  0  0  0  0  0  0  0999 V3000
M  V30 BEGIN CTAB
M  V30 COUNTS 44 47 0 0 0
M  V30 BEGIN ATOM
M  V30 1 O 2.205768 -4.767853 1.015890 0
M  V30 2 C 1.376903 -4.732444 1.958695 0
M  V30 3 O 1.409620 -5.851156 2.811591 0
M  V30 4 C 0.423609 -3.674509 2.232672 0
M  V30 5 C -0.444952 -3.739505 3.301985 0
M  V30 6 C -1.348034 -2.710626 3.540275 0
M  V30 7 C -1.306852 -1.662061 2.656662 0
M  V30 8 C -0.454794 -1.567411 1.583055 0
M  V30 9 C 0.435264 -2.592931 1.357350 0
M  V30 10 N -0.609365 -0.466528 0.887082 0
M  V30 11 C -1.472108 0.521134 1.110946 0
M  V30 12 N -1.359026 1.558292 0.138388 0
M  V30 13 C -0.444442 1.631797 -0.984114 0
M  V30 14 C 0.948440 1.694264 -0.484298 0
M  V30 15 N 1.969054 1.772513 -1.471882 0
M  V30 16 C 3.308094 1.831018 -0.926708 0
M  V30 17 C 3.544505 0.535317 -0.231453 0
M  V30 18 O 3.166214 -0.593027 -0.858744 0
M  V30 19 C 2.586455 -0.533795 -2.089606 0
M  V30 20 C 1.956684 0.760088 -2.474884 0
M  V30 21 C -2.347974 0.479159 2.170484 0
M  V30 22 C -3.233075 1.453422 2.431265 0
M  V30 23 C -4.037058 1.169412 3.599457 0
M  V30 24 S -3.423956 -0.499589 4.210830 0
M  V30 25 C -2.249955 -0.669993 2.971160 0
M  V30 26 H 1.889207 -6.715499 2.553270 0
M  V30 27 H -0.406883 -4.605328 3.947171 0
M  V30 28 H -2.030990 -2.769507 4.387276 0
M  V30 29 H 1.088703 -2.481618 0.503162 0
M  V30 30 H -2.037170 2.339205 0.294080 0
M  V30 31 H -0.665851 0.703749 -1.572367 0
M  V30 32 H -0.732912 2.514199 -1.590808 0
M  V30 33 H 1.036996 2.602380 0.150617 0
M  V30 34 H 1.195126 0.848938 0.182222 0
M  V30 35 H 3.445031 2.650441 -0.210663 0
M  V30 36 H 4.013761 1.883852 -1.781577 0
M  V30 37 H 3.123598 0.624970 0.808667 0
M  V30 38 H 4.656737 0.463712 -0.048913 0
M  V30 39 H 3.336502 -0.875427 -2.836019 0
M  V30 40 H 1.787627 -1.326649 -2.112316 0
M  V30 41 H 0.925148 0.632367 -2.865206 0
M  V30 42 H 2.537257 1.173760 -3.345623 0
M  V30 43 H -3.451984 2.382740 1.947370 0
M  V30 44 H -4.911037 1.937907 4.011147 0
M  V30 END ATOM
M  V30 BEGIN BOND
M  V30 1 2 1 2
M  V30 2 1 2 3
M  V30 3 1 2 4
M  V30 4 2 4 5
M  V30 5 1 5 6
M  V30 6 2 6 7
M  V30 7 1 7 8
M  V30 8 2 8 9
M  V30 9 1 8 10
M  V30 10 2 10 11
M  V30 11 1 11 12
M  V30 12 1 12 13
M  V30 13 1 13 14
M  V30 14 1 14 15
M  V30 15 1 15 16
M  V30 16 1 16 17
M  V30 17 1 17 18
M  V30 18 1 18 19
M  V30 19 1 19 20
M  V30 20 1 11 21
M  V30 21 1 21 22
M  V30 22 2 22 23
M  V30 23 1 23 24
M  V30 24 1 24 25
M  V30 25 1 9 4
M  V30 26 1 20 15
M  V30 27 2 25 21
M  V30 28 1 25 7
M  V30 29 1 3 26
M  V30 30 1 5 27
M  V30 31 1 6 28
M  V30 32 1 9 29
M  V30 33 1 12 30
M  V30 34 1 13 31
M  V30 35 1 13 32
M  V30 36 1 14 33
M  V30 37 1 14 34
M  V30 38 1 16 35
M  V30 39 1 16 36
M  V30 40 1 17 37
M  V30 41 1 17 38
M  V30 42 1 19 39
M  V30 43 1 19 40
M  V30 44 1 20 41
M  V30 45 1 20 42
M  V30 46 1 22 43
M  V30 47 1 23 44
M  V30 END BOND
M  V30 END CTAB
M  END
>  <Dataset>  (36) 
ChEMBL_Kinases

>  <Ligand_Instance>  (36) 
nan

>  <PDB_ID>  (36) 
nan

>  <Standardized_SMILES>  (36) 
O=C(O)c1ccc2c(c1)nc(NCCN1CCOCC1)c1ccsc12

>  <Name>  (36) 
nan

>  <Pocket>  (36) 
nan

>  <ATP_Site>  (36) 
nan

>  <Peripheral>  (36) 
nan

>  <Num_H_Atoms_ProtBoundConf>  (36) 
nan

>  <Num_Resolved_Atoms>  (36) 
nan

>  <Num_Not_Resolved_Atoms>  (36) 
nan

$$$$
CHEMBL3700385
     RDKit          3D

  0  0  0  0  0  0  0  0  0  0999 V3000
M  V30 BEGIN CTAB
M  V30 COUNTS 37 40 0 0 0
M  V30 BEGIN ATOM
M  V30 1 O 3.449196 -3.235351 4.938613 0
M  V30 2 C 3.035123 -3.956585 4.025876 0
M  V30 3 O 3.291154 -5.315486 4.305143 0
M  V30 4 C 2.347825 -3.725266 2.735609 0
M  V30 5 C 1.974254 -4.723877 1.864288 0
M  V30 6 C 1.341420 -4.344695 0.699427 0
M  V30 7 C 1.085081 -3.022893 0.403669 0
M  V30 8 C 1.487814 -2.096154 1.320059 0
M  V30 9 C 2.122477 -2.362096 2.505553 0
M  V30 10 N 1.184060 -0.882939 0.915473 0
M  V30 11 C 0.579315 -0.470662 -0.191270 0
M  V30 12 N 0.264592 0.852711 -0.608163 0
M  V30 13 C -0.041327 2.139837 -1.013278 0
M  V30 14 C -0.951435 2.852886 -0.093104 0
M  V30 15 C -2.335537 2.856921 -0.176333 0
M  V30 16 C -3.128597 3.548242 0.720145 0
M  V30 17 C -2.472677 4.246744 1.719691 0
M  V30 18 N -1.117682 4.274283 1.844631 0
M  V30 19 C -0.399260 3.580633 0.939959 0
M  V30 20 C 0.171184 -1.440149 -1.124294 0
M  V30 21 C -0.466600 -1.252158 -2.328224 0
M  V30 22 C -0.778161 -2.414524 -3.103424 0
M  V30 23 S -0.109608 -3.824519 -2.022425 0
M  V30 24 C 0.445352 -2.746749 -0.790470 0
M  V30 25 H 3.356407 -5.662825 5.232795 0
M  V30 26 H 2.197412 -5.734642 2.142254 0
M  V30 27 H 1.081940 -5.207911 0.067593 0
M  V30 28 H 2.404165 -1.579577 3.167547 0
M  V30 29 H 0.673707 1.328314 0.269458 0
M  V30 30 H 0.867148 2.787939 -1.146164 0
M  V30 31 H -0.475274 2.176255 -2.073065 0
M  V30 32 H -2.781914 2.291244 -0.981247 0
M  V30 33 H -4.203499 3.546476 0.647393 0
M  V30 34 H -3.100133 4.798710 2.434757 0
M  V30 35 H 0.665033 3.646219 1.096822 0
M  V30 36 H -0.802162 -0.362537 -2.845096 0
M  V30 37 H -1.263146 -2.522243 -4.057227 0
M  V30 END ATOM
M  V30 BEGIN BOND
M  V30 1 2 1 2
M  V30 2 1 2 3
M  V30 3 1 2 4
M  V30 4 2 4 5
M  V30 5 1 5 6
M  V30 6 2 6 7
M  V30 7 1 7 8
M  V30 8 2 8 9
M  V30 9 1 8 10
M  V30 10 2 10 11
M  V30 11 1 11 12
M  V30 12 1 12 13
M  V30 13 1 13 14
M  V30 14 2 14 15
M  V30 15 1 15 16
M  V30 16 2 16 17
M  V30 17 1 17 18
M  V30 18 2 18 19
M  V30 19 1 11 20
M  V30 20 1 20 21
M  V30 21 2 21 22
M  V30 22 1 22 23
M  V30 23 1 23 24
M  V30 24 1 9 4
M  V30 25 1 19 14
M  V30 26 2 24 20
M  V30 27 1 24 7
M  V30 28 1 3 25
M  V30 29 1 5 26
M  V30 30 1 6 27
M  V30 31 1 9 28
M  V30 32 1 12 29
M  V30 33 1 13 30
M  V30 34 1 13 31
M  V30 35 1 15 32
M  V30 36 1 16 33
M  V30 37 1 17 34
M  V30 38 1 19 35
M  V30 39 1 21 36
M  V30 40 1 22 37
M  V30 END BOND
M  V30 END CTAB
M  END
>  <Dataset>  (37) 
ChEMBL_Kinases

>  <Ligand_Instance>  (37) 
nan

>  <PDB_ID>  (37) 
nan

>  <Standardized_SMILES>  (37) 
O=C(O)c1ccc2c(c1)nc(NCc1cccnc1)c1ccsc12

>  <Name>  (37) 
nan

>  <Pocket>  (37) 
nan

>  <ATP_Site>  (37) 
nan

>  <Peripheral>  (37) 
nan

>  <Num_H_Atoms_ProtBoundConf>  (37) 
nan

>  <Num_Resolved_Atoms>  (37) 
nan

>  <Num_Not_Resolved_Atoms>  (37) 
nan

$$$$
CHEMBL3700384
     RDKit          3D

  0  0  0  0  0  0  0  0  0  0999 V3000
M  V30 BEGIN CTAB
M  V30 COUNTS 35 38 0 0 0
M  V30 BEGIN ATOM
M  V30 1 O 4.810339 -4.228636 1.914494 0
M  V30 2 C 3.624709 -4.602142 1.751739 0
M  V30 3 O 3.581967 -6.012139 1.736949 0
M  V30 4 C 2.336289 -3.942032 1.581766 0
M  V30 5 C 1.159385 -4.635757 1.436881 0
M  V30 6 C 0.015882 -3.893699 1.271556 0
M  V30 7 C 0.063335 -2.500213 1.255179 0
M  V30 8 C 1.238836 -1.799838 1.401342 0
M  V30 9 C 2.378689 -2.557023 1.564490 0
M  V30 10 N 1.116745 -0.454351 1.361590 0
M  V30 11 C -0.041380 0.198982 1.189116 0
M  V30 12 N -0.040437 1.642503 1.165542 0
M  V30 13 C -0.252352 2.512699 0.069336 0
M  V30 14 C -0.412872 3.863464 0.380554 0
M  V30 15 C -0.646656 4.778802 -0.601034 0
M  V30 16 C -0.739483 4.437132 -1.960853 0
M  V30 17 C -0.562904 3.061337 -2.160532 0
M  V30 18 C -0.326343 2.086834 -1.230180 0
M  V30 19 C -1.202812 -0.531419 1.043718 0
M  V30 20 C -2.418511 0.100018 0.855757 0
M  V30 21 C -3.552033 -0.869274 0.717044 0
M  V30 22 S -2.755130 -2.566304 0.869912 0
M  V30 23 C -1.173988 -1.916535 1.075065 0
M  V30 24 H 4.287992 -6.595144 2.164049 0
M  V30 25 H 1.144094 -5.716336 1.451675 0
M  V30 26 H -0.917627 -4.448651 1.157332 0
M  V30 27 H 3.295931 -1.983248 1.678777 0
M  V30 28 H 0.142545 1.946911 2.124342 0
M  V30 29 H -0.358738 4.239158 1.411081 0
M  V30 30 H -0.778473 5.843792 -0.403724 0
M  V30 31 H -0.920999 5.103488 -2.793416 0
M  V30 32 H -0.628284 2.763718 -3.220015 0
M  V30 33 H -0.204790 1.054856 -1.512358 0
M  V30 34 H -2.713227 1.131080 0.787957 0
M  V30 35 H -4.655536 -0.383488 0.494158 0
M  V30 END ATOM
M  V30 BEGIN BOND
M  V30 1 2 1 2
M  V30 2 1 2 3
M  V30 3 1 2 4
M  V30 4 2 4 5
M  V30 5 1 5 6
M  V30 6 2 6 7
M  V30 7 1 7 8
M  V30 8 2 8 9
M  V30 9 1 8 10
M  V30 10 2 10 11
M  V30 11 1 11 12
M  V30 12 1 12 13
M  V30 13 2 13 14
M  V30 14 1 14 15
M  V30 15 2 15 16
M  V30 16 1 16 17
M  V30 17 2 17 18
M  V30 18 1 11 19
M  V30 19 1 19 20
M  V30 20 2 20 21
M  V30 21 1 21 22
M  V30 22 1 22 23
M  V30 23 1 9 4
M  V30 24 1 18 13
M  V30 25 2 23 19
M  V30 26 1 23 7
M  V30 27 1 3 24
M  V30 28 1 5 25
M  V30 29 1 6 26
M  V30 30 1 9 27
M  V30 31 1 12 28
M  V30 32 1 14 29
M  V30 33 1 15 30
M  V30 34 1 16 31
M  V30 35 1 17 32
M  V30 36 1 18 33
M  V30 37 1 20 34
M  V30 38 1 21 35
M  V30 END BOND
M  V30 END CTAB
M  END
>  <Dataset>  (38) 
ChEMBL_Kinases

>  <Ligand_Instance>  (38) 
nan

>  <PDB_ID>  (38) 
nan

>  <Standardized_SMILES>  (38) 
O=C(O)c1ccc2c(c1)nc(Nc1ccccc1)c1ccsc12

>  <Name>  (38) 
nan

>  <Pocket>  (38) 
nan

>  <ATP_Site>  (38) 
nan

>  <Peripheral>  (38) 
nan

>  <Num_H_Atoms_ProtBoundConf>  (38) 
nan

>  <Num_Resolved_Atoms>  (38) 
nan

>  <Num_Not_Resolved_Atoms>  (38) 
nan

$$$$
CHEMBL3700383
     RDKit          3D

  0  0  0  0  0  0  0  0  0  0999 V3000
M  V30 BEGIN CTAB
M  V30 COUNTS 37 40 0 0 0
M  V30 BEGIN ATOM
M  V30 1 O 4.262632 -4.055133 2.926511 0
M  V30 2 C 3.152783 -3.463663 2.932529 0
M  V30 3 O 2.465848 -3.368099 4.142849 0
M  V30 4 C 2.622232 -2.902746 1.695201 0
M  V30 5 C 3.409315 -3.066087 0.552589 0
M  V30 6 C 2.917192 -2.537684 -0.632382 0
M  V30 7 C 1.694860 -1.884638 -0.637999 0
M  V30 8 C 0.960526 -1.753192 0.521563 0
M  V30 9 C 1.404958 -2.256409 1.707838 0
M  V30 10 N -0.176081 -1.097503 0.298456 0
M  V30 11 C -0.626152 -0.600049 -0.850879 0
M  V30 12 N -1.884942 0.029437 -0.689409 0
M  V30 13 C -2.754932 0.243779 0.422731 0
M  V30 14 C -2.101155 1.082779 1.458775 0
M  V30 15 C -1.380414 0.693394 2.581580 0
M  V30 16 C -0.837730 1.639146 3.424487 0
M  V30 17 C -0.978121 3.008366 3.203748 0
M  V30 18 C -1.697009 3.290846 2.084773 0
M  V30 19 N -2.239592 2.406282 1.241613 0
M  V30 20 C 0.118791 -0.739448 -2.000082 0
M  V30 21 C -0.322178 -0.240744 -3.183079 0
M  V30 22 C 0.662799 -0.522065 -4.277459 0
M  V30 23 S 2.048192 -1.454693 -3.406025 0
M  V30 24 C 1.313316 -1.405701 -1.867578 0
M  V30 25 H 2.567098 -4.085018 4.871939 0
M  V30 26 H 4.360079 -3.577122 0.571209 0
M  V30 27 H 3.518153 -2.655762 -1.532957 0
M  V30 28 H 0.795309 -2.123333 2.564726 0
M  V30 29 H -2.255248 0.428417 -1.603920 0
M  V30 30 H -3.722775 0.688081 0.121717 0
M  V30 31 H -2.995937 -0.729139 0.955420 0
M  V30 32 H -1.310000 -0.367517 2.705235 0
M  V30 33 H -0.294753 1.224880 4.270112 0
M  V30 34 H -0.531535 3.699871 3.896656 0
M  V30 35 H -1.834638 4.364249 1.870945 0
M  V30 36 H -1.193188 0.293718 -3.497161 0
M  V30 37 H 0.459945 -0.163926 -5.401301 0
M  V30 END ATOM
M  V30 BEGIN BOND
M  V30 1 2 1 2
M  V30 2 1 2 3
M  V30 3 1 2 4
M  V30 4 2 4 5
M  V30 5 1 5 6
M  V30 6 2 6 7
M  V30 7 1 7 8
M  V30 8 2 8 9
M  V30 9 1 8 10
M  V30 10 2 10 11
M  V30 11 1 11 12
M  V30 12 1 12 13
M  V30 13 1 13 14
M  V30 14 2 14 15
M  V30 15 1 15 16
M  V30 16 2 16 17
M  V30 17 1 17 18
M  V30 18 2 18 19
M  V30 19 1 11 20
M  V30 20 1 20 21
M  V30 21 2 21 22
M  V30 22 1 22 23
M  V30 23 1 23 24
M  V30 24 1 9 4
M  V30 25 1 19 14
M  V30 26 2 24 20
M  V30 27 1 24 7
M  V30 28 1 3 25
M  V30 29 1 5 26
M  V30 30 1 6 27
M  V30 31 1 9 28
M  V30 32 1 12 29
M  V30 33 1 13 30
M  V30 34 1 13 31
M  V30 35 1 15 32
M  V30 36 1 16 33
M  V30 37 1 17 34
M  V30 38 1 18 35
M  V30 39 1 21 36
M  V30 40 1 22 37
M  V30 END BOND
M  V30 END CTAB
M  END
>  <Dataset>  (39) 
ChEMBL_Kinases

>  <Ligand_Instance>  (39) 
nan

>  <PDB_ID>  (39) 
nan

>  <Standardized_SMILES>  (39) 
O=C(O)c1ccc2c(c1)nc(NCc1ccccn1)c1ccsc12

>  <Name>  (39) 
nan

>  <Pocket>  (39) 
nan

>  <ATP_Site>  (39) 
nan

>  <Peripheral>  (39) 
nan

>  <Num_H_Atoms_ProtBoundConf>  (39) 
nan

>  <Num_Resolved_Atoms>  (39) 
nan

>  <Num_Not_Resolved_Atoms>  (39) 
nan

$$$$
CHEMBL3700382
     RDKit          3D

  0  0  0  0  0  0  0  0  0  0999 V3000
M  V30 BEGIN CTAB
M  V30 COUNTS 39 41 0 0 0
M  V30 BEGIN ATOM
M  V30 1 C -0.566782 -3.420168 0.712227 0
M  V30 2 N -1.007993 -3.523792 -0.659691 0
M  V30 3 C -0.027747 -4.309217 -1.378544 0
M  V30 4 C -1.139801 -2.251327 -1.320268 0
M  V30 5 C -2.251807 -1.391410 -0.815569 0
M  V30 6 N -2.170538 -1.031593 0.574833 0
M  V30 7 C -1.132613 -0.271571 1.175622 0
M  V30 8 N -0.141681 0.161016 0.397348 0
M  V30 9 C 0.915540 0.891841 0.763401 0
M  V30 10 C 1.937929 1.343950 -0.037064 0
M  V30 11 C 2.974668 2.097931 0.463771 0
M  V30 12 C 4.055725 2.577841 -0.378670 0
M  V30 13 O 4.167569 2.338648 -1.609466 0
M  V30 14 O 5.083597 3.354315 0.091449 0
M  V30 15 C 2.990829 2.410877 1.809325 0
M  V30 16 C 1.968717 1.968248 2.652320 0
M  V30 17 C 0.956971 1.223534 2.123736 0
M  V30 18 C -0.036847 0.803473 2.968903 0
M  V30 19 S -0.245441 1.060087 4.690121 0
M  V30 20 C -1.870646 0.078530 4.765090 0
M  V30 21 C -2.064539 -0.336706 3.439639 0
M  V30 22 C -1.151745 0.018469 2.520297 0
M  V30 23 H -1.413279 -3.193334 1.360809 0
M  V30 24 H -0.210302 -4.445373 0.985897 0
M  V30 25 H 0.314264 -2.751503 0.823006 0
M  V30 26 H -0.378143 -5.376418 -1.475116 0
M  V30 27 H 0.138663 -3.919737 -2.407842 0
M  V30 28 H 0.969817 -4.313499 -0.897041 0
M  V30 29 H -0.148284 -1.761142 -1.261442 0
M  V30 30 H -1.290601 -2.478662 -2.395146 0
M  V30 31 H -2.187921 -0.430593 -1.397726 0
M  V30 32 H -3.217308 -1.851747 -1.071281 0
M  V30 33 H -2.966521 -1.372629 1.191250 0
M  V30 34 H 1.881875 1.074025 -1.079711 0
M  V30 35 H 5.471452 4.173302 -0.400681 0
M  V30 36 H 3.804108 2.999591 2.189850 0
M  V30 37 H 2.021710 2.233804 3.690805 0
M  V30 38 H -2.490379 -0.100593 5.661518 0
M  V30 39 H -2.955552 -0.919272 3.280155 0
M  V30 END ATOM
M  V30 BEGIN BOND
M  V30 1 1 1 2
M  V30 2 1 2 3
M  V30 3 1 2 4
M  V30 4 1 4 5
M  V30 5 1 5 6
M  V30 6 1 6 7
M  V30 7 2 7 8
M  V30 8 1 8 9
M  V30 9 2 9 10
M  V30 10 1 10 11
M  V30 11 1 11 12
M  V30 12 2 12 13
M  V30 13 1 12 14
M  V30 14 2 11 15
M  V30 15 1 15 16
M  V30 16 2 16 17
M  V30 17 1 17 18
M  V30 18 1 18 19
M  V30 19 1 19 20
M  V30 20 2 20 21
M  V30 21 1 21 22
M  V30 22 1 22 7
M  V30 23 1 17 9
M  V30 24 2 22 18
M  V30 25 1 1 23
M  V30 26 1 1 24
M  V30 27 1 1 25
M  V30 28 1 3 26
M  V30 29 1 3 27
M  V30 30 1 3 28
M  V30 31 1 4 29
M  V30 32 1 4 30
M  V30 33 1 5 31
M  V30 34 1 5 32
M  V30 35 1 6 33
M  V30 36 1 10 34
M  V30 37 1 14 35
M  V30 38 1 15 36
M  V30 39 1 16 37
M  V30 40 1 20 38
M  V30 41 1 21 39
M  V30 END BOND
M  V30 END CTAB
M  END
>  <Dataset>  (40) 
ChEMBL_Kinases

>  <Ligand_Instance>  (40) 
nan

>  <PDB_ID>  (40) 
nan

>  <Standardized_SMILES>  (40) 
CN(C)CCNc1nc2cc(C(=O)O)ccc2c2sccc12

>  <Name>  (40) 
nan

>  <Pocket>  (40) 
nan

>  <ATP_Site>  (40) 
nan

>  <Peripheral>  (40) 
nan

>  <Num_H_Atoms_ProtBoundConf>  (40) 
nan

>  <Num_Resolved_Atoms>  (40) 
nan

>  <Num_Not_Resolved_Atoms>  (40) 
nan

$$$$
CHEMBL3700381
     RDKit          3D

  0  0  0  0  0  0  0  0  0  0999 V3000
M  V30 BEGIN CTAB
M  V30 COUNTS 32 34 0 0 0
M  V30 BEGIN ATOM
M  V30 1 O 4.608829 -2.141499 3.490789 0
M  V30 2 C 3.449818 -1.639059 3.504492 0
M  V30 3 O 2.918929 -1.164971 4.698303 0
M  V30 4 C 2.695434 -1.570309 2.256086 0
M  V30 5 C 3.311946 -2.070507 1.114837 0
M  V30 6 C 2.615045 -2.019306 -0.098309 0
M  V30 7 C 1.354836 -1.471815 -0.077598 0
M  V30 8 C 0.770766 -0.984847 1.067308 0
M  V30 9 C 1.428576 -1.021308 2.270199 0
M  V30 10 N -0.444539 -0.502965 0.862961 0
M  V30 11 C -1.130946 -0.440643 -0.273952 0
M  V30 12 N -2.428715 0.134421 -0.197233 0
M  V30 13 C -3.004124 0.637182 1.042351 0
M  V30 14 C -2.198065 1.745405 1.661604 0
M  V30 15 O -2.870951 2.122667 2.837299 0
M  V30 16 C -0.571105 -0.920769 -1.436418 0
M  V30 17 C -1.181946 -0.907175 -2.651999 0
M  V30 18 C -0.416128 -1.459646 -3.734428 0
M  V30 19 S 1.201437 -1.985403 -2.899572 0
M  V30 20 C 0.716916 -1.452798 -1.323580 0
M  V30 21 H 3.435973 -1.208469 5.582672 0
M  V30 22 H 4.308512 -2.494260 1.143247 0
M  V30 23 H 3.083232 -2.404890 -0.992890 0
M  V30 24 H 0.940700 -0.633738 3.133089 0
M  V30 25 H -3.017087 0.211467 -1.056019 0
M  V30 26 H -4.033607 0.971402 0.917919 0
M  V30 27 H -3.044001 -0.182009 1.817818 0
M  V30 28 H -1.181791 1.479862 1.951962 0
M  V30 29 H -2.130395 2.631036 0.984250 0
M  V30 30 H -2.593865 1.484171 3.552380 0
M  V30 31 H -2.155350 -0.544682 -2.929972 0
M  V30 32 H -0.740448 -1.540844 -4.810224 0
M  V30 END ATOM
M  V30 BEGIN BOND
M  V30 1 2 1 2
M  V30 2 1 2 3
M  V30 3 1 2 4
M  V30 4 2 4 5
M  V30 5 1 5 6
M  V30 6 2 6 7
M  V30 7 1 7 8
M  V30 8 2 8 9
M  V30 9 1 8 10
M  V30 10 2 10 11
M  V30 11 1 11 12
M  V30 12 1 12 13
M  V30 13 1 13 14
M  V30 14 1 14 15
M  V30 15 1 11 16
M  V30 16 1 16 17
M  V30 17 2 17 18
M  V30 18 1 18 19
M  V30 19 1 19 20
M  V30 20 1 9 4
M  V30 21 2 20 16
M  V30 22 1 20 7
M  V30 23 1 3 21
M  V30 24 1 5 22
M  V30 25 1 6 23
M  V30 26 1 9 24
M  V30 27 1 12 25
M  V30 28 1 13 26
M  V30 29 1 13 27
M  V30 30 1 14 28
M  V30 31 1 14 29
M  V30 32 1 15 30
M  V30 33 1 17 31
M  V30 34 1 18 32
M  V30 END BOND
M  V30 END CTAB
M  END
>  <Dataset>  (41) 
ChEMBL_Kinases

>  <Ligand_Instance>  (41) 
nan

>  <PDB_ID>  (41) 
nan

>  <Standardized_SMILES>  (41) 
O=C(O)c1ccc2c(c1)nc(NCCO)c1ccsc12

>  <Name>  (41) 
nan

>  <Pocket>  (41) 
nan

>  <ATP_Site>  (41) 
nan

>  <Peripheral>  (41) 
nan

>  <Num_H_Atoms_ProtBoundConf>  (41) 
nan

>  <Num_Resolved_Atoms>  (41) 
nan

>  <Num_Not_Resolved_Atoms>  (41) 
nan

$$$$
CHEMBL369989
     RDKit          3D

  0  0  0  0  0  0  0  0  0  0999 V3000
M  V30 BEGIN CTAB
M  V30 COUNTS 63 67 0 0 0
M  V30 BEGIN ATOM
M  V30 1 C 4.407187 1.090562 1.679827 0
M  V30 2 C 3.635429 -0.212838 1.724553 0
M  V30 3 C 3.812882 -0.747840 3.122557 0
M  V30 4 C 2.193754 0.128467 1.454245 0
M  V30 5 C 1.295094 -0.730671 0.995144 0
M  V30 6 C -0.095162 -0.414079 0.731187 0
M  V30 7 C -0.623447 0.839725 0.928399 0
M  V30 8 C -1.924401 1.175068 0.694177 0
M  V30 9 C -2.462378 2.500664 0.907760 0
M  V30 10 C -3.025025 2.986631 2.062632 0
M  V30 11 C -3.512356 4.271692 2.168776 0
M  V30 12 C -3.399363 5.058078 1.022197 0
M  V30 13 F -3.869021 6.335923 1.083769 0
M  V30 14 C -2.840958 4.617162 -0.166785 0
M  V30 15 C -2.369837 3.306800 -0.198993 0
M  V30 16 Cl -1.672876 2.809816 -1.738193 0
M  V30 17 C -2.808310 0.225154 0.226989 0
M  V30 18 C -4.130043 0.533578 -0.019438 0
M  V30 19 C -5.013214 -0.425143 -0.488739 0
M  V30 20 C -4.479959 -1.685037 -0.686280 0
M  V30 21 O -5.234591 -2.606000 -1.113889 0
M  V30 22 N -3.175957 -1.980072 -0.440738 0
M  V30 23 C -2.699339 -3.280477 -0.662895 0
M  V30 24 C -2.242891 -3.692077 -1.913259 0
M  V30 25 Cl -2.253872 -2.571973 -3.264509 0
M  V30 26 C -1.794900 -4.992624 -2.024837 0
M  V30 27 C -1.780249 -5.888109 -0.967145 0
M  V30 28 C -2.241295 -5.451565 0.269946 0
M  V30 29 C -2.697154 -4.151515 0.412521 0
M  V30 30 Cl -3.276521 -3.611566 1.977892 0
M  V30 31 C -2.317126 -1.047123 0.015798 0
M  V30 32 C -0.987585 -1.324516 0.272280 0
M  V30 33 C 1.901711 -2.067612 0.784156 0
M  V30 34 C 3.216863 -1.913284 0.066049 0
M  V30 35 C 3.870817 -3.253710 -0.192731 0
M  V30 36 C 2.904571 -1.292885 -1.298063 0
M  V30 37 N 4.149343 -1.066881 0.712588 0
M  V30 38 H 4.656710 1.484728 2.679333 0
M  V30 39 H 5.375282 0.938574 1.148075 0
M  V30 40 H 3.870187 1.854272 1.056093 0
M  V30 41 H 4.817718 -1.200649 3.175888 0
M  V30 42 H 3.000771 -1.394588 3.479640 0
M  V30 43 H 3.821271 0.127669 3.819088 0
M  V30 44 H 1.868036 1.162431 1.654712 0
M  V30 45 H -0.030274 1.665956 1.291178 0
M  V30 46 H -3.060546 2.293433 2.884537 0
M  V30 47 H -3.950779 4.643596 3.075677 0
M  V30 48 H -2.790927 5.292471 -1.012939 0
M  V30 49 H -4.520820 1.518651 0.141492 0
M  V30 50 H -6.050938 -0.188952 -0.683779 0
M  V30 51 H -1.439264 -5.301414 -3.013803 0
M  V30 52 H -1.419484 -6.915318 -1.082041 0
M  V30 53 H -2.264292 -6.077173 1.137208 0
M  V30 54 H -0.724094 -2.352048 0.070322 0
M  V30 55 H 1.993842 -2.668162 1.713740 0
M  V30 56 H 1.250171 -2.666866 0.119011 0
M  V30 57 H 3.512220 -3.737708 -1.121687 0
M  V30 58 H 4.951539 -3.036884 -0.387605 0
M  V30 59 H 3.848382 -3.918764 0.692797 0
M  V30 60 H 3.686117 -1.520407 -2.054378 0
M  V30 61 H 1.958771 -1.678156 -1.730946 0
M  V30 62 H 2.772814 -0.180059 -1.218893 0
M  V30 63 H 4.752303 -0.548926 0.050625 0
M  V30 END ATOM
M  V30 BEGIN BOND
M  V30 1 1 1 2
M  V30 2 1 2 3
M  V30 3 1 2 4
M  V30 4 2 4 5
M  V30 5 1 5 6
M  V30 6 2 6 7
M  V30 7 1 7 8
M  V30 8 1 8 9
M  V30 9 2 9 10
M  V30 10 1 10 11
M  V30 11 2 11 12
M  V30 12 1 12 13
M  V30 13 1 12 14
M  V30 14 2 14 15
M  V30 15 1 15 16
M  V30 16 2 8 17
M  V30 17 1 17 18
M  V30 18 2 18 19
M  V30 19 1 19 20
M  V30 20 2 20 21
M  V30 21 1 20 22
M  V30 22 1 22 23
M  V30 23 2 23 24
M  V30 24 1 24 25
M  V30 25 1 24 26
M  V30 26 2 26 27
M  V30 27 1 27 28
M  V30 28 2 28 29
M  V30 29 1 29 30
M  V30 30 1 22 31
M  V30 31 2 31 32
M  V30 32 1 5 33
M  V30 33 1 33 34
M  V30 34 1 34 35
M  V30 35 1 34 36
M  V30 36 1 34 37
M  V30 37 1 37 2
M  V30 38 1 32 6
M  V30 39 1 15 9
M  V30 40 1 31 17
M  V30 41 1 29 23
M  V30 42 1 1 38
M  V30 43 1 1 39
M  V30 44 1 1 40
M  V30 45 1 3 41
M  V30 46 1 3 42
M  V30 47 1 3 43
M  V30 48 1 4 44
M  V30 49 1 7 45
M  V30 50 1 10 46
M  V30 51 1 11 47
M  V30 52 1 14 48
M  V30 53 1 18 49
M  V30 54 1 19 50
M  V30 55 1 26 51
M  V30 56 1 27 52
M  V30 57 1 28 53
M  V30 58 1 32 54
M  V30 59 1 33 55
M  V30 60 1 33 56
M  V30 61 1 35 57
M  V30 62 1 35 58
M  V30 63 1 35 59
M  V30 64 1 36 60
M  V30 65 1 36 61
M  V30 66 1 36 62
M  V30 67 1 37 63
M  V30 END BOND
M  V30 END CTAB
M  END
>  <Dataset>  (42) 
ChEMBL_Kinases

>  <Ligand_Instance>  (42) 
nan

>  <PDB_ID>  (42) 
nan

>  <Standardized_SMILES>  (42) 
CC1(C)C=C(c2cc(-c3ccc(F)cc3Cl)c3ccc(=O)n(-c4c(Cl)cccc4Cl)c3c2)CC(C)(C)N1

>  <Name>  (42) 
nan

>  <Pocket>  (42) 
nan

>  <ATP_Site>  (42) 
nan

>  <Peripheral>  (42) 
nan

>  <Num_H_Atoms_ProtBoundConf>  (42) 
nan

>  <Num_Resolved_Atoms>  (42) 
nan

>  <Num_Not_Resolved_Atoms>  (42) 
nan

$$$$
CHEMBL3700435
     RDKit          3D

  0  0  0  0  0  0  0  0  0  0999 V3000
M  V30 BEGIN CTAB
M  V30 COUNTS 40 43 0 0 0
M  V30 BEGIN ATOM
M  V30 1 O 5.047142 -3.568636 -2.654567 0
M  V30 2 C 4.787025 -4.104474 -1.544459 0
M  V30 3 O 5.546191 -5.193988 -1.130518 0
M  V30 4 C 3.716019 -3.620683 -0.674870 0
M  V30 5 C 3.466754 -4.224896 0.537463 0
M  V30 6 C 2.460778 -3.806451 1.398424 0
M  V30 7 C 1.722382 -2.738783 0.956310 0
M  V30 8 C 1.903331 -2.080450 -0.235808 0
M  V30 9 C 2.930781 -2.532354 -1.078300 0
M  V30 10 N 1.128672 -1.040069 -0.621252 0
M  V30 11 C 0.140881 -0.577644 0.118551 0
M  V30 12 N -0.753604 0.482401 -0.147251 0
M  V30 13 C -1.054388 1.762611 0.375635 0
M  V30 14 C -0.288560 2.478945 1.253402 0
M  V30 15 C -0.740078 3.714250 1.719099 0
M  V30 16 C -1.976515 4.166245 1.255098 0
M  V30 17 Cl -2.570018 5.722635 1.846549 0
M  V30 18 C -2.769313 3.455727 0.362733 0
M  V30 19 C -4.082604 4.046060 -0.050527 0
M  V30 20 F -4.695740 3.175873 -0.922872 0
M  V30 21 F -3.897335 5.285631 -0.576624 0
M  V30 22 F -4.861461 4.084035 1.118250 0
M  V30 23 C -2.289581 2.239917 -0.073313 0
M  V30 24 C -0.073093 -1.222736 1.345354 0
M  V30 25 C -1.071679 -0.823752 2.217962 0
M  V30 26 C -1.333350 -1.407565 3.442563 0
M  V30 27 N -0.537467 -2.456269 3.806890 0
M  V30 28 C 0.449646 -2.866860 2.969215 0
M  V30 29 C 0.708960 -2.291872 1.759436 0
M  V30 30 H 6.129048 -5.754507 -1.765890 0
M  V30 31 H 4.106919 -5.052763 0.781185 0
M  V30 32 H 2.378485 -4.353542 2.290498 0
M  V30 33 H 3.084760 -2.026009 -2.009917 0
M  V30 34 H -1.233335 0.055438 -0.994359 0
M  V30 35 H 0.664744 2.007106 1.531986 0
M  V30 36 H -0.117240 4.247006 2.410735 0
M  V30 37 H -2.934424 1.704439 -0.785390 0
M  V30 38 H -1.721198 0.004036 1.975677 0
M  V30 39 H -2.126153 -1.061963 4.096216 0
M  V30 40 H 0.958097 -3.674531 3.402515 0
M  V30 END ATOM
M  V30 BEGIN BOND
M  V30 1 2 1 2
M  V30 2 1 2 3
M  V30 3 1 2 4
M  V30 4 2 4 5
M  V30 5 1 5 6
M  V30 6 2 6 7
M  V30 7 1 7 8
M  V30 8 2 8 9
M  V30 9 1 8 10
M  V30 10 2 10 11
M  V30 11 1 11 12
M  V30 12 1 12 13
M  V30 13 2 13 14
M  V30 14 1 14 15
M  V30 15 2 15 16
M  V30 16 1 16 17
M  V30 17 1 16 18
M  V30 18 1 18 19
M  V30 19 1 19 20
M  V30 20 1 19 21
M  V30 21 1 19 22
M  V30 22 2 18 23
M  V30 23 1 11 24
M  V30 24 2 24 25
M  V30 25 1 25 26
M  V30 26 2 26 27
M  V30 27 1 27 28
M  V30 28 2 28 29
M  V30 29 1 9 4
M  V30 30 1 23 13
M  V30 31 1 29 24
M  V30 32 1 29 7
M  V30 33 1 3 30
M  V30 34 1 5 31
M  V30 35 1 6 32
M  V30 36 1 9 33
M  V30 37 1 12 34
M  V30 38 1 14 35
M  V30 39 1 15 36
M  V30 40 1 23 37
M  V30 41 1 25 38
M  V30 42 1 26 39
M  V30 43 1 28 40
M  V30 END BOND
M  V30 END CTAB
M  END
>  <Dataset>  (43) 
ChEMBL_Kinases

>  <Ligand_Instance>  (43) 
nan

>  <PDB_ID>  (43) 
nan

>  <Standardized_SMILES>  (43) 
O=C(O)c1ccc2c(c1)nc(Nc1ccc(Cl)c(C(F)(F)F)c1)c1ccncc12

>  <Name>  (43) 
nan

>  <Pocket>  (43) 
nan

>  <ATP_Site>  (43) 
nan

>  <Peripheral>  (43) 
nan

>  <Num_H_Atoms_ProtBoundConf>  (43) 
nan

>  <Num_Resolved_Atoms>  (43) 
nan

>  <Num_Not_Resolved_Atoms>  (43) 
nan

$$$$
CHEMBL3699796
     RDKit          3D

  0  0  0  0  0  0  0  0  0  0999 V3000
M  V30 BEGIN CTAB
M  V30 COUNTS 56 59 0 0 0
M  V30 BEGIN ATOM
M  V30 1 C 2.857742 -3.824675 5.637396 0
M  V30 2 N 2.901920 -3.408327 4.215935 0
M  V30 3 C 3.830994 -2.298195 4.191404 0
M  V30 4 C 1.561049 -3.060501 3.890359 0
M  V30 5 C 1.229739 -2.672896 2.521072 0 CFG=1
M  V30 6 C 1.911083 -1.480067 1.930656 0
M  V30 7 N 1.398809 -1.605554 0.545493 0
M  V30 8 C 0.871506 -0.580328 -0.233668 0
M  V30 9 O 0.793219 0.585965 0.232016 0
M  V30 10 C 0.344717 -0.575776 -1.595687 0
M  V30 11 C -0.136781 0.775415 -2.010121 0
M  V30 12 N -1.431487 1.022766 -1.753955 0
M  V30 13 C -2.001490 2.193041 -2.067206 0
M  V30 14 N -3.366387 2.411567 -1.781321 0
M  V30 15 C -4.142130 3.614312 -2.008244 0
M  V30 16 C -4.949035 3.808786 -0.716129 0
M  V30 17 O -6.009054 2.912987 -0.786506 0
M  V30 18 C -5.644026 1.673560 -1.241410 0
M  V30 19 C -4.172014 1.384244 -1.196711 0
M  V30 20 C -1.257592 3.204917 -2.677711 0
M  V30 21 C 0.067851 2.902362 -2.920284 0
M  V30 22 O 0.831881 3.758379 -3.473998 0
M  V30 23 N 0.621413 1.711974 -2.594428 0
M  V30 24 C 1.588526 -2.985689 0.257972 0
M  V30 25 C 1.829465 -3.617282 -0.965388 0
M  V30 26 C 1.984856 -4.979559 -0.985746 0
M  V30 27 C 1.899437 -5.691054 0.200646 0
M  V30 28 C 1.660777 -5.040824 1.391756 0
M  V30 29 C 1.497816 -3.684290 1.470331 0
M  V30 30 H 2.872510 -2.890739 6.221000 0
M  V30 31 H 1.894658 -4.349944 5.826988 0
M  V30 32 H 3.730694 -4.421885 5.901460 0
M  V30 33 H 3.277028 -1.357825 4.128982 0
M  V30 34 H 4.428789 -2.280494 5.151853 0
M  V30 35 H 4.580465 -2.383850 3.377022 0
M  V30 36 H 0.823166 -3.840869 4.216144 0
M  V30 37 H 1.304073 -2.177237 4.553683 0
M  V30 38 H 0.135111 -2.458376 2.475678 0
M  V30 39 H 3.021047 -1.619917 1.777756 0
M  V30 40 H 1.666157 -0.518886 2.381040 0
M  V30 41 H 1.177066 -0.798822 -2.326081 0
M  V30 42 H -0.406716 -1.374771 -1.760519 0
M  V30 43 H -3.505024 4.515328 -2.096821 0
M  V30 44 H -4.894382 3.514791 -2.810513 0
M  V30 45 H -4.250162 3.567178 0.112394 0
M  V30 46 H -5.337025 4.845968 -0.645098 0
M  V30 47 H -6.164986 0.910304 -0.615767 0
M  V30 48 H -6.061113 1.512684 -2.278822 0
M  V30 49 H -3.832750 1.204543 -0.174827 0
M  V30 50 H -4.019364 0.434903 -1.784919 0
M  V30 51 H -1.684840 4.171046 -2.948098 0
M  V30 52 H 1.617607 1.453563 -2.764691 0
M  V30 53 H 1.888227 -3.020031 -1.876595 0
M  V30 54 H 2.171519 -5.519449 -1.893100 0
M  V30 55 H 2.022218 -6.779940 0.195597 0
M  V30 56 H 1.596729 -5.598397 2.302577 0
M  V30 END ATOM
M  V30 BEGIN BOND
M  V30 1 1 1 2
M  V30 2 1 2 3
M  V30 3 1 2 4
M  V30 4 1 4 5
M  V30 5 1 5 6
M  V30 6 1 6 7
M  V30 7 1 7 8
M  V30 8 2 8 9
M  V30 9 1 8 10
M  V30 10 1 10 11
M  V30 11 2 11 12
M  V30 12 1 12 13
M  V30 13 1 13 14
M  V30 14 1 14 15
M  V30 15 1 15 16
M  V30 16 1 16 17
M  V30 17 1 17 18
M  V30 18 1 18 19
M  V30 19 2 13 20
M  V30 20 1 20 21
M  V30 21 2 21 22
M  V30 22 1 21 23
M  V30 23 1 7 24
M  V30 24 2 24 25
M  V30 25 1 25 26
M  V30 26 2 26 27
M  V30 27 1 27 28
M  V30 28 2 28 29
M  V30 29 1 29 5
M  V30 30 1 23 11
M  V30 31 1 29 24
M  V30 32 1 19 14
M  V30 33 1 1 30
M  V30 34 1 1 31
M  V30 35 1 1 32
M  V30 36 1 3 33
M  V30 37 1 3 34
M  V30 38 1 3 35
M  V30 39 1 4 36
M  V30 40 1 4 37
M  V30 41 1 5 38 CFG=1
M  V30 42 1 6 39
M  V30 43 1 6 40
M  V30 44 1 10 41
M  V30 45 1 10 42
M  V30 46 1 15 43
M  V30 47 1 15 44
M  V30 48 1 16 45
M  V30 49 1 16 46
M  V30 50 1 18 47
M  V30 51 1 18 48
M  V30 52 1 19 49
M  V30 53 1 19 50
M  V30 54 1 20 51
M  V30 55 1 23 52
M  V30 56 1 25 53
M  V30 57 1 26 54
M  V30 58 1 27 55
M  V30 59 1 28 56
M  V30 END BOND
M  V30 END CTAB
M  END
>  <Dataset>  (44) 
ChEMBL_Kinases

>  <Ligand_Instance>  (44) 
nan

>  <PDB_ID>  (44) 
nan

>  <Standardized_SMILES>  (44) 
CN(C)C[C@H]1CN(C(=O)Cc2nc(N3CCOCC3)cc(=O)[nH]2)c2ccccc21

>  <Name>  (44) 
nan

>  <Pocket>  (44) 
nan

>  <ATP_Site>  (44) 
nan

>  <Peripheral>  (44) 
nan

>  <Num_H_Atoms_ProtBoundConf>  (44) 
nan

>  <Num_Resolved_Atoms>  (44) 
nan

>  <Num_Not_Resolved_Atoms>  (44) 
nan

$$$$
CHEMBL3699797
     RDKit          3D

  0  0  0  0  0  0  0  0  0  0999 V3000
M  V30 BEGIN CTAB
M  V30 COUNTS 52 54 0 0 0
M  V30 BEGIN ATOM
M  V30 1 C 4.239405 -0.614277 5.735482 0
M  V30 2 O 4.975129 -0.821181 4.549310 0
M  V30 3 C 4.121839 -0.363184 3.523200 0
M  V30 4 C 4.729642 -0.504403 2.174816 0
M  V30 5 O 3.922159 -0.064333 1.125140 0
M  V30 6 C 3.420498 1.160127 0.849783 0
M  V30 7 C 3.467245 2.416057 1.402604 0
M  V30 8 C 2.835413 3.513032 0.882735 0
M  V30 9 F 3.023130 4.662818 1.605590 0
M  V30 10 C 2.101801 3.388465 -0.259534 0
M  V30 11 C 2.002212 2.163334 -0.879941 0
M  V30 12 C 2.658752 1.055843 -0.326756 0
M  V30 13 N 2.417959 -0.115994 -1.135829 0
M  V30 14 C 1.242383 -0.741526 -0.635083 0
M  V30 15 O 0.269111 -0.811902 0.170605 0
M  V30 16 C 0.643083 -1.997102 -1.198769 0
M  V30 17 C -0.568315 -2.309591 -0.397206 0
M  V30 18 N -1.744053 -1.809810 -0.763900 0
M  V30 19 C -2.893851 -2.036113 -0.104323 0
M  V30 20 N -4.126368 -1.477497 -0.536790 0
M  V30 21 C -5.421455 -1.657448 0.084384 0
M  V30 22 C -6.341730 -2.168431 -1.024928 0
M  V30 23 O -6.300665 -1.333285 -2.115938 0
M  V30 24 C -5.048600 -1.272234 -2.727774 0
M  V30 25 C -4.119500 -0.637200 -1.716117 0
M  V30 26 C -2.762798 -2.842404 1.005278 0
M  V30 27 C -1.527374 -3.363510 1.384950 0
M  V30 28 O -1.493325 -4.099246 2.423001 0
M  V30 29 N -0.410921 -3.099952 0.682143 0
M  V30 30 H 3.977618 0.450218 5.890625 0
M  V30 31 H 3.262966 -1.169633 5.709139 0
M  V30 32 H 4.778521 -1.061220 6.616886 0
M  V30 33 H 3.889797 0.675080 3.806902 0
M  V30 34 H 3.200602 -0.971025 3.641655 0
M  V30 35 H 4.856941 -1.618386 2.003632 0
M  V30 36 H 5.769739 -0.109510 2.117020 0
M  V30 37 H 4.065060 2.430594 2.284594 0
M  V30 38 H 1.617502 4.294055 -0.632929 0
M  V30 39 H 1.402588 2.167780 -1.772631 0
M  V30 40 H 2.817092 -0.621737 -1.932901 0
M  V30 41 H 0.315089 -1.796075 -2.231177 0
M  V30 42 H 1.366333 -2.831788 -1.182888 0
M  V30 43 H -5.814904 -0.655408 0.357251 0
M  V30 44 H -5.397015 -2.356399 0.918569 0
M  V30 45 H -7.369050 -2.119002 -0.620773 0
M  V30 46 H -6.049861 -3.203288 -1.262096 0
M  V30 47 H -4.634647 -2.252239 -2.982824 0
M  V30 48 H -5.165253 -0.613297 -3.613500 0
M  V30 49 H -4.595436 0.320646 -1.408054 0
M  V30 50 H -3.093892 -0.479732 -2.107661 0
M  V30 51 H -3.623242 -3.080559 1.596707 0
M  V30 52 H 0.476988 -3.514670 1.012009 0
M  V30 END ATOM
M  V30 BEGIN BOND
M  V30 1 1 1 2
M  V30 2 1 2 3
M  V30 3 1 3 4
M  V30 4 1 4 5
M  V30 5 1 5 6
M  V30 6 2 6 7
M  V30 7 1 7 8
M  V30 8 1 8 9
M  V30 9 2 8 10
M  V30 10 1 10 11
M  V30 11 2 11 12
M  V30 12 1 12 13
M  V30 13 1 13 14
M  V30 14 2 14 15
M  V30 15 1 14 16
M  V30 16 1 16 17
M  V30 17 2 17 18
M  V30 18 1 18 19
M  V30 19 1 19 20
M  V30 20 1 20 21
M  V30 21 1 21 22
M  V30 22 1 22 23
M  V30 23 1 23 24
M  V30 24 1 24 25
M  V30 25 2 19 26
M  V30 26 1 26 27
M  V30 27 2 27 28
M  V30 28 1 27 29
M  V30 29 1 12 6
M  V30 30 1 29 17
M  V30 31 1 25 20
M  V30 32 1 1 30
M  V30 33 1 1 31
M  V30 34 1 1 32
M  V30 35 1 3 33
M  V30 36 1 3 34
M  V30 37 1 4 35
M  V30 38 1 4 36
M  V30 39 1 7 37
M  V30 40 1 10 38
M  V30 41 1 11 39
M  V30 42 1 13 40
M  V30 43 1 16 41
M  V30 44 1 16 42
M  V30 45 1 21 43
M  V30 46 1 21 44
M  V30 47 1 22 45
M  V30 48 1 22 46
M  V30 49 1 24 47
M  V30 50 1 24 48
M  V30 51 1 25 49
M  V30 52 1 25 50
M  V30 53 1 26 51
M  V30 54 1 29 52
M  V30 END BOND
M  V30 END CTAB
M  END
>  <Dataset>  (45) 
ChEMBL_Kinases

>  <Ligand_Instance>  (45) 
nan

>  <PDB_ID>  (45) 
nan

>  <Standardized_SMILES>  (45) 
COCCOc1cc(F)ccc1NC(=O)Cc1nc(N2CCOCC2)cc(=O)[nH]1

>  <Name>  (45) 
nan

>  <Pocket>  (45) 
nan

>  <ATP_Site>  (45) 
nan

>  <Peripheral>  (45) 
nan

>  <Num_H_Atoms_ProtBoundConf>  (45) 
nan

>  <Num_Resolved_Atoms>  (45) 
nan

>  <Num_Not_Resolved_Atoms>  (45) 
nan

$$$$
CHEMBL3699798
     RDKit          3D

  0  0  0  0  0  0  0  0  0  0999 V3000
M  V30 BEGIN CTAB
M  V30 COUNTS 44 47 0 0 0
M  V30 BEGIN ATOM
M  V30 1 O 2.001213 -2.458632 1.283552 0
M  V30 2 C 1.191049 -2.221131 2.196920 0
M  V30 3 C 1.545423 -1.619928 3.533045 0
M  V30 4 C 1.599412 -0.114970 3.360298 0
M  V30 5 N 1.719927 0.303892 2.106454 0
M  V30 6 C 1.755502 1.590637 1.688590 0
M  V30 7 N 1.889611 1.834801 0.277322 0
M  V30 8 C 1.476880 2.837449 -0.643255 0
M  V30 9 C 0.736065 2.166450 -1.813126 0
M  V30 10 O 1.551904 1.232952 -2.426472 0
M  V30 11 C 2.803949 1.145004 -1.844567 0
M  V30 12 C 2.658074 0.809120 -0.409051 0
M  V30 13 C 1.654829 2.515655 2.692376 0
M  V30 14 C 1.532466 2.109837 3.994406 0
M  V30 15 O 1.439028 2.904766 4.957063 0
M  V30 16 N 1.506458 0.814973 4.314257 0
M  V30 17 N -0.222287 -2.490987 2.099101 0
M  V30 18 C -0.843403 -3.060831 0.933190 0
M  V30 19 C -0.356550 -4.012706 0.079760 0
M  V30 20 C -1.094172 -4.404715 -1.030796 0
M  V30 21 C -2.333169 -3.846730 -1.303417 0
M  V30 22 C -2.865409 -2.882082 -0.470489 0
M  V30 23 N -4.006290 -2.149249 -0.452231 0
M  V30 24 C -3.982096 -1.340034 0.613262 0
M  V30 25 N -2.838487 -1.538272 1.291976 0
M  V30 26 C -2.109538 -2.493017 0.652140 0
M  V30 27 H 2.552911 -1.982807 3.785716 0
M  V30 28 H 0.855831 -1.867914 4.331025 0
M  V30 29 H 0.757521 3.577493 -0.235811 0
M  V30 30 H 2.331976 3.374448 -1.094362 0
M  V30 31 H -0.148659 1.623034 -1.438151 0
M  V30 32 H 0.370286 2.921931 -2.528997 0
M  V30 33 H 3.294413 0.259120 -2.357805 0
M  V30 34 H 3.458292 1.999223 -2.009572 0
M  V30 35 H 3.671701 0.735211 0.061266 0
M  V30 36 H 2.073943 -0.127301 -0.290158 0
M  V30 37 H 1.675074 3.545874 2.425498 0
M  V30 38 H 1.415772 0.418456 5.291126 0
M  V30 39 H -0.872361 -2.275396 2.918909 0
M  V30 40 H 0.614332 -4.406787 0.338171 0
M  V30 41 H -0.682043 -5.168759 -1.693484 0
M  V30 42 H -2.928636 -4.137781 -2.153798 0
M  V30 43 H -4.787936 -2.192986 -1.148829 0
M  V30 44 H -4.664922 -0.598130 0.996536 0
M  V30 END ATOM
M  V30 BEGIN BOND
M  V30 1 2 1 2
M  V30 2 1 2 3
M  V30 3 1 3 4
M  V30 4 2 4 5
M  V30 5 1 5 6
M  V30 6 1 6 7
M  V30 7 1 7 8
M  V30 8 1 8 9
M  V30 9 1 9 10
M  V30 10 1 10 11
M  V30 11 1 11 12
M  V30 12 2 6 13
M  V30 13 1 13 14
M  V30 14 2 14 15
M  V30 15 1 14 16
M  V30 16 1 2 17
M  V30 17 1 17 18
M  V30 18 2 18 19
M  V30 19 1 19 20
M  V30 20 2 20 21
M  V30 21 1 21 22
M  V30 22 1 22 23
M  V30 23 1 23 24
M  V30 24 2 24 25
M  V30 25 1 25 26
M  V30 26 1 16 4
M  V30 27 1 26 18
M  V30 28 1 12 7
M  V30 29 2 26 22
M  V30 30 1 3 27
M  V30 31 1 3 28
M  V30 32 1 8 29
M  V30 33 1 8 30
M  V30 34 1 9 31
M  V30 35 1 9 32
M  V30 36 1 11 33
M  V30 37 1 11 34
M  V30 38 1 12 35
M  V30 39 1 12 36
M  V30 40 1 13 37
M  V30 41 1 16 38
M  V30 42 1 17 39
M  V30 43 1 19 40
M  V30 44 1 20 41
M  V30 45 1 21 42
M  V30 46 1 23 43
M  V30 47 1 24 44
M  V30 END BOND
M  V30 END CTAB
M  END
>  <Dataset>  (46) 
ChEMBL_Kinases

>  <Ligand_Instance>  (46) 
nan

>  <PDB_ID>  (46) 
nan

>  <Standardized_SMILES>  (46) 
O=C(Cc1nc(N2CCOCC2)cc(=O)[nH]1)Nc1cccc2[nH]cnc12

>  <Name>  (46) 
nan

>  <Pocket>  (46) 
nan

>  <ATP_Site>  (46) 
nan

>  <Peripheral>  (46) 
nan

>  <Num_H_Atoms_ProtBoundConf>  (46) 
nan

>  <Num_Resolved_Atoms>  (46) 
nan

>  <Num_Not_Resolved_Atoms>  (46) 
nan

$$$$
CHEMBL3699799
     RDKit          3D

  0  0  0  0  0  0  0  0  0  0999 V3000
M  V30 BEGIN CTAB
M  V30 COUNTS 48 50 0 0 0
M  V30 BEGIN ATOM
M  V30 1 C 5.635373 -6.459479 0.142761 0
M  V30 2 O 5.320999 -5.092819 0.399802 0
M  V30 3 C 4.370753 -4.405871 -0.342845 0
M  V30 4 O 3.740753 -4.959968 -1.280632 0
M  V30 5 C 4.066728 -3.005999 -0.059807 0
M  V30 6 C 4.698696 -2.303691 0.945360 0
M  V30 7 C 4.432629 -0.981196 1.236072 0
M  V30 8 C 3.472828 -0.311314 0.475600 0
M  V30 9 C 2.837420 -1.015531 -0.534205 0
M  V30 10 N 1.857347 -0.257089 -1.277576 0
M  V30 11 C 0.551204 -0.342983 -0.713753 0
M  V30 12 O 0.245523 -0.997194 0.317045 0
M  V30 13 C -0.525125 0.418134 -1.428270 0
M  V30 14 C -1.831623 0.251051 -0.749376 0
M  V30 15 N -2.117604 1.148713 0.199029 0
M  V30 16 C -3.271969 1.101626 0.884836 0
M  V30 17 N -3.565382 2.062358 1.892051 0
M  V30 18 C -4.770907 2.120397 2.698924 0
M  V30 19 C -4.292726 1.778247 4.116280 0
M  V30 20 O -2.935781 1.952263 4.269839 0
M  V30 21 C -2.426041 3.096806 3.696443 0
M  V30 22 C -2.595043 3.103763 2.175064 0
M  V30 23 C -4.145564 0.090432 0.568641 0
M  V30 24 C -3.810903 -0.819573 -0.420941 0
M  V30 25 O -4.588649 -1.770700 -0.746002 0
M  V30 26 N -2.666187 -0.757669 -1.088002 0
M  V30 27 C 3.124866 -2.346800 -0.805256 0
M  V30 28 O 2.423775 -2.941384 -1.838983 0
M  V30 29 H 6.270890 -6.842316 0.958938 0
M  V30 30 H 4.682235 -7.062183 0.196926 0
M  V30 31 H 6.050003 -6.607712 -0.858418 0
M  V30 32 H 5.453558 -2.820779 1.547826 0
M  V30 33 H 4.988098 -0.520066 2.050595 0
M  V30 34 H 3.263933 0.725418 0.703106 0
M  V30 35 H 2.031982 0.311866 -2.142878 0
M  V30 36 H -0.605340 0.007700 -2.456505 0
M  V30 37 H -0.238798 1.478749 -1.502926 0
M  V30 38 H -5.157707 3.180977 2.690686 0
M  V30 39 H -5.568981 1.455180 2.376360 0
M  V30 40 H -4.923193 2.263309 4.874664 0
M  V30 41 H -4.473487 0.667305 4.205315 0
M  V30 42 H -1.340187 3.108965 3.895476 0
M  V30 43 H -2.873946 4.008986 4.163696 0
M  V30 44 H -3.109212 4.072395 1.921726 0
M  V30 45 H -1.654146 3.011933 1.632866 0
M  V30 46 H -5.080708 -0.022973 1.059753 0
M  V30 47 H -2.411165 -1.441063 -1.833403 0
M  V30 48 H 2.204807 -2.497432 -2.721175 0
M  V30 END ATOM
M  V30 BEGIN BOND
M  V30 1 1 1 2
M  V30 2 1 2 3
M  V30 3 2 3 4
M  V30 4 1 3 5
M  V30 5 2 5 6
M  V30 6 1 6 7
M  V30 7 2 7 8
M  V30 8 1 8 9
M  V30 9 1 9 10
M  V30 10 1 10 11
M  V30 11 2 11 12
M  V30 12 1 11 13
M  V30 13 1 13 14
M  V30 14 2 14 15
M  V30 15 1 15 16
M  V30 16 1 16 17
M  V30 17 1 17 18
M  V30 18 1 18 19
M  V30 19 1 19 20
M  V30 20 1 20 21
M  V30 21 1 21 22
M  V30 22 2 16 23
M  V30 23 1 23 24
M  V30 24 2 24 25
M  V30 25 1 24 26
M  V30 26 2 9 27
M  V30 27 1 27 28
M  V30 28 1 27 5
M  V30 29 1 26 14
M  V30 30 1 22 17
M  V30 31 1 1 29
M  V30 32 1 1 30
M  V30 33 1 1 31
M  V30 34 1 6 32
M  V30 35 1 7 33
M  V30 36 1 8 34
M  V30 37 1 10 35
M  V30 38 1 13 36
M  V30 39 1 13 37
M  V30 40 1 18 38
M  V30 41 1 18 39
M  V30 42 1 19 40
M  V30 43 1 19 41
M  V30 44 1 21 42
M  V30 45 1 21 43
M  V30 46 1 22 44
M  V30 47 1 22 45
M  V30 48 1 23 46
M  V30 49 1 26 47
M  V30 50 1 28 48
M  V30 END BOND
M  V30 END CTAB
M  END
>  <Dataset>  (47) 
ChEMBL_Kinases

>  <Ligand_Instance>  (47) 
nan

>  <PDB_ID>  (47) 
nan

>  <Standardized_SMILES>  (47) 
COC(=O)c1cccc(NC(=O)Cc2nc(N3CCOCC3)cc(=O)[nH]2)c1O

>  <Name>  (47) 
nan

>  <Pocket>  (47) 
nan

>  <ATP_Site>  (47) 
nan

>  <Peripheral>  (47) 
nan

>  <Num_H_Atoms_ProtBoundConf>  (47) 
nan

>  <Num_Resolved_Atoms>  (47) 
nan

>  <Num_Not_Resolved_Atoms>  (47) 
nan

$$$$
CHEMBL3699800
     RDKit          3D

  0  0  0  0  0  0  0  0  0  0999 V3000
M  V30 BEGIN CTAB
M  V30 COUNTS 42 44 0 0 0
M  V30 BEGIN ATOM
M  V30 1 O -0.084114 -3.655066 3.724763 0
M  V30 2 C 0.406959 -2.781289 2.901487 0
M  V30 3 C 1.864654 -2.645960 2.994201 0
M  V30 4 C 2.355578 -1.322384 2.636523 0
M  V30 5 N 2.064397 -0.721045 1.472636 0
M  V30 6 C 2.528121 0.458001 1.044613 0
M  V30 7 N 1.974001 0.826868 -0.239411 0
M  V30 8 C 0.612830 0.426484 -0.541075 0
M  V30 9 C -0.016937 1.152617 -1.689990 0
M  V30 10 O 0.737268 2.247732 -2.078506 0
M  V30 11 C 2.005663 1.766666 -2.467697 0
M  V30 12 C 2.814925 1.576275 -1.179578 0
M  V30 13 C 3.391384 1.175570 1.833880 0
M  V30 14 C 3.726906 0.599547 3.056992 0
M  V30 15 O 4.510421 1.251740 3.770618 0
M  V30 16 N 3.217665 -0.611638 3.429222 0
M  V30 17 N -0.558361 -2.164589 2.109961 0
M  V30 18 C -1.833514 -1.895830 1.596835 0
M  V30 19 C -2.778616 -1.079913 2.174403 0
M  V30 20 C -3.962402 -0.916795 1.485727 0
M  V30 21 C -4.146419 -1.553567 0.290937 0
M  V30 22 C -3.232324 -2.380759 -0.332575 0
M  V30 23 Br -3.638559 -3.186011 -2.013477 0
M  V30 24 C -2.050809 -2.538476 0.364334 0
M  V30 25 O -1.119270 -3.371614 -0.256751 0
M  V30 26 H 2.347343 -3.388507 2.329226 0
M  V30 27 H 2.205522 -2.879970 4.044944 0
M  V30 28 H -0.004993 0.554582 0.402001 0
M  V30 29 H 0.639662 -0.643564 -0.769957 0
M  V30 30 H -0.242835 0.433271 -2.509929 0
M  V30 31 H -1.012187 1.539610 -1.336643 0
M  V30 32 H 2.471821 2.495416 -3.118853 0
M  V30 33 H 1.911558 0.791474 -2.995437 0
M  V30 34 H 3.073489 2.573538 -0.821918 0
M  V30 35 H 3.708369 0.995230 -1.487683 0
M  V30 36 H 3.700284 2.094980 1.389246 0
M  V30 37 H 3.508552 -1.007636 4.365252 0
M  V30 38 H -0.027612 -1.463887 1.548474 0
M  V30 39 H -2.575226 -0.613004 3.122401 0
M  V30 40 H -4.737760 -0.290488 1.894825 0
M  V30 41 H -5.086223 -1.394321 -0.196894 0
M  V30 42 H -0.804322 -4.245830 0.084585 0
M  V30 END ATOM
M  V30 BEGIN BOND
M  V30 1 2 1 2
M  V30 2 1 2 3
M  V30 3 1 3 4
M  V30 4 2 4 5
M  V30 5 1 5 6
M  V30 6 1 6 7
M  V30 7 1 7 8
M  V30 8 1 8 9
M  V30 9 1 9 10
M  V30 10 1 10 11
M  V30 11 1 11 12
M  V30 12 2 6 13
M  V30 13 1 13 14
M  V30 14 2 14 15
M  V30 15 1 14 16
M  V30 16 1 2 17
M  V30 17 1 17 18
M  V30 18 2 18 19
M  V30 19 1 19 20
M  V30 20 2 20 21
M  V30 21 1 21 22
M  V30 22 1 22 23
M  V30 23 2 22 24
M  V30 24 1 24 25
M  V30 25 1 16 4
M  V30 26 1 24 18
M  V30 27 1 12 7
M  V30 28 1 3 26
M  V30 29 1 3 27
M  V30 30 1 8 28
M  V30 31 1 8 29
M  V30 32 1 9 30
M  V30 33 1 9 31
M  V30 34 1 11 32
M  V30 35 1 11 33
M  V30 36 1 12 34
M  V30 37 1 12 35
M  V30 38 1 13 36
M  V30 39 1 16 37
M  V30 40 1 17 38
M  V30 41 1 19 39
M  V30 42 1 20 40
M  V30 43 1 21 41
M  V30 44 1 25 42
M  V30 END BOND
M  V30 END CTAB
M  END
>  <Dataset>  (48) 
ChEMBL_Kinases

>  <Ligand_Instance>  (48) 
nan

>  <PDB_ID>  (48) 
nan

>  <Standardized_SMILES>  (48) 
O=C(Cc1nc(N2CCOCC2)cc(=O)[nH]1)Nc1cccc(Br)c1O

>  <Name>  (48) 
nan

>  <Pocket>  (48) 
nan

>  <ATP_Site>  (48) 
nan

>  <Peripheral>  (48) 
nan

>  <Num_H_Atoms_ProtBoundConf>  (48) 
nan

>  <Num_Resolved_Atoms>  (48) 
nan

>  <Num_Not_Resolved_Atoms>  (48) 
nan

$$$$
CHEMBL3699801
     RDKit          3D

  0  0  0  0  0  0  0  0  0  0999 V3000
M  V30 BEGIN CTAB
M  V30 COUNTS 48 51 0 0 0
M  V30 BEGIN ATOM
M  V30 1 O 0.830701 -3.796519 2.674442 0
M  V30 2 C 0.674646 -2.559076 2.436745 0
M  V30 3 C 1.496277 -1.548478 3.160378 0
M  V30 4 C 1.302912 -0.173574 2.638877 0
M  V30 5 N 2.083612 0.293471 1.650993 0
M  V30 6 C 1.945055 1.532495 1.146261 0
M  V30 7 N 2.763629 2.059694 0.093049 0
M  V30 8 C 2.585212 3.373632 -0.486901 0
M  V30 9 C 3.000793 3.400416 -1.940612 0
M  V30 10 O 3.183123 2.091643 -2.430816 0
M  V30 11 C 4.292198 1.596369 -1.750209 0
M  V30 12 C 3.817607 1.179785 -0.375988 0
M  V30 13 C 0.941541 2.280023 1.722654 0
M  V30 14 C 0.121972 1.808297 2.750157 0
M  V30 15 O -0.793500 2.524871 3.257849 0
M  V30 16 N 0.341490 0.552297 3.186226 0
M  V30 17 N -0.263851 -2.051020 1.493662 0
M  V30 18 C -1.233243 -2.577128 0.593342 0
M  V30 19 C -0.763018 -2.864587 -0.692837 0
M  V30 20 C -1.689349 -3.374162 -1.575665 0
M  V30 21 C -3.010981 -3.602834 -1.252399 0
M  V30 22 C -3.394092 -3.298956 0.016888 0
M  V30 23 C -2.559127 -2.785031 0.985975 0
M  V30 24 O -2.958934 -2.480017 2.272143 0
M  V30 25 C -4.209836 -2.983623 2.707319 0
M  V30 26 C -5.264298 -2.904643 1.622021 0
M  V30 27 N -4.747009 -3.508062 0.426353 0
M  V30 28 H 2.559597 -1.834246 2.935270 0
M  V30 29 H 1.345780 -1.595951 4.253416 0
M  V30 30 H 3.142356 4.168671 0.051773 0
M  V30 31 H 1.494953 3.595853 -0.427362 0
M  V30 32 H 3.914887 4.012152 -2.093935 0
M  V30 33 H 2.172603 3.813745 -2.550876 0
M  V30 34 H 5.074526 2.372839 -1.612778 0
M  V30 35 H 4.694133 0.686267 -2.246872 0
M  V30 36 H 4.679760 1.169334 0.343739 0
M  V30 37 H 3.474675 0.120586 -0.427351 0
M  V30 38 H 0.725020 3.275227 1.419113 0
M  V30 39 H -0.277868 0.192652 3.964365 0
M  V30 40 H -0.376997 -1.025238 1.312365 0
M  V30 41 H 0.259315 -2.693797 -0.962027 0
M  V30 42 H -1.357357 -3.606265 -2.576525 0
M  V30 43 H -3.679693 -4.004297 -1.996120 0
M  V30 44 H -4.064472 -4.072771 2.896460 0
M  V30 45 H -4.523714 -2.482607 3.639043 0
M  V30 46 H -5.507462 -1.831825 1.476897 0
M  V30 47 H -6.136709 -3.489752 1.944094 0
M  V30 48 H -5.362837 -4.123069 -0.177872 0
M  V30 END ATOM
M  V30 BEGIN BOND
M  V30 1 2 1 2
M  V30 2 1 2 3
M  V30 3 1 3 4
M  V30 4 2 4 5
M  V30 5 1 5 6
M  V30 6 1 6 7
M  V30 7 1 7 8
M  V30 8 1 8 9
M  V30 9 1 9 10
M  V30 10 1 10 11
M  V30 11 1 11 12
M  V30 12 2 6 13
M  V30 13 1 13 14
M  V30 14 2 14 15
M  V30 15 1 14 16
M  V30 16 1 2 17
M  V30 17 1 17 18
M  V30 18 2 18 19
M  V30 19 1 19 20
M  V30 20 2 20 21
M  V30 21 1 21 22
M  V30 22 2 22 23
M  V30 23 1 23 24
M  V30 24 1 24 25
M  V30 25 1 25 26
M  V30 26 1 26 27
M  V30 27 1 16 4
M  V30 28 1 23 18
M  V30 29 1 12 7
M  V30 30 1 27 22
M  V30 31 1 3 28
M  V30 32 1 3 29
M  V30 33 1 8 30
M  V30 34 1 8 31
M  V30 35 1 9 32
M  V30 36 1 9 33
M  V30 37 1 11 34
M  V30 38 1 11 35
M  V30 39 1 12 36
M  V30 40 1 12 37
M  V30 41 1 13 38
M  V30 42 1 16 39
M  V30 43 1 17 40
M  V30 44 1 19 41
M  V30 45 1 20 42
M  V30 46 1 21 43
M  V30 47 1 25 44
M  V30 48 1 25 45
M  V30 49 1 26 46
M  V30 50 1 26 47
M  V30 51 1 27 48
M  V30 END BOND
M  V30 END CTAB
M  END
>  <Dataset>  (49) 
ChEMBL_Kinases

>  <Ligand_Instance>  (49) 
nan

>  <PDB_ID>  (49) 
nan

>  <Standardized_SMILES>  (49) 
O=C(Cc1nc(N2CCOCC2)cc(=O)[nH]1)Nc1cccc2c1OCCN2

>  <Name>  (49) 
nan

>  <Pocket>  (49) 
nan

>  <ATP_Site>  (49) 
nan

>  <Peripheral>  (49) 
nan

>  <Num_H_Atoms_ProtBoundConf>  (49) 
nan

>  <Num_Resolved_Atoms>  (49) 
nan

>  <Num_Not_Resolved_Atoms>  (49) 
nan

$$$$
CHEMBL3699802
     RDKit          3D

  0  0  0  0  0  0  0  0  0  0999 V3000
M  V30 BEGIN CTAB
M  V30 COUNTS 47 49 0 0 0
M  V30 BEGIN ATOM
M  V30 1 C 3.557044 -3.782180 2.300987 0
M  V30 2 O 3.653186 -2.525322 1.672660 0
M  V30 3 C 4.373732 -2.272947 0.523425 0
M  V30 4 O 5.007618 -3.203657 -0.039956 0
M  V30 5 C 4.351988 -0.901833 0.022719 0
M  V30 6 C 5.069087 -0.623547 -1.131603 0
M  V30 7 C 5.043607 0.670923 -1.597117 0
M  V30 8 F 5.746706 0.956047 -2.733686 0
M  V30 9 C 4.362316 1.721924 -1.011261 0
M  V30 10 C 3.662656 1.409669 0.130809 0
M  V30 11 C 3.660820 0.125182 0.632303 0
M  V30 12 N 2.927754 -0.193036 1.825335 0
M  V30 13 C 1.604858 -0.587103 1.494450 0
M  V30 14 O 0.533060 -0.883376 0.909345 0
M  V30 15 C 0.633435 -0.972742 2.579255 0
M  V30 16 C -0.674088 -1.343872 2.000722 0
M  V30 17 N -1.646684 -0.436421 1.802320 0
M  V30 18 C -2.837058 -0.729900 1.284265 0
M  V30 19 N -3.761452 0.338942 1.136249 0
M  V30 20 C -3.379684 1.676630 1.547179 0
M  V30 21 C -3.499462 2.539993 0.305383 0
M  V30 22 O -4.730557 2.454100 -0.310814 0
M  V30 23 C -5.092682 1.150176 -0.634401 0
M  V30 24 C -5.104149 0.250372 0.598576 0
M  V30 25 C -3.132963 -2.024186 0.916078 0
M  V30 26 C -2.144790 -2.984262 1.110185 0
M  V30 27 O -2.362728 -4.195373 0.788464 0
M  V30 28 N -0.951335 -2.610233 1.645228 0
M  V30 29 H 3.489554 -3.606334 3.403240 0
M  V30 30 H 2.616129 -4.291683 2.013572 0
M  V30 31 H 4.447785 -4.410371 2.145592 0
M  V30 32 H 5.642676 -1.388370 -1.671499 0
M  V30 33 H 4.352763 2.718577 -1.384333 0
M  V30 34 H 3.080060 2.150215 0.693244 0
M  V30 35 H 3.149284 -0.196971 2.844641 0
M  V30 36 H 0.468719 -0.106732 3.268840 0
M  V30 37 H 1.092532 -1.806417 3.147233 0
M  V30 38 H -4.099033 2.080528 2.296680 0
M  V30 39 H -2.327232 1.724636 1.864248 0
M  V30 40 H -3.367400 3.594286 0.625324 0
M  V30 41 H -2.656272 2.304815 -0.354679 0
M  V30 42 H -4.493390 0.698701 -1.435319 0
M  V30 43 H -6.145545 1.202364 -0.990637 0
M  V30 44 H -5.799247 0.742266 1.315329 0
M  V30 45 H -5.418472 -0.743335 0.296224 0
M  V30 46 H -4.095155 -2.275850 0.494497 0
M  V30 47 H -0.217907 -3.358564 1.782298 0
M  V30 END ATOM
M  V30 BEGIN BOND
M  V30 1 1 1 2
M  V30 2 1 2 3
M  V30 3 2 3 4
M  V30 4 1 3 5
M  V30 5 2 5 6
M  V30 6 1 6 7
M  V30 7 1 7 8
M  V30 8 2 7 9
M  V30 9 1 9 10
M  V30 10 2 10 11
M  V30 11 1 11 12
M  V30 12 1 12 13
M  V30 13 2 13 14
M  V30 14 1 13 15
M  V30 15 1 15 16
M  V30 16 2 16 17
M  V30 17 1 17 18
M  V30 18 1 18 19
M  V30 19 1 19 20
M  V30 20 1 20 21
M  V30 21 1 21 22
M  V30 22 1 22 23
M  V30 23 1 23 24
M  V30 24 2 18 25
M  V30 25 1 25 26
M  V30 26 2 26 27
M  V30 27 1 26 28
M  V30 28 1 11 5
M  V30 29 1 28 16
M  V30 30 1 24 19
M  V30 31 1 1 29
M  V30 32 1 1 30
M  V30 33 1 1 31
M  V30 34 1 6 32
M  V30 35 1 9 33
M  V30 36 1 10 34
M  V30 37 1 12 35
M  V30 38 1 15 36
M  V30 39 1 15 37
M  V30 40 1 20 38
M  V30 41 1 20 39
M  V30 42 1 21 40
M  V30 43 1 21 41
M  V30 44 1 23 42
M  V30 45 1 23 43
M  V30 46 1 24 44
M  V30 47 1 24 45
M  V30 48 1 25 46
M  V30 49 1 28 47
M  V30 END BOND
M  V30 END CTAB
M  END
>  <Dataset>  (50) 
ChEMBL_Kinases

>  <Ligand_Instance>  (50) 
nan

>  <PDB_ID>  (50) 
nan

>  <Standardized_SMILES>  (50) 
COC(=O)c1cc(F)ccc1NC(=O)Cc1nc(N2CCOCC2)cc(=O)[nH]1

>  <Name>  (50) 
nan

>  <Pocket>  (50) 
nan

>  <ATP_Site>  (50) 
nan

>  <Peripheral>  (50) 
nan

>  <Num_H_Atoms_ProtBoundConf>  (50) 
nan

>  <Num_Resolved_Atoms>  (50) 
nan

>  <Num_Not_Resolved_Atoms>  (50) 
nan

$$$$
CHEMBL3699812
     RDKit          3D

  0  0  0  0  0  0  0  0  0  0999 V3000
M  V30 BEGIN CTAB
M  V30 COUNTS 56 59 0 0 0
M  V30 BEGIN ATOM
M  V30 1 C -0.625829 -2.126207 2.716585 0
M  V30 2 N 0.338247 -1.157427 3.033070 0
M  V30 3 C 0.192103 -0.440065 4.243757 0
M  V30 4 C 1.393300 -0.852997 2.171967 0
M  V30 5 C 2.443598 -1.925260 2.018072 0 CFG=2
M  V30 6 C 3.531620 -1.392547 1.042599 0
M  V30 7 N 2.686420 -1.324724 -0.159075 0
M  V30 8 C 2.531134 -0.238851 -1.040788 0
M  V30 9 O 3.244644 0.791341 -0.760507 0
M  V30 10 C 1.748957 0.063812 -2.240648 0
M  V30 11 C 0.845815 1.210173 -1.834880 0
M  V30 12 N -0.323118 0.723714 -1.346035 0
M  V30 13 C -1.311249 1.501505 -0.876825 0
M  V30 14 N -2.506791 0.910068 -0.371143 0
M  V30 15 C -3.533839 1.576322 0.400349 0
M  V30 16 C -4.310373 0.447536 1.092813 0
M  V30 17 O -4.990975 -0.324571 0.169744 0
M  V30 18 C -4.188078 -0.777967 -0.867936 0
M  V30 19 C -2.717612 -0.499508 -0.655805 0
M  V30 20 C -1.022918 2.843456 -0.941476 0
M  V30 21 C 0.147792 3.336895 -1.431824 0
M  V30 22 O 0.378229 4.560216 -1.478144 0
M  V30 23 N 1.104757 2.520606 -1.888279 0
M  V30 24 C 2.060732 -2.610326 -0.196647 0
M  V30 25 C 1.673920 -3.368145 -1.305977 0
M  V30 26 C 1.094190 -4.600114 -1.072802 0
M  V30 27 C 0.907989 -5.057784 0.212925 0
M  V30 28 C 1.314155 -4.254794 1.251561 0
M  V30 29 C 1.906540 -3.001868 1.143474 0
M  V30 30 H -0.404024 -3.087007 3.227049 0
M  V30 31 H -1.619369 -1.776636 3.137577 0
M  V30 32 H -0.751438 -2.324840 1.631076 0
M  V30 33 H -0.855223 -0.261840 4.549361 0
M  V30 34 H 0.713001 0.511762 4.309713 0
M  V30 35 H 0.612537 -1.097824 5.060689 0
M  V30 36 H 1.918280 0.060095 2.552328 0
M  V30 37 H 1.080714 -0.562689 1.136507 0
M  V30 38 H 2.890947 -2.270868 2.949537 0
M  V30 39 H 4.271185 -2.198031 0.948697 0
M  V30 40 H 3.894819 -0.425458 1.376280 0
M  V30 41 H 2.435737 0.435537 -3.033143 0
M  V30 42 H 1.186122 -0.754418 -2.678232 0
M  V30 43 H -3.098795 2.212663 1.202537 0
M  V30 44 H -4.250031 2.124935 -0.230434 0
M  V30 45 H -3.518385 -0.115223 1.654759 0
M  V30 46 H -5.023927 0.902629 1.775693 0
M  V30 47 H -4.292225 -1.879790 -0.999277 0
M  V30 48 H -4.530696 -0.290648 -1.806643 0
M  V30 49 H -2.340745 -1.119608 0.186357 0
M  V30 50 H -2.162418 -0.817220 -1.574265 0
M  V30 51 H -1.798323 3.522693 -0.568119 0
M  V30 52 H 2.033769 2.757616 -2.282180 0
M  V30 53 H 1.825366 -3.004154 -2.313394 0
M  V30 54 H 0.768456 -5.250320 -1.857098 0
M  V30 55 H 0.455131 -6.018780 0.464921 0
M  V30 56 H 1.169677 -4.610930 2.274426 0
M  V30 END ATOM
M  V30 BEGIN BOND
M  V30 1 1 1 2
M  V30 2 1 2 3
M  V30 3 1 2 4
M  V30 4 1 4 5
M  V30 5 1 5 6
M  V30 6 1 6 7
M  V30 7 1 7 8
M  V30 8 2 8 9
M  V30 9 1 8 10
M  V30 10 1 10 11
M  V30 11 2 11 12
M  V30 12 1 12 13
M  V30 13 1 13 14
M  V30 14 1 14 15
M  V30 15 1 15 16
M  V30 16 1 16 17
M  V30 17 1 17 18
M  V30 18 1 18 19
M  V30 19 2 13 20
M  V30 20 1 20 21
M  V30 21 2 21 22
M  V30 22 1 21 23
M  V30 23 1 7 24
M  V30 24 2 24 25
M  V30 25 1 25 26
M  V30 26 2 26 27
M  V30 27 1 27 28
M  V30 28 2 28 29
M  V30 29 1 29 5
M  V30 30 1 23 11
M  V30 31 1 29 24
M  V30 32 1 19 14
M  V30 33 1 1 30
M  V30 34 1 1 31
M  V30 35 1 1 32
M  V30 36 1 3 33
M  V30 37 1 3 34
M  V30 38 1 3 35
M  V30 39 1 4 36
M  V30 40 1 4 37
M  V30 41 1 5 38 CFG=1
M  V30 42 1 6 39
M  V30 43 1 6 40
M  V30 44 1 10 41
M  V30 45 1 10 42
M  V30 46 1 15 43
M  V30 47 1 15 44
M  V30 48 1 16 45
M  V30 49 1 16 46
M  V30 50 1 18 47
M  V30 51 1 18 48
M  V30 52 1 19 49
M  V30 53 1 19 50
M  V30 54 1 20 51
M  V30 55 1 23 52
M  V30 56 1 25 53
M  V30 57 1 26 54
M  V30 58 1 27 55
M  V30 59 1 28 56
M  V30 END BOND
M  V30 END CTAB
M  END
>  <Dataset>  (51) 
ChEMBL_Kinases

>  <Ligand_Instance>  (51) 
nan

>  <PDB_ID>  (51) 
nan

>  <Standardized_SMILES>  (51) 
CN(C)C[C@@H]1CN(C(=O)Cc2nc(N3CCOCC3)cc(=O)[nH]2)c2ccccc21

>  <Name>  (51) 
nan

>  <Pocket>  (51) 
nan

>  <ATP_Site>  (51) 
nan

>  <Peripheral>  (51) 
nan

>  <Num_H_Atoms_ProtBoundConf>  (51) 
nan

>  <Num_Resolved_Atoms>  (51) 
nan

>  <Num_Not_Resolved_Atoms>  (51) 
nan

$$$$
CHEMBL3699804
     RDKit          3D

  0  0  0  0  0  0  0  0  0  0999 V3000
M  V30 BEGIN CTAB
M  V30 COUNTS 45 48 0 0 0
M  V30 BEGIN ATOM
M  V30 1 O -1.182503 -1.046067 1.568789 0
M  V30 2 C -0.294587 -1.905754 1.639104 0
M  V30 3 C 1.121860 -1.521760 1.930127 0
M  V30 4 C 1.263620 -0.060996 2.104098 0
M  V30 5 N 1.530087 0.710412 1.033350 0
M  V30 6 C 1.676106 2.051954 1.095348 0
M  V30 7 N 1.957225 2.862638 -0.035908 0
M  V30 8 C 2.083823 4.295095 0.160496 0
M  V30 9 C 2.055294 5.085751 -1.106415 0
M  V30 10 O 1.820528 4.298140 -2.241941 0
M  V30 11 C 2.684242 3.215683 -2.261993 0
M  V30 12 C 2.095381 2.176225 -1.307792 0
M  V30 13 C 1.523557 2.551305 2.372684 0
M  V30 14 C 1.252293 1.787887 3.478143 0
M  V30 15 O 1.119833 2.295850 4.639672 0
M  V30 16 N 1.119338 0.452915 3.341578 0
M  V30 17 N -0.586780 -3.275619 1.447628 0
M  V30 18 C 0.249836 -4.437361 1.477856 0
M  V30 19 C -0.459231 -5.474834 0.618785 0
M  V30 20 C -1.881044 -5.026169 0.670638 0
M  V30 21 C -3.014264 -5.724706 0.308727 0
M  V30 22 C -4.239304 -5.095867 0.446092 0
M  V30 23 F -5.419133 -5.667193 0.128742 0
M  V30 24 C -4.321860 -3.809532 0.930497 0
M  V30 25 F -5.504625 -3.161162 1.078875 0
M  V30 26 C -3.177215 -3.116855 1.291142 0
M  V30 27 C -1.923503 -3.725072 1.164037 0
M  V30 28 H 1.751010 -1.872336 1.099202 0
M  V30 29 H 1.423381 -2.094570 2.841205 0
M  V30 30 H 3.031756 4.526878 0.688147 0
M  V30 31 H 1.246893 4.592863 0.796921 0
M  V30 32 H 1.212967 5.804983 -1.075390 0
M  V30 33 H 3.007982 5.646903 -1.267854 0
M  V30 34 H 3.646678 3.546790 -1.817624 0
M  V30 35 H 2.792295 2.828376 -3.281126 0
M  V30 36 H 2.759755 1.311058 -1.270721 0
M  V30 37 H 1.075159 1.975046 -1.683799 0
M  V30 38 H 1.618972 3.613825 2.545449 0
M  V30 39 H 0.915571 -0.101597 4.184667 0
M  V30 40 H 0.245271 -4.820589 2.536154 0
M  V30 41 H 1.295284 -4.282579 1.220423 0
M  V30 42 H -0.400143 -6.492895 1.034671 0
M  V30 43 H -0.059430 -5.472065 -0.403839 0
M  V30 44 H -3.019326 -6.715637 -0.070206 0
M  V30 45 H -3.264214 -2.102365 1.671505 0
M  V30 END ATOM
M  V30 BEGIN BOND
M  V30 1 2 1 2
M  V30 2 1 2 3
M  V30 3 1 3 4
M  V30 4 2 4 5
M  V30 5 1 5 6
M  V30 6 1 6 7
M  V30 7 1 7 8
M  V30 8 1 8 9
M  V30 9 1 9 10
M  V30 10 1 10 11
M  V30 11 1 11 12
M  V30 12 2 6 13
M  V30 13 1 13 14
M  V30 14 2 14 15
M  V30 15 1 14 16
M  V30 16 1 2 17
M  V30 17 1 17 18
M  V30 18 1 18 19
M  V30 19 1 19 20
M  V30 20 2 20 21
M  V30 21 1 21 22
M  V30 22 1 22 23
M  V30 23 2 22 24
M  V30 24 1 24 25
M  V30 25 1 24 26
M  V30 26 2 26 27
M  V30 27 1 16 4
M  V30 28 1 27 17
M  V30 29 1 12 7
M  V30 30 1 27 20
M  V30 31 1 3 28
M  V30 32 1 3 29
M  V30 33 1 8 30
M  V30 34 1 8 31
M  V30 35 1 9 32
M  V30 36 1 9 33
M  V30 37 1 11 34
M  V30 38 1 11 35
M  V30 39 1 12 36
M  V30 40 1 12 37
M  V30 41 1 13 38
M  V30 42 1 16 39
M  V30 43 1 18 40
M  V30 44 1 18 41
M  V30 45 1 19 42
M  V30 46 1 19 43
M  V30 47 1 21 44
M  V30 48 1 26 45
M  V30 END BOND
M  V30 END CTAB
M  END
>  <Dataset>  (52) 
ChEMBL_Kinases

>  <Ligand_Instance>  (52) 
nan

>  <PDB_ID>  (52) 
nan

>  <Standardized_SMILES>  (52) 
O=C(Cc1nc(N2CCOCC2)cc(=O)[nH]1)N1CCc2cc(F)c(F)cc21

>  <Name>  (52) 
nan

>  <Pocket>  (52) 
nan

>  <ATP_Site>  (52) 
nan

>  <Peripheral>  (52) 
nan

>  <Num_H_Atoms_ProtBoundConf>  (52) 
nan

>  <Num_Resolved_Atoms>  (52) 
nan

>  <Num_Not_Resolved_Atoms>  (52) 
nan

$$$$
CHEMBL3699805
     RDKit          3D

  0  0  0  0  0  0  0  0  0  0999 V3000
M  V30 BEGIN CTAB
M  V30 COUNTS 50 53 0 0 0
M  V30 BEGIN ATOM
M  V30 1 O -0.084005 -0.772282 1.335067 0
M  V30 2 C 0.056224 -1.974535 1.736427 0
M  V30 3 C 0.470673 -1.242119 2.981447 0
M  V30 4 C 0.350422 0.199779 2.643974 0
M  V30 5 N 1.461120 0.736140 2.127152 0
M  V30 6 C 1.547034 2.028593 1.759336 0
M  V30 7 N 2.737572 2.578048 1.211913 0
M  V30 8 C 2.930379 3.950117 0.788421 0
M  V30 9 C 3.738789 4.053767 -0.483957 0
M  V30 10 O 4.187721 2.829122 -0.954732 0
M  V30 11 C 4.923293 2.268197 0.111918 0
M  V30 12 C 3.881368 1.700841 1.052896 0
M  V30 13 C 0.394259 2.757749 1.958790 0
M  V30 14 C -0.758029 2.217887 2.490622 0
M  V30 15 O -1.797670 2.929985 2.656196 0
M  V30 16 N -0.771123 0.914806 2.836535 0
M  V30 17 N -0.014629 -3.375771 1.506035 0
M  V30 18 C -0.470242 -3.529732 0.146033 0
M  V30 19 C 0.436777 -3.598844 -0.883241 0
M  V30 20 C -0.091236 -3.747091 -2.161371 0
M  V30 21 C -1.457568 -3.815433 -2.328595 0
M  V30 22 C -2.355642 -3.744260 -1.282122 0
M  V30 23 C -1.840283 -3.596346 -0.002523 0
M  V30 24 N -2.753378 -3.521674 1.084760 0
M  V30 25 C -4.127545 -3.182045 0.809346 0
M  V30 26 C -4.687936 -3.793067 -0.428159 0
M  V30 27 C -3.785633 -3.830978 -1.608837 0
M  V30 28 H 1.478504 -1.497386 3.318349 0
M  V30 29 H -0.206064 -1.501311 3.836316 0
M  V30 30 H 3.519983 4.429314 1.614420 0
M  V30 31 H 1.987814 4.527737 0.730556 0
M  V30 32 H 4.634398 4.695589 -0.327735 0
M  V30 33 H 3.125742 4.561040 -1.285568 0
M  V30 34 H 5.520572 3.058988 0.612206 0
M  V30 35 H 5.558109 1.471785 -0.283445 0
M  V30 36 H 4.346026 1.510280 2.048924 0
M  V30 37 H 3.533033 0.737122 0.580397 0
M  V30 38 H 0.358725 3.789462 1.700585 0
M  V30 39 H -1.609025 0.454200 3.241114 0
M  V30 40 H 0.272164 -3.907132 2.353272 0
M  V30 41 H 1.503554 -3.541963 -0.717661 0
M  V30 42 H 0.604914 -3.804237 -2.991864 0
M  V30 43 H -1.815350 -3.930940 -3.344720 0
M  V30 44 H -2.375290 -3.721424 2.055285 0
M  V30 45 H -4.767926 -3.540314 1.667378 0
M  V30 46 H -4.273919 -2.078249 0.776483 0
M  V30 47 H -5.592503 -3.176265 -0.706079 0
M  V30 48 H -5.069230 -4.833011 -0.270873 0
M  V30 49 H -3.923025 -4.770989 -2.211692 0
M  V30 50 H -4.030396 -3.014586 -2.329713 0
M  V30 END ATOM
M  V30 BEGIN BOND
M  V30 1 2 1 2
M  V30 2 1 2 3
M  V30 3 1 3 4
M  V30 4 2 4 5
M  V30 5 1 5 6
M  V30 6 1 6 7
M  V30 7 1 7 8
M  V30 8 1 8 9
M  V30 9 1 9 10
M  V30 10 1 10 11
M  V30 11 1 11 12
M  V30 12 2 6 13
M  V30 13 1 13 14
M  V30 14 2 14 15
M  V30 15 1 14 16
M  V30 16 1 2 17
M  V30 17 1 17 18
M  V30 18 2 18 19
M  V30 19 1 19 20
M  V30 20 2 20 21
M  V30 21 1 21 22
M  V30 22 2 22 23
M  V30 23 1 23 24
M  V30 24 1 24 25
M  V30 25 1 25 26
M  V30 26 1 26 27
M  V30 27 1 16 4
M  V30 28 1 23 18
M  V30 29 1 12 7
M  V30 30 1 27 22
M  V30 31 1 3 28
M  V30 32 1 3 29
M  V30 33 1 8 30
M  V30 34 1 8 31
M  V30 35 1 9 32
M  V30 36 1 9 33
M  V30 37 1 11 34
M  V30 38 1 11 35
M  V30 39 1 12 36
M  V30 40 1 12 37
M  V30 41 1 13 38
M  V30 42 1 16 39
M  V30 43 1 17 40
M  V30 44 1 19 41
M  V30 45 1 20 42
M  V30 46 1 21 43
M  V30 47 1 24 44
M  V30 48 1 25 45
M  V30 49 1 25 46
M  V30 50 1 26 47
M  V30 51 1 26 48
M  V30 52 1 27 49
M  V30 53 1 27 50
M  V30 END BOND
M  V30 END CTAB
M  END
>  <Dataset>  (53) 
ChEMBL_Kinases

>  <Ligand_Instance>  (53) 
nan

>  <PDB_ID>  (53) 
nan

>  <Standardized_SMILES>  (53) 
O=C(Cc1nc(N2CCOCC2)cc(=O)[nH]1)Nc1cccc2c1NCCC2

>  <Name>  (53) 
nan

>  <Pocket>  (53) 
nan

>  <ATP_Site>  (53) 
nan

>  <Peripheral>  (53) 
nan

>  <Num_H_Atoms_ProtBoundConf>  (53) 
nan

>  <Num_Resolved_Atoms>  (53) 
nan

>  <Num_Not_Resolved_Atoms>  (53) 
nan

$$$$
CHEMBL3699806
     RDKit          3D

  0  0  0  0  0  0  0  0  0  0999 V3000
M  V30 BEGIN CTAB
M  V30 COUNTS 46 49 0 0 0
M  V30 BEGIN ATOM
M  V30 1 O -0.621583 -0.782834 1.700799 0
M  V30 2 C -0.301153 -1.989780 1.576567 0
M  V30 3 C 1.117436 -1.715611 1.934517 0
M  V30 4 C 1.256596 -0.263505 2.199799 0
M  V30 5 N 1.566228 0.552561 1.182770 0
M  V30 6 C 1.717228 1.869707 1.299660 0
M  V30 7 N 2.045251 2.728284 0.216803 0
M  V30 8 C 2.214684 4.159753 0.327180 0
M  V30 9 C 1.719683 4.745460 -0.981490 0
M  V30 10 O 2.525624 4.390306 -2.048082 0
M  V30 11 C 3.087955 3.127713 -1.892797 0
M  V30 12 C 2.232233 2.174380 -1.108945 0
M  V30 13 C 1.532847 2.378096 2.568505 0
M  V30 14 C 1.210080 1.570682 3.657618 0
M  V30 15 O 1.038506 2.022427 4.824013 0
M  V30 16 N 1.076456 0.239948 3.443983 0
M  V30 17 N -0.795815 -3.278128 1.258966 0
M  V30 18 C 0.143545 -4.345666 1.290172 0
M  V30 19 C -0.134103 -5.343610 0.193840 0
M  V30 20 O -1.487100 -5.682931 0.050113 0
M  V30 21 C -2.424663 -4.698697 0.329232 0
M  V30 22 C -3.745523 -4.958446 -0.021601 0
M  V30 23 Cl -4.240653 -6.461737 -0.788411 0
M  V30 24 C -4.712539 -4.005205 0.238241 0
M  V30 25 C -4.422306 -2.778495 0.843896 0
M  V30 26 C -3.115413 -2.524920 1.189480 0
M  V30 27 C -2.159739 -3.481404 0.926160 0
M  V30 28 H 1.821280 -2.076255 1.165139 0
M  V30 29 H 1.409498 -2.245745 2.876756 0
M  V30 30 H 1.601627 4.584344 1.128002 0
M  V30 31 H 3.269300 4.458824 0.455963 0
M  V30 32 H 1.765701 5.846952 -0.873895 0
M  V30 33 H 0.650450 4.462684 -1.146409 0
M  V30 34 H 4.024217 3.275008 -1.293189 0
M  V30 35 H 3.395528 2.685971 -2.849750 0
M  V30 36 H 1.270202 2.064190 -1.649161 0
M  V30 37 H 2.777178 1.224576 -1.046269 0
M  V30 38 H 1.624174 3.417512 2.801451 0
M  V30 39 H 0.834723 -0.427969 4.217321 0
M  V30 40 H 0.027934 -4.876331 2.259153 0
M  V30 41 H 1.192589 -4.047192 1.176466 0
M  V30 42 H 0.424275 -6.286600 0.363651 0
M  V30 43 H 0.238682 -4.956445 -0.795257 0
M  V30 44 H -5.764597 -4.151851 -0.013981 0
M  V30 45 H -5.192187 -2.044128 1.039673 0
M  V30 46 H -2.806041 -1.602364 1.661252 0
M  V30 END ATOM
M  V30 BEGIN BOND
M  V30 1 2 1 2
M  V30 2 1 2 3
M  V30 3 1 3 4
M  V30 4 2 4 5
M  V30 5 1 5 6
M  V30 6 1 6 7
M  V30 7 1 7 8
M  V30 8 1 8 9
M  V30 9 1 9 10
M  V30 10 1 10 11
M  V30 11 1 11 12
M  V30 12 2 6 13
M  V30 13 1 13 14
M  V30 14 2 14 15
M  V30 15 1 14 16
M  V30 16 1 2 17
M  V30 17 1 17 18
M  V30 18 1 18 19
M  V30 19 1 19 20
M  V30 20 1 20 21
M  V30 21 2 21 22
M  V30 22 1 22 23
M  V30 23 1 22 24
M  V30 24 2 24 25
M  V30 25 1 25 26
M  V30 26 2 26 27
M  V30 27 1 16 4
M  V30 28 1 27 17
M  V30 29 1 12 7
M  V30 30 1 27 21
M  V30 31 1 3 28
M  V30 32 1 3 29
M  V30 33 1 8 30
M  V30 34 1 8 31
M  V30 35 1 9 32
M  V30 36 1 9 33
M  V30 37 1 11 34
M  V30 38 1 11 35
M  V30 39 1 12 36
M  V30 40 1 12 37
M  V30 41 1 13 38
M  V30 42 1 16 39
M  V30 43 1 18 40
M  V30 44 1 18 41
M  V30 45 1 19 42
M  V30 46 1 19 43
M  V30 47 1 24 44
M  V30 48 1 25 45
M  V30 49 1 26 46
M  V30 END BOND
M  V30 END CTAB
M  END
>  <Dataset>  (54) 
ChEMBL_Kinases

>  <Ligand_Instance>  (54) 
nan

>  <PDB_ID>  (54) 
nan

>  <Standardized_SMILES>  (54) 
O=C(Cc1nc(N2CCOCC2)cc(=O)[nH]1)N1CCOc2c(Cl)cccc21

>  <Name>  (54) 
nan

>  <Pocket>  (54) 
nan

>  <ATP_Site>  (54) 
nan

>  <Peripheral>  (54) 
nan

>  <Num_H_Atoms_ProtBoundConf>  (54) 
nan

>  <Num_Resolved_Atoms>  (54) 
nan

>  <Num_Not_Resolved_Atoms>  (54) 
nan

$$$$
CHEMBL3699807
     RDKit          3D

  0  0  0  0  0  0  0  0  0  0999 V3000
M  V30 BEGIN CTAB
M  V30 COUNTS 45 47 0 0 0
M  V30 BEGIN ATOM
M  V30 1 C 0.044107 -6.133553 0.754785 0
M  V30 2 C -0.666233 -4.818110 0.842725 0
M  V30 3 C -1.102001 -4.330846 2.065681 0
M  V30 4 C -1.762867 -3.141032 2.279900 0
M  V30 5 C -2.016405 -2.362100 1.192833 0
M  V30 6 C -1.597843 -2.812576 -0.042311 0
M  V30 7 N -1.857012 -2.007090 -1.214134 0
M  V30 8 C -0.723212 -1.163616 -1.297785 0
M  V30 9 O 0.225992 -1.237914 -0.434031 0
M  V30 10 C -0.187341 -0.064207 -2.180760 0
M  V30 11 C -0.091479 1.123123 -1.288564 0
M  V30 12 N 0.822972 1.222928 -0.335371 0
M  V30 13 C 0.911966 2.311422 0.481781 0
M  V30 14 N 1.923005 2.286098 1.480796 0
M  V30 15 C 2.203617 3.282317 2.487022 0
M  V30 16 C 2.075533 2.640394 3.865368 0
M  V30 17 O 2.826773 1.493338 3.985513 0
M  V30 18 C 2.630442 0.572941 2.984299 0
M  V30 19 C 2.839521 1.173098 1.606603 0
M  V30 20 C 0.027425 3.342379 0.314959 0
M  V30 21 C -0.912398 3.216935 -0.681620 0
M  V30 22 O -1.722066 4.180380 -0.822896 0
M  V30 23 N -0.983576 2.142697 -1.470034 0
M  V30 24 C -0.927923 -4.019103 -0.259415 0
M  V30 25 O -0.514615 -4.458325 -1.511852 0
M  V30 26 H -0.729341 -6.950328 0.682503 0
M  V30 27 H 0.770296 -6.169097 -0.072812 0
M  V30 28 H 0.637737 -6.271913 1.678189 0
M  V30 29 H -0.885188 -4.976240 2.924674 0
M  V30 30 H -2.048912 -2.878824 3.284275 0
M  V30 31 H -2.526308 -1.416083 1.269489 0
M  V30 32 H -2.453286 -1.735395 -2.023748 0
M  V30 33 H -0.983948 0.099366 -2.941119 0
M  V30 34 H 0.775406 -0.302569 -2.630375 0
M  V30 35 H 1.436879 4.089265 2.469207 0
M  V30 36 H 3.213407 3.659149 2.337590 0
M  V30 37 H 2.478834 3.374490 4.613546 0
M  V30 38 H 1.010802 2.502413 4.140242 0
M  V30 39 H 3.361408 -0.249704 3.113210 0
M  V30 40 H 1.610787 0.123316 2.982169 0
M  V30 41 H 3.870550 1.573705 1.581290 0
M  V30 42 H 2.635293 0.367936 0.885931 0
M  V30 43 H 0.089213 4.197937 0.951318 0
M  V30 44 H -1.727993 2.118901 -2.206141 0
M  V30 45 H -1.173182 -4.968906 -2.122785 0
M  V30 END ATOM
M  V30 BEGIN BOND
M  V30 1 1 1 2
M  V30 2 2 2 3
M  V30 3 1 3 4
M  V30 4 2 4 5
M  V30 5 1 5 6
M  V30 6 1 6 7
M  V30 7 1 7 8
M  V30 8 2 8 9
M  V30 9 1 8 10
M  V30 10 1 10 11
M  V30 11 2 11 12
M  V30 12 1 12 13
M  V30 13 1 13 14
M  V30 14 1 14 15
M  V30 15 1 15 16
M  V30 16 1 16 17
M  V30 17 1 17 18
M  V30 18 1 18 19
M  V30 19 2 13 20
M  V30 20 1 20 21
M  V30 21 2 21 22
M  V30 22 1 21 23
M  V30 23 2 6 24
M  V30 24 1 24 25
M  V30 25 1 24 2
M  V30 26 1 23 11
M  V30 27 1 19 14
M  V30 28 1 1 26
M  V30 29 1 1 27
M  V30 30 1 1 28
M  V30 31 1 3 29
M  V30 32 1 4 30
M  V30 33 1 5 31
M  V30 34 1 7 32
M  V30 35 1 10 33
M  V30 36 1 10 34
M  V30 37 1 15 35
M  V30 38 1 15 36
M  V30 39 1 16 37
M  V30 40 1 16 38
M  V30 41 1 18 39
M  V30 42 1 18 40
M  V30 43 1 19 41
M  V30 44 1 19 42
M  V30 45 1 20 43
M  V30 46 1 23 44
M  V30 47 1 25 45
M  V30 END BOND
M  V30 END CTAB
M  END
>  <Dataset>  (55) 
ChEMBL_Kinases

>  <Ligand_Instance>  (55) 
nan

>  <PDB_ID>  (55) 
nan

>  <Standardized_SMILES>  (55) 
Cc1cccc(NC(=O)Cc2nc(N3CCOCC3)cc(=O)[nH]2)c1O

>  <Name>  (55) 
nan

>  <Pocket>  (55) 
nan

>  <ATP_Site>  (55) 
nan

>  <Peripheral>  (55) 
nan

>  <Num_H_Atoms_ProtBoundConf>  (55) 
nan

>  <Num_Resolved_Atoms>  (55) 
nan

>  <Num_Not_Resolved_Atoms>  (55) 
nan

$$$$
CHEMBL3699808
     RDKit          3D

  0  0  0  0  0  0  0  0  0  0999 V3000
M  V30 BEGIN CTAB
M  V30 COUNTS 44 46 0 0 0
M  V30 BEGIN ATOM
M  V30 1 O -0.499505 -0.908980 1.876221 0
M  V30 2 C 0.337085 -1.839831 1.789636 0
M  V30 3 C 1.718618 -1.385259 1.950392 0
M  V30 4 C 1.783806 0.096774 2.182430 0
M  V30 5 N 1.886277 0.773402 1.026026 0
M  V30 6 C 1.959266 2.113709 0.953046 0
M  V30 7 N 2.072261 2.847709 -0.283949 0
M  V30 8 C 2.055943 4.318882 -0.242506 0
M  V30 9 C 1.725862 4.878256 -1.583854 0
M  V30 10 O 1.481142 3.923975 -2.569329 0
M  V30 11 C 2.490269 2.950176 -2.626021 0
M  V30 12 C 2.198266 1.996345 -1.478366 0
M  V30 13 C 1.922586 2.789457 2.174340 0
M  V30 14 C 1.816429 2.062632 3.349216 0
M  V30 15 O 1.779736 2.635362 4.479427 0
M  V30 16 N 1.746599 0.726816 3.369564 0
M  V30 17 N -0.102009 -3.150223 1.560831 0
M  V30 18 C -1.415288 -3.641189 1.399123 0
M  V30 19 C -2.585319 -2.926041 1.428710 0
M  V30 20 C -3.855309 -3.434236 1.269344 0
M  V30 21 C -3.986549 -4.786391 1.059142 0
M  V30 22 C -2.821381 -5.558003 1.020813 0
M  V30 23 N -2.907158 -6.952561 0.806492 0 CHG=1 VAL=4
M  V30 24 O -1.973323 -7.546720 0.192609 0
M  V30 25 O -3.978742 -7.733762 1.238104 0 CHG=-1 VAL=1
M  V30 26 C -1.582807 -4.990057 1.187013 0
M  V30 27 O -0.455504 -5.822544 1.137114 0
M  V30 28 H 2.413873 -1.700847 1.149108 0
M  V30 29 H 2.122623 -1.847374 2.882153 0
M  V30 30 H 1.262716 4.609666 0.482237 0
M  V30 31 H 3.025347 4.712355 0.098332 0
M  V30 32 H 0.803709 5.483326 -1.511988 0
M  V30 33 H 2.528449 5.582146 -1.903547 0
M  V30 34 H 3.488841 3.408675 -2.439379 0
M  V30 35 H 2.408758 2.463177 -3.603983 0
M  V30 36 H 1.199979 1.552161 -1.665803 0
M  V30 37 H 3.005814 1.245446 -1.361020 0
M  V30 38 H 1.975335 3.867203 2.232417 0
M  V30 39 H 1.666857 0.106788 4.181496 0
M  V30 40 H 0.710799 -3.798882 1.515670 0
M  V30 41 H -2.537456 -1.863734 1.589695 0
M  V30 42 H -4.726427 -2.796801 1.306356 0
M  V30 43 H -4.929096 -5.279735 0.923450 0
M  V30 44 H 0.166512 -5.852090 0.336826 0
M  V30 END ATOM
M  V30 BEGIN BOND
M  V30 1 2 1 2
M  V30 2 1 2 3
M  V30 3 1 3 4
M  V30 4 2 4 5
M  V30 5 1 5 6
M  V30 6 1 6 7
M  V30 7 1 7 8
M  V30 8 1 8 9
M  V30 9 1 9 10
M  V30 10 1 10 11
M  V30 11 1 11 12
M  V30 12 2 6 13
M  V30 13 1 13 14
M  V30 14 2 14 15
M  V30 15 1 14 16
M  V30 16 1 2 17
M  V30 17 1 17 18
M  V30 18 2 18 19
M  V30 19 1 19 20
M  V30 20 2 20 21
M  V30 21 1 21 22
M  V30 22 1 22 23
M  V30 23 2 23 24
M  V30 24 1 23 25
M  V30 25 2 22 26
M  V30 26 1 26 27
M  V30 27 1 16 4
M  V30 28 1 26 18
M  V30 29 1 12 7
M  V30 30 1 3 28
M  V30 31 1 3 29
M  V30 32 1 8 30
M  V30 33 1 8 31
M  V30 34 1 9 32
M  V30 35 1 9 33
M  V30 36 1 11 34
M  V30 37 1 11 35
M  V30 38 1 12 36
M  V30 39 1 12 37
M  V30 40 1 13 38
M  V30 41 1 16 39
M  V30 42 1 17 40
M  V30 43 1 19 41
M  V30 44 1 20 42
M  V30 45 1 21 43
M  V30 46 1 27 44
M  V30 END BOND
M  V30 END CTAB
M  END
>  <Dataset>  (56) 
ChEMBL_Kinases

>  <Ligand_Instance>  (56) 
nan

>  <PDB_ID>  (56) 
nan

>  <Standardized_SMILES>  (56) 
O=C(Cc1nc(N2CCOCC2)cc(=O)[nH]1)Nc1cccc([N+](=O)[O-])c1O

>  <Name>  (56) 
nan

>  <Pocket>  (56) 
nan

>  <ATP_Site>  (56) 
nan

>  <Peripheral>  (56) 
nan

>  <Num_H_Atoms_ProtBoundConf>  (56) 
nan

>  <Num_Resolved_Atoms>  (56) 
nan

>  <Num_Not_Resolved_Atoms>  (56) 
nan

$$$$
CHEMBL3699809
     RDKit          3D

  0  0  0  0  0  0  0  0  0  0999 V3000
M  V30 BEGIN CTAB
M  V30 COUNTS 43 45 0 0 0
M  V30 BEGIN ATOM
M  V30 1 N -3.179168 -6.742195 0.776190 0
M  V30 2 C -2.125517 -6.258695 0.711393 0
M  V30 3 C -0.820284 -5.663885 0.651331 0
M  V30 4 C 0.254053 -6.337591 1.246839 0
M  V30 5 C 1.504052 -5.741310 1.172701 0
M  V30 6 C 1.608284 -4.535281 0.524491 0
M  V30 7 C 0.566704 -3.860230 -0.065183 0
M  V30 8 N 0.620976 -2.612019 -0.725866 0
M  V30 9 C 1.711570 -1.726328 -0.867847 0
M  V30 10 O 2.822894 -2.013582 -0.358391 0
M  V30 11 C 1.717860 -0.425036 -1.579613 0
M  V30 12 C 2.040675 0.636387 -0.565627 0
M  V30 13 N 0.981426 1.289898 -0.024613 0
M  V30 14 C 1.137191 2.254125 0.895211 0
M  V30 15 N -0.057486 2.856252 1.370690 0
M  V30 16 C -1.344338 2.416941 0.867674 0
M  V30 17 C -2.059487 1.795476 2.076187 0
M  V30 18 O -2.286345 2.869457 2.947624 0
M  V30 19 C -1.094353 3.360461 3.450266 0
M  V30 20 C -0.199492 3.917195 2.345691 0
M  V30 21 C 2.394740 2.608992 1.319320 0
M  V30 22 C 3.482286 1.935562 0.761270 0
M  V30 23 O 4.640259 2.234747 1.125763 0
M  V30 24 N 3.282949 0.962881 -0.169744 0
M  V30 25 C -0.664199 -4.460312 0.014418 0
M  V30 26 O -1.810329 -3.869448 -0.553334 0
M  V30 27 H 0.127134 -7.284635 1.747904 0
M  V30 28 H 2.390639 -6.207374 1.613622 0
M  V30 29 H 2.589665 -4.101941 0.484599 0
M  V30 30 H -0.212513 -2.208323 -1.203489 0
M  V30 31 H 0.765443 -0.185223 -2.054958 0
M  V30 32 H 2.544090 -0.485925 -2.343351 0
M  V30 33 H -1.214595 1.639238 0.067392 0
M  V30 34 H -1.940644 3.285058 0.485747 0
M  V30 35 H -2.973238 1.280160 1.798823 0
M  V30 36 H -1.319918 1.138396 2.594533 0
M  V30 37 H -0.532648 2.566559 3.959030 0
M  V30 38 H -1.369701 4.160554 4.189586 0
M  V30 39 H 0.744814 4.230829 2.811916 0
M  V30 40 H -0.754553 4.723303 1.855136 0
M  V30 41 H 2.505208 3.386392 2.062716 0
M  V30 42 H 4.079091 0.443746 -0.603066 0
M  V30 43 H -2.578227 -3.652659 0.075812 0
M  V30 END ATOM
M  V30 BEGIN BOND
M  V30 1 3 1 2
M  V30 2 1 2 3
M  V30 3 2 3 4
M  V30 4 1 4 5
M  V30 5 2 5 6
M  V30 6 1 6 7
M  V30 7 1 7 8
M  V30 8 1 8 9
M  V30 9 2 9 10
M  V30 10 1 9 11
M  V30 11 1 11 12
M  V30 12 2 12 13
M  V30 13 1 13 14
M  V30 14 1 14 15
M  V30 15 1 15 16
M  V30 16 1 16 17
M  V30 17 1 17 18
M  V30 18 1 18 19
M  V30 19 1 19 20
M  V30 20 2 14 21
M  V30 21 1 21 22
M  V30 22 2 22 23
M  V30 23 1 22 24
M  V30 24 2 7 25
M  V30 25 1 25 26
M  V30 26 1 25 3
M  V30 27 1 24 12
M  V30 28 1 20 15
M  V30 29 1 4 27
M  V30 30 1 5 28
M  V30 31 1 6 29
M  V30 32 1 8 30
M  V30 33 1 11 31
M  V30 34 1 11 32
M  V30 35 1 16 33
M  V30 36 1 16 34
M  V30 37 1 17 35
M  V30 38 1 17 36
M  V30 39 1 19 37
M  V30 40 1 19 38
M  V30 41 1 20 39
M  V30 42 1 20 40
M  V30 43 1 21 41
M  V30 44 1 24 42
M  V30 45 1 26 43
M  V30 END BOND
M  V30 END CTAB
M  END
>  <Dataset>  (57) 
ChEMBL_Kinases

>  <Ligand_Instance>  (57) 
nan

>  <PDB_ID>  (57) 
nan

>  <Standardized_SMILES>  (57) 
N#Cc1cccc(NC(=O)Cc2nc(N3CCOCC3)cc(=O)[nH]2)c1O

>  <Name>  (57) 
nan

>  <Pocket>  (57) 
nan

>  <ATP_Site>  (57) 
nan

>  <Peripheral>  (57) 
nan

>  <Num_H_Atoms_ProtBoundConf>  (57) 
nan

>  <Num_Resolved_Atoms>  (57) 
nan

>  <Num_Not_Resolved_Atoms>  (57) 
nan

$$$$
CHEMBL3699810
     RDKit          3D

  0  0  0  0  0  0  0  0  0  0999 V3000
M  V30 BEGIN CTAB
M  V30 COUNTS 45 47 0 0 0
M  V30 BEGIN ATOM
M  V30 1 O -0.746684 -0.894178 1.737247 0
M  V30 2 C 0.151784 -1.705489 1.393889 0
M  V30 3 C 1.607190 -1.405517 1.288963 0
M  V30 4 C 1.782351 0.021791 1.665272 0
M  V30 5 N 1.697480 0.885512 0.645897 0
M  V30 6 C 1.832501 2.222356 0.808553 0
M  V30 7 N 1.740448 3.113520 -0.272242 0
M  V30 8 C 1.870618 4.550315 -0.197681 0
M  V30 9 C 2.933606 4.952513 -1.204390 0
M  V30 10 O 2.492119 4.507411 -2.464102 0
M  V30 11 C 2.546657 3.115518 -2.546136 0
M  V30 12 C 1.492466 2.578765 -1.601121 0
M  V30 13 C 2.062899 2.612775 2.103738 0
M  V30 14 C 2.152857 1.729155 3.167065 0
M  V30 15 O 2.363351 2.082443 4.352197 0
M  V30 16 N 2.008191 0.401279 2.936557 0
M  V30 17 N -0.133547 -3.051513 1.054599 0
M  V30 18 C -1.366525 -3.760132 1.016416 0
M  V30 19 C -2.056004 -3.738953 -0.179184 0
M  V30 20 C -3.263416 -4.368210 -0.398463 0
M  V30 21 C -3.816410 -5.066136 0.653691 0
M  V30 22 C -3.149682 -5.112489 1.882619 0
M  V30 23 C -3.723446 -5.857916 3.034160 0
M  V30 24 F -2.782165 -6.827824 3.360201 0
M  V30 25 F -4.035895 -5.041844 4.091579 0
M  V30 26 F -4.835606 -6.549017 2.588386 0
M  V30 27 C -1.939309 -4.465177 2.055984 0
M  V30 28 O -1.236419 -4.478647 3.251996 0
M  V30 29 H 2.201509 -2.012890 2.000856 0
M  V30 30 H 1.909371 -1.606847 0.254688 0
M  V30 31 H 0.920274 5.011649 -0.581752 0
M  V30 32 H 2.045545 4.959817 0.791723 0
M  V30 33 H 3.910603 4.475185 -0.960470 0
M  V30 34 H 3.030193 6.049835 -1.286752 0
M  V30 35 H 3.550784 2.717232 -2.342897 0
M  V30 36 H 2.279526 2.867228 -3.600817 0
M  V30 37 H 0.521847 3.044908 -1.938703 0
M  V30 38 H 1.419100 1.476839 -1.596815 0
M  V30 39 H 2.184924 3.645256 2.345263 0
M  V30 40 H 2.052610 -0.351092 3.631728 0
M  V30 41 H 0.549945 -3.783495 0.761315 0
M  V30 42 H -1.650537 -3.194620 -1.042335 0
M  V30 43 H -3.752529 -4.311825 -1.363002 0
M  V30 44 H -4.770472 -5.574497 0.511773 0
M  V30 45 H -1.223267 -5.235997 3.910654 0
M  V30 END ATOM
M  V30 BEGIN BOND
M  V30 1 2 1 2
M  V30 2 1 2 3
M  V30 3 1 3 4
M  V30 4 2 4 5
M  V30 5 1 5 6
M  V30 6 1 6 7
M  V30 7 1 7 8
M  V30 8 1 8 9
M  V30 9 1 9 10
M  V30 10 1 10 11
M  V30 11 1 11 12
M  V30 12 2 6 13
M  V30 13 1 13 14
M  V30 14 2 14 15
M  V30 15 1 14 16
M  V30 16 1 2 17
M  V30 17 1 17 18
M  V30 18 2 18 19
M  V30 19 1 19 20
M  V30 20 2 20 21
M  V30 21 1 21 22
M  V30 22 1 22 23
M  V30 23 1 23 24
M  V30 24 1 23 25
M  V30 25 1 23 26
M  V30 26 2 22 27
M  V30 27 1 27 28
M  V30 28 1 16 4
M  V30 29 1 27 18
M  V30 30 1 12 7
M  V30 31 1 3 29
M  V30 32 1 3 30
M  V30 33 1 8 31
M  V30 34 1 8 32
M  V30 35 1 9 33
M  V30 36 1 9 34
M  V30 37 1 11 35
M  V30 38 1 11 36
M  V30 39 1 12 37
M  V30 40 1 12 38
M  V30 41 1 13 39
M  V30 42 1 16 40
M  V30 43 1 17 41
M  V30 44 1 19 42
M  V30 45 1 20 43
M  V30 46 1 21 44
M  V30 47 1 28 45
M  V30 END BOND
M  V30 END CTAB
M  END
>  <Dataset>  (58) 
ChEMBL_Kinases

>  <Ligand_Instance>  (58) 
nan

>  <PDB_ID>  (58) 
nan

>  <Standardized_SMILES>  (58) 
O=C(Cc1nc(N2CCOCC2)cc(=O)[nH]1)Nc1cccc(C(F)(F)F)c1O

>  <Name>  (58) 
nan

>  <Pocket>  (58) 
nan

>  <ATP_Site>  (58) 
nan

>  <Peripheral>  (58) 
nan

>  <Num_H_Atoms_ProtBoundConf>  (58) 
nan

>  <Num_Resolved_Atoms>  (58) 
nan

>  <Num_Not_Resolved_Atoms>  (58) 
nan

$$$$
CHEMBL3699811
     RDKit          3D

  0  0  0  0  0  0  0  0  0  0999 V3000
M  V30 BEGIN CTAB
M  V30 COUNTS 48 51 0 0 0
M  V30 BEGIN ATOM
M  V30 1 C -1.538703 -5.770626 0.334517 0
M  V30 2 C -1.969267 -4.895094 1.507492 0 CFG=1
M  V30 3 C -0.919987 -3.808233 1.681702 0
M  V30 4 N -1.474603 -2.689377 0.956765 0
M  V30 5 C -0.586147 -1.689322 0.498885 0
M  V30 6 O 0.660293 -1.615751 0.623057 0
M  V30 7 C -0.801152 -0.431139 -0.255411 0
M  V30 8 C 0.511647 0.260583 -0.486379 0
M  V30 9 N 1.038158 1.162985 0.366970 0
M  V30 10 C 2.209951 1.770620 0.146274 0
M  V30 11 N 2.752306 2.718993 1.053910 0
M  V30 12 C 1.950956 2.985750 2.236865 0
M  V30 13 C 2.413465 4.362827 2.703293 0
M  V30 14 O 3.769956 4.308860 2.920409 0
M  V30 15 C 4.525480 4.262047 1.762524 0
M  V30 16 C 4.029669 3.321343 0.723239 0
M  V30 17 C 2.871464 1.417274 -1.032209 0
M  V30 18 C 2.362785 0.499068 -1.926840 0
M  V30 19 O 3.003891 0.219965 -2.973112 0
M  V30 20 N 1.174249 -0.060845 -1.617645 0
M  V30 21 C -2.873208 -2.860344 0.864479 0
M  V30 22 C -3.823990 -1.950498 0.522389 0
M  V30 23 C -5.167346 -2.334076 0.493675 0
M  V30 24 C -5.478609 -3.638506 0.818088 0
M  V30 25 C -4.531558 -4.553256 1.161100 0
M  V30 26 C -3.204149 -4.153179 1.183736 0
M  V30 27 H -2.198836 -5.514013 -0.533451 0
M  V30 28 H -1.629402 -6.852319 0.581793 0
M  V30 29 H -0.483848 -5.554883 0.066190 0
M  V30 30 H -2.044822 -5.507636 2.422264 0
M  V30 31 H -0.861606 -3.555657 2.767746 0
M  V30 32 H 0.059867 -4.130274 1.317141 0
M  V30 33 H -1.301291 -0.670996 -1.197745 0
M  V30 34 H -1.490228 0.263871 0.308014 0
M  V30 35 H 2.237404 2.245407 3.003843 0
M  V30 36 H 0.867834 2.978819 2.014334 0
M  V30 37 H 1.909089 4.563088 3.651713 0
M  V30 38 H 2.116640 5.089913 1.923475 0
M  V30 39 H 5.538682 3.933428 2.078907 0
M  V30 40 H 4.680652 5.268436 1.312386 0
M  V30 41 H 4.727366 2.474576 0.564474 0
M  V30 42 H 3.928862 3.834154 -0.255710 0
M  V30 43 H 3.817478 1.911611 -1.204718 0
M  V30 44 H 0.760286 -0.768314 -2.285531 0
M  V30 45 H -3.559544 -0.933641 0.271361 0
M  V30 46 H -5.887337 -1.572072 0.214810 0
M  V30 47 H -6.519514 -3.941629 0.797360 0
M  V30 48 H -4.829257 -5.569146 1.408291 0
M  V30 END ATOM
M  V30 BEGIN BOND
M  V30 1 1 1 2
M  V30 2 1 2 3
M  V30 3 1 3 4
M  V30 4 1 4 5
M  V30 5 2 5 6
M  V30 6 1 5 7
M  V30 7 1 7 8
M  V30 8 2 8 9
M  V30 9 1 9 10
M  V30 10 1 10 11
M  V30 11 1 11 12
M  V30 12 1 12 13
M  V30 13 1 13 14
M  V30 14 1 14 15
M  V30 15 1 15 16
M  V30 16 2 10 17
M  V30 17 1 17 18
M  V30 18 2 18 19
M  V30 19 1 18 20
M  V30 20 1 4 21
M  V30 21 2 21 22
M  V30 22 1 22 23
M  V30 23 2 23 24
M  V30 24 1 24 25
M  V30 25 2 25 26
M  V30 26 1 26 2
M  V30 27 1 20 8
M  V30 28 1 26 21
M  V30 29 1 16 11
M  V30 30 1 1 27
M  V30 31 1 1 28
M  V30 32 1 1 29
M  V30 33 1 2 30 CFG=1
M  V30 34 1 3 31
M  V30 35 1 3 32
M  V30 36 1 7 33
M  V30 37 1 7 34
M  V30 38 1 12 35
M  V30 39 1 12 36
M  V30 40 1 13 37
M  V30 41 1 13 38
M  V30 42 1 15 39
M  V30 43 1 15 40
M  V30 44 1 16 41
M  V30 45 1 16 42
M  V30 46 1 17 43
M  V30 47 1 20 44
M  V30 48 1 22 45
M  V30 49 1 23 46
M  V30 50 1 24 47
M  V30 51 1 25 48
M  V30 END BOND
M  V30 END CTAB
M  END
>  <Dataset>  (59) 
ChEMBL_Kinases

>  <Ligand_Instance>  (59) 
nan

>  <PDB_ID>  (59) 
nan

>  <Standardized_SMILES>  (59) 
C[C@H]1CN(C(=O)Cc2nc(N3CCOCC3)cc(=O)[nH]2)c2ccccc21

>  <Name>  (59) 
nan

>  <Pocket>  (59) 
nan

>  <ATP_Site>  (59) 
nan

>  <Peripheral>  (59) 
nan

>  <Num_H_Atoms_ProtBoundConf>  (59) 
nan

>  <Num_Resolved_Atoms>  (59) 
nan

>  <Num_Not_Resolved_Atoms>  (59) 
nan

$$$$
CHEMBL3699803
     RDKit          3D

  0  0  0  0  0  0  0  0  0  0999 V3000
M  V30 BEGIN CTAB
M  V30 COUNTS 44 47 0 0 0
M  V30 BEGIN ATOM
M  V30 1 O -0.333618 -2.350983 -0.024543 0
M  V30 2 C -0.168666 -2.359437 1.203324 0
M  V30 3 C 1.098881 -2.891673 1.793459 0
M  V30 4 C 2.194256 -1.876013 1.605487 0
M  V30 5 N 1.954338 -0.939950 0.656876 0
M  V30 6 C 2.802905 0.059659 0.351588 0
M  V30 7 N 2.307508 0.935325 -0.672798 0
M  V30 8 C 0.890306 0.909044 -0.985680 0
M  V30 9 C 0.783362 0.286269 -2.367227 0
M  V30 10 O 2.016659 0.449205 -3.038247 0
M  V30 11 C 2.415958 1.794969 -2.893887 0
M  V30 12 C 3.029099 1.884978 -1.486913 0
M  V30 13 C 3.995659 0.155147 1.032034 0
M  V30 14 C 4.232002 -0.808120 2.000240 0
M  V30 15 O 5.298623 -0.736970 2.623822 0
M  V30 16 N 3.352837 -1.787220 2.268914 0
M  V30 17 N -1.119369 -1.884735 2.110229 0
M  V30 18 C -1.121924 -1.805050 3.582293 0
M  V30 19 C -1.604325 -0.347385 3.715910 0
M  V30 20 C -2.720754 -0.359916 2.702982 0
M  V30 21 N -3.883034 0.324273 2.568475 0
M  V30 22 C -4.748132 0.157780 1.572231 0
M  V30 23 C -4.428546 -0.781942 0.610408 0
M  V30 24 C -3.263302 -1.515750 0.678562 0
M  V30 25 C -2.393310 -1.316118 1.725841 0
M  V30 26 H 1.341763 -3.804897 1.241189 0
M  V30 27 H 0.982622 -3.112316 2.858811 0
M  V30 28 H 0.434923 1.918009 -0.955669 0
M  V30 29 H 0.380628 0.272118 -0.252706 0
M  V30 30 H 0.592945 -0.805941 -2.295328 0
M  V30 31 H -0.042537 0.694754 -2.953901 0
M  V30 32 H 3.097879 2.102526 -3.679720 0
M  V30 33 H 1.487313 2.380855 -2.875000 0
M  V30 34 H 2.795035 2.925396 -1.126386 0
M  V30 35 H 4.124669 1.732582 -1.499339 0
M  V30 36 H 4.625454 0.962472 0.749487 0
M  V30 37 H 3.492492 -2.522855 2.989688 0
M  V30 38 H -1.906993 -2.478394 3.964187 0
M  V30 39 H -0.133219 -1.910076 4.016220 0
M  V30 40 H -0.767143 0.265309 3.332058 0
M  V30 41 H -1.925449 -0.095992 4.718245 0
M  V30 42 H -5.645735 0.771138 1.574345 0
M  V30 43 H -5.137673 -0.906506 -0.196743 0
M  V30 44 H -2.986504 -2.254389 -0.065232 0
M  V30 END ATOM
M  V30 BEGIN BOND
M  V30 1 2 1 2
M  V30 2 1 2 3
M  V30 3 1 3 4
M  V30 4 2 4 5
M  V30 5 1 5 6
M  V30 6 1 6 7
M  V30 7 1 7 8
M  V30 8 1 8 9
M  V30 9 1 9 10
M  V30 10 1 10 11
M  V30 11 1 11 12
M  V30 12 2 6 13
M  V30 13 1 13 14
M  V30 14 2 14 15
M  V30 15 1 14 16
M  V30 16 1 2 17
M  V30 17 1 17 18
M  V30 18 1 18 19
M  V30 19 1 19 20
M  V30 20 2 20 21
M  V30 21 1 21 22
M  V30 22 2 22 23
M  V30 23 1 23 24
M  V30 24 2 24 25
M  V30 25 1 16 4
M  V30 26 1 25 17
M  V30 27 1 12 7
M  V30 28 1 25 20
M  V30 29 1 3 26
M  V30 30 1 3 27
M  V30 31 1 8 28
M  V30 32 1 8 29
M  V30 33 1 9 30
M  V30 34 1 9 31
M  V30 35 1 11 32
M  V30 36 1 11 33
M  V30 37 1 12 34
M  V30 38 1 12 35
M  V30 39 1 13 36
M  V30 40 1 16 37
M  V30 41 1 18 38
M  V30 42 1 18 39
M  V30 43 1 19 40
M  V30 44 1 19 41
M  V30 45 1 22 42
M  V30 46 1 23 43
M  V30 47 1 24 44
M  V30 END BOND
M  V30 END CTAB
M  END
>  <Dataset>  (60) 
ChEMBL_Kinases

>  <Ligand_Instance>  (60) 
nan

>  <PDB_ID>  (60) 
nan

>  <Standardized_SMILES>  (60) 
O=C(Cc1nc(N2CCOCC2)cc(=O)[nH]1)N1CCc2ncccc21

>  <Name>  (60) 
nan

>  <Pocket>  (60) 
nan

>  <ATP_Site>  (60) 
nan

>  <Peripheral>  (60) 
nan

>  <Num_H_Atoms_ProtBoundConf>  (60) 
nan

>  <Num_Resolved_Atoms>  (60) 
nan

>  <Num_Not_Resolved_Atoms>  (60) 
nan

$$$$
CHEMBL3700434
     RDKit          3D

  0  0  0  0  0  0  0  0  0  0999 V3000
M  V30 BEGIN CTAB
M  V30 COUNTS 43 46 0 0 0
M  V30 BEGIN ATOM
M  V30 1 C 2.656968 -2.146613 5.062874 0
M  V30 2 C 2.880210 -2.263815 3.879465 0
M  V30 3 C 3.159787 -2.421421 2.474958 0
M  V30 4 C 4.196298 -3.221540 2.032319 0
M  V30 5 C 4.474056 -3.382060 0.673474 0
M  V30 6 C 3.670095 -2.707464 -0.222179 0
M  V30 7 C 2.620413 -1.894331 0.159022 0
M  V30 8 N 1.790346 -1.201551 -0.768869 0
M  V30 9 C 0.747579 -0.356692 -0.295203 0
M  V30 10 N 1.006192 0.949023 -0.104776 0
M  V30 11 C 0.053775 1.802927 0.345368 0
M  V30 12 C 0.380467 3.143287 0.521963 0
M  V30 13 C -0.607309 3.990070 0.980275 0
M  V30 14 C -0.318657 5.408071 1.182070 0
M  V30 15 O -1.094950 6.303587 1.589124 0
M  V30 16 O 0.945213 5.910493 0.914385 0
M  V30 17 C -1.877232 3.528658 1.255605 0
M  V30 18 C -2.206744 2.202053 1.082263 0
M  V30 19 C -1.220805 1.360366 0.625607 0
M  V30 20 C -1.486296 0.026839 0.431606 0
M  V30 21 C -2.738187 -0.478171 0.694075 0
M  V30 22 N -2.997191 -1.786777 0.504618 0
M  V30 23 C -2.041121 -2.632823 0.054927 0
M  V30 24 N -2.349269 -4.009055 -0.132827 0
M  V30 25 C -1.389395 -4.975966 -0.608726 0
M  V30 26 N -0.802957 -2.160242 -0.210111 0
M  V30 27 C -0.516445 -0.838601 -0.026081 0
M  V30 28 C 2.398816 -1.777784 1.512184 0
M  V30 29 H 2.479895 -2.046305 6.094169 0
M  V30 30 H 4.839475 -3.762335 2.732811 0
M  V30 31 H 5.292639 -4.015875 0.362511 0
M  V30 32 H 3.855746 -2.807119 -1.298051 0
M  V30 33 H 2.006538 -1.362710 -1.785394 0
M  V30 34 H 1.381249 3.485674 0.300374 0
M  V30 35 H 1.312598 6.786687 1.284681 0
M  V30 36 H -2.631185 4.240789 1.619008 0
M  V30 37 H -3.217709 1.924453 1.319062 0
M  V30 38 H -3.575351 0.061011 1.047514 0
M  V30 39 H -3.288940 -4.367159 0.069318 0
M  V30 40 H -0.613271 -4.527168 -1.243777 0
M  V30 41 H -0.877567 -5.484294 0.238298 0
M  V30 42 H -1.886767 -5.747564 -1.257732 0
M  V30 43 H 1.563957 -1.127934 1.798588 0
M  V30 END ATOM
M  V30 BEGIN BOND
M  V30 1 3 1 2
M  V30 2 1 2 3
M  V30 3 2 3 4
M  V30 4 1 4 5
M  V30 5 2 5 6
M  V30 6 1 6 7
M  V30 7 1 7 8
M  V30 8 1 8 9
M  V30 9 2 9 10
M  V30 10 1 10 11
M  V30 11 2 11 12
M  V30 12 1 12 13
M  V30 13 1 13 14
M  V30 14 2 14 15
M  V30 15 1 14 16
M  V30 16 2 13 17
M  V30 17 1 17 18
M  V30 18 2 18 19
M  V30 19 1 19 20
M  V30 20 2 20 21
M  V30 21 1 21 22
M  V30 22 2 22 23
M  V30 23 1 23 24
M  V30 24 1 24 25
M  V30 25 1 23 26
M  V30 26 2 26 27
M  V30 27 2 7 28
M  V30 28 1 28 3
M  V30 29 1 27 9
M  V30 30 1 19 11
M  V30 31 1 27 20
M  V30 32 1 1 29
M  V30 33 1 4 30
M  V30 34 1 5 31
M  V30 35 1 6 32
M  V30 36 1 8 33
M  V30 37 1 12 34
M  V30 38 1 16 35
M  V30 39 1 17 36
M  V30 40 1 18 37
M  V30 41 1 21 38
M  V30 42 1 24 39
M  V30 43 1 25 40
M  V30 44 1 25 41
M  V30 45 1 25 42
M  V30 46 1 28 43
M  V30 END BOND
M  V30 END CTAB
M  END
>  <Dataset>  (61) 
ChEMBL_Kinases

>  <Ligand_Instance>  (61) 
nan

>  <PDB_ID>  (61) 
nan

>  <Standardized_SMILES>  (61) 
C#Cc1cccc(Nc2nc3cc(C(=O)O)ccc3c3cnc(NC)nc23)c1

>  <Name>  (61) 
nan

>  <Pocket>  (61) 
nan

>  <ATP_Site>  (61) 
nan

>  <Peripheral>  (61) 
nan

>  <Num_H_Atoms_ProtBoundConf>  (61) 
nan

>  <Num_Resolved_Atoms>  (61) 
nan

>  <Num_Not_Resolved_Atoms>  (61) 
nan

$$$$
CHEMBL3700433
     RDKit          3D

  0  0  0  0  0  0  0  0  0  0999 V3000
M  V30 BEGIN CTAB
M  V30 COUNTS 62 66 0 0 0
M  V30 BEGIN ATOM
M  V30 1 C 1.385802 1.326881 7.132218 0
M  V30 2 C 1.604607 0.436457 6.316626 0
M  V30 3 C 1.836696 -0.591129 5.360248 0
M  V30 4 C 2.341180 -1.844709 5.698272 0
M  V30 5 C 2.542585 -2.773669 4.689652 0
M  V30 6 C 2.266680 -2.516891 3.358135 0
M  V30 7 C 1.764521 -1.285228 2.978344 0
M  V30 8 N 1.451361 -0.852691 1.655885 0
M  V30 9 C 0.700139 0.347983 1.456932 0
M  V30 10 N 1.128084 1.604568 1.553566 0
M  V30 11 C 0.322970 2.658317 1.330595 0
M  V30 12 C 0.898792 3.903502 1.465571 0
M  V30 13 C 0.081867 4.994392 1.237754 0
M  V30 14 C 0.600081 6.350836 1.359592 0
M  V30 15 O -0.130591 7.363575 1.137172 0
M  V30 16 O 1.885076 6.699873 1.715529 0
M  V30 17 C -1.243065 4.834421 0.892662 0
M  V30 18 C -1.760681 3.543303 0.773896 0
M  V30 19 C -0.987344 2.426991 0.991030 0
M  V30 20 C -1.520965 1.173958 0.866002 0
M  V30 21 C -2.834740 1.019162 0.517995 0
M  V30 22 N -3.227353 -0.264099 0.423116 0
M  V30 23 C -2.423483 -1.312191 0.644280 0
M  V30 24 N -3.030203 -2.574113 0.490253 0
M  V30 25 C -3.417938 -3.623694 -0.419409 0
M  V30 26 C -2.285483 -4.226359 -1.205087 0
M  V30 27 C -1.600116 -3.223282 -2.057983 0
M  V30 28 N -0.520391 -3.721094 -2.832124 0
M  V30 29 C -0.874951 -4.616022 -3.878876 0
M  V30 30 C 0.193409 -4.820992 -4.904013 0
M  V30 31 O 1.473374 -4.662703 -4.396873 0
M  V30 32 C 1.706621 -3.434911 -3.820619 0
M  V30 33 C 0.577521 -2.866059 -3.029314 0
M  V30 34 N -1.142787 -1.104289 0.983982 0
M  V30 35 C -0.637724 0.143585 1.109427 0
M  V30 36 C 1.576733 -0.379380 4.028687 0
M  V30 37 H 1.191031 2.097390 7.816333 0
M  V30 38 H 2.548656 -2.021829 6.738947 0
M  V30 39 H 2.936973 -3.744294 4.973337 0
M  V30 40 H 2.416482 -3.219783 2.567693 0
M  V30 41 H 1.829157 -1.501050 0.943371 0
M  V30 42 H 1.947946 4.021306 1.738300 0
M  V30 43 H 2.090665 7.455476 2.385637 0
M  V30 44 H -1.846891 5.731595 0.722859 0
M  V30 45 H -2.797320 3.546203 0.500981 0
M  V30 46 H -3.533093 1.790239 0.326870 0
M  V30 47 H -3.248480 -2.710734 1.509284 0
M  V30 48 H -4.033237 -4.396190 0.091593 0
M  V30 49 H -4.151253 -3.132418 -1.128715 0
M  V30 50 H -2.744148 -5.045187 -1.828577 0
M  V30 51 H -1.626446 -4.731020 -0.472441 0
M  V30 52 H -2.373958 -2.864828 -2.801558 0
M  V30 53 H -1.265262 -2.358316 -1.478357 0
M  V30 54 H -1.281024 -5.554931 -3.444850 0
M  V30 55 H -1.737893 -4.134001 -4.426246 0
M  V30 56 H 0.106408 -5.859408 -5.279117 0
M  V30 57 H 0.052056 -4.163597 -5.801296 0
M  V30 58 H 2.581863 -3.580261 -3.131578 0
M  V30 59 H 2.104748 -2.752065 -4.614881 0
M  V30 60 H 0.226326 -1.951978 -3.572201 0
M  V30 61 H 0.922545 -2.475169 -2.041808 0
M  V30 62 H 1.182684 0.598310 3.767001 0
M  V30 END ATOM
M  V30 BEGIN BOND
M  V30 1 3 1 2
M  V30 2 1 2 3
M  V30 3 2 3 4
M  V30 4 1 4 5
M  V30 5 2 5 6
M  V30 6 1 6 7
M  V30 7 1 7 8
M  V30 8 1 8 9
M  V30 9 2 9 10
M  V30 10 1 10 11
M  V30 11 2 11 12
M  V30 12 1 12 13
M  V30 13 1 13 14
M  V30 14 2 14 15
M  V30 15 1 14 16
M  V30 16 2 13 17
M  V30 17 1 17 18
M  V30 18 2 18 19
M  V30 19 1 19 20
M  V30 20 2 20 21
M  V30 21 1 21 22
M  V30 22 2 22 23
M  V30 23 1 23 24
M  V30 24 1 24 25
M  V30 25 1 25 26
M  V30 26 1 26 27
M  V30 27 1 27 28
M  V30 28 1 28 29
M  V30 29 1 29 30
M  V30 30 1 30 31
M  V30 31 1 31 32
M  V30 32 1 32 33
M  V30 33 1 23 34
M  V30 34 2 34 35
M  V30 35 2 7 36
M  V30 36 1 36 3
M  V30 37 1 35 9
M  V30 38 1 19 11
M  V30 39 1 35 20
M  V30 40 1 33 28
M  V30 41 1 1 37
M  V30 42 1 4 38
M  V30 43 1 5 39
M  V30 44 1 6 40
M  V30 45 1 8 41
M  V30 46 1 12 42
M  V30 47 1 16 43
M  V30 48 1 17 44
M  V30 49 1 18 45
M  V30 50 1 21 46
M  V30 51 1 24 47
M  V30 52 1 25 48
M  V30 53 1 25 49
M  V30 54 1 26 50
M  V30 55 1 26 51
M  V30 56 1 27 52
M  V30 57 1 27 53
M  V30 58 1 29 54
M  V30 59 1 29 55
M  V30 60 1 30 56
M  V30 61 1 30 57
M  V30 62 1 32 58
M  V30 63 1 32 59
M  V30 64 1 33 60
M  V30 65 1 33 61
M  V30 66 1 36 62
M  V30 END BOND
M  V30 END CTAB
M  END
>  <Dataset>  (62) 
ChEMBL_Kinases

>  <Ligand_Instance>  (62) 
nan

>  <PDB_ID>  (62) 
nan

>  <Standardized_SMILES>  (62) 
C#Cc1cccc(Nc2nc3cc(C(=O)O)ccc3c3cnc(NCCCN4CCOCC4)nc23)c1

>  <Name>  (62) 
nan

>  <Pocket>  (62) 
nan

>  <ATP_Site>  (62) 
nan

>  <Peripheral>  (62) 
nan

>  <Num_H_Atoms_ProtBoundConf>  (62) 
nan

>  <Num_Resolved_Atoms>  (62) 
nan

>  <Num_Not_Resolved_Atoms>  (62) 
nan

$$$$
CHEMBL3700432
     RDKit          3D

  0  0  0  0  0  0  0  0  0  0999 V3000
M  V30 BEGIN CTAB
M  V30 COUNTS 55 59 0 0 0
M  V30 BEGIN ATOM
M  V30 1 C 2.678545 -4.123407 3.212257 0
M  V30 2 C 2.725219 -3.612169 2.118134 0
M  V30 3 C 2.758044 -3.012989 0.818436 0
M  V30 4 C 3.373295 -3.611519 -0.275209 0
M  V30 5 C 3.400945 -3.043170 -1.524409 0
M  V30 6 C 2.801545 -1.820302 -1.752014 0
M  V30 7 C 2.182304 -1.199479 -0.687441 0
M  V30 8 N 1.559065 0.052221 -0.937168 0
M  V30 9 C 0.929234 0.983615 -0.068839 0
M  V30 10 N 1.652905 2.044737 0.367535 0
M  V30 11 C 1.044006 2.936892 1.207350 0
M  V30 12 C 1.752902 4.040822 1.673805 0
M  V30 13 C 1.147796 4.952318 2.522469 0
M  V30 14 C 1.858738 6.122862 3.031823 0
M  V30 15 O 1.333881 6.942885 3.793588 0
M  V30 16 O 3.175781 6.328126 2.649125 0
M  V30 17 C -0.170107 4.778465 2.918480 0
M  V30 18 C -0.871241 3.670747 2.445924 0
M  V30 19 C -0.263939 2.771054 1.603962 0
M  V30 20 C -0.954466 1.680664 1.134535 0
M  V30 21 C -2.260199 1.489894 1.517695 0
M  V30 22 N -2.929854 0.424600 1.061498 0
M  V30 23 C -2.388743 -0.490332 0.232824 0
M  V30 24 N -3.123198 -1.628558 -0.243682 0
M  V30 25 C -2.591259 -2.624351 -1.114369 0
M  V30 26 C -3.667288 -3.651858 -1.402744 0
M  V30 27 C -3.203107 -5.067156 -1.331682 0
M  V30 28 N -2.486156 -5.421709 -0.145995 0
M  V30 29 C -1.800686 -4.306468 0.471620 0
M  V30 30 C -1.387446 -3.351422 -0.604562 0
M  V30 31 N -1.110674 -0.276166 -0.124356 0
M  V30 32 C -0.388186 0.753470 0.287310 0
M  V30 33 C 2.180504 -1.802865 0.540525 0
M  V30 34 H 2.633553 -4.576873 4.179194 0
M  V30 35 H 3.857486 -4.569624 -0.147665 0
M  V30 36 H 3.896108 -3.564118 -2.330798 0
M  V30 37 H 2.847962 -1.414993 -2.744095 0
M  V30 38 H 1.483297 0.474042 -1.864871 0
M  V30 39 H 2.780982 4.223586 1.394609 0
M  V30 40 H 3.805268 7.000742 3.084116 0
M  V30 41 H -0.620033 5.514804 3.588767 0
M  V30 42 H -1.881798 3.616131 2.803438 0
M  V30 43 H -2.843692 2.093983 2.153510 0
M  V30 44 H -4.125720 -1.689097 0.103142 0
M  V30 45 H -2.306105 -2.218660 -2.120209 0
M  V30 46 H -4.515137 -3.541548 -0.671907 0
M  V30 47 H -4.138087 -3.518241 -2.403503 0
M  V30 48 H -2.681962 -5.399566 -2.277507 0
M  V30 49 H -4.138327 -5.699040 -1.329165 0
M  V30 50 H -1.740521 -6.124434 -0.426615 0
M  V30 51 H -0.908170 -4.687453 1.046264 0
M  V30 52 H -2.538474 -3.805215 1.114542 0
M  V30 53 H -1.034087 -3.993100 -1.463212 0
M  V30 54 H -0.532530 -2.702554 -0.331541 0
M  V30 55 H 1.686908 -1.289160 1.354331 0
M  V30 END ATOM
M  V30 BEGIN BOND
M  V30 1 3 1 2
M  V30 2 1 2 3
M  V30 3 2 3 4
M  V30 4 1 4 5
M  V30 5 2 5 6
M  V30 6 1 6 7
M  V30 7 1 7 8
M  V30 8 1 8 9
M  V30 9 2 9 10
M  V30 10 1 10 11
M  V30 11 2 11 12
M  V30 12 1 12 13
M  V30 13 1 13 14
M  V30 14 2 14 15
M  V30 15 1 14 16
M  V30 16 2 13 17
M  V30 17 1 17 18
M  V30 18 2 18 19
M  V30 19 1 19 20
M  V30 20 2 20 21
M  V30 21 1 21 22
M  V30 22 2 22 23
M  V30 23 1 23 24
M  V30 24 1 24 25
M  V30 25 1 25 26
M  V30 26 1 26 27
M  V30 27 1 27 28
M  V30 28 1 28 29
M  V30 29 1 29 30
M  V30 30 1 23 31
M  V30 31 2 31 32
M  V30 32 2 7 33
M  V30 33 1 33 3
M  V30 34 1 32 9
M  V30 35 1 19 11
M  V30 36 1 32 20
M  V30 37 1 30 25
M  V30 38 1 1 34
M  V30 39 1 4 35
M  V30 40 1 5 36
M  V30 41 1 6 37
M  V30 42 1 8 38
M  V30 43 1 12 39
M  V30 44 1 16 40
M  V30 45 1 17 41
M  V30 46 1 18 42
M  V30 47 1 21 43
M  V30 48 1 24 44
M  V30 49 1 25 45
M  V30 50 1 26 46
M  V30 51 1 26 47
M  V30 52 1 27 48
M  V30 53 1 27 49
M  V30 54 1 28 50
M  V30 55 1 29 51
M  V30 56 1 29 52
M  V30 57 1 30 53
M  V30 58 1 30 54
M  V30 59 1 33 55
M  V30 END BOND
M  V30 END CTAB
M  END
>  <Dataset>  (63) 
ChEMBL_Kinases

>  <Ligand_Instance>  (63) 
nan

>  <PDB_ID>  (63) 
nan

>  <Standardized_SMILES>  (63) 
C#Cc1cccc(Nc2nc3cc(C(=O)O)ccc3c3cnc(NC4CCNCC4)nc23)c1

>  <Name>  (63) 
nan

>  <Pocket>  (63) 
nan

>  <ATP_Site>  (63) 
nan

>  <Peripheral>  (63) 
nan

>  <Num_H_Atoms_ProtBoundConf>  (63) 
nan

>  <Num_Resolved_Atoms>  (63) 
nan

>  <Num_Not_Resolved_Atoms>  (63) 
nan

$$$$
CHEMBL3700431
     RDKit          3D

  0  0  0  0  0  0  0  0  0  0999 V3000
M  V30 BEGIN CTAB
M  V30 COUNTS 50 53 0 0 0
M  V30 BEGIN ATOM
M  V30 1 C 4.923899 -5.522023 3.170261 0
M  V30 2 C 4.254392 -4.532197 3.014556 0
M  V30 3 C 3.444324 -3.360818 2.811112 0
M  V30 4 C 2.745127 -2.811185 3.890271 0
M  V30 5 C 1.972467 -1.689400 3.683190 0
M  V30 6 C 1.862880 -1.080153 2.429058 0
M  V30 7 C 2.561121 -1.631512 1.358149 0
M  V30 8 N 2.459625 -1.015634 0.056027 0
M  V30 9 C 1.621328 0.138620 0.005829 0
M  V30 10 N 2.071000 1.394599 0.219675 0
M  V30 11 C 1.254668 2.467615 0.165854 0
M  V30 12 C 1.843386 3.693438 0.404104 0
M  V30 13 C 1.005354 4.786821 0.348058 0
M  V30 14 C 1.556689 6.132970 0.591012 0
M  V30 15 O 0.840019 7.186340 0.554780 0
M  V30 16 O 2.922150 6.280712 0.874953 0
M  V30 17 C -0.341691 4.693874 0.073402 0
M  V30 18 C -0.919216 3.463752 -0.163078 0
M  V30 19 C -0.092363 2.368692 -0.109400 0
M  V30 20 C -0.589529 1.107440 -0.333121 0
M  V30 21 C -1.923579 0.929673 -0.613649 0
M  V30 22 N -2.359710 -0.337653 -0.825941 0
M  V30 23 C -1.511559 -1.388575 -0.763651 0
M  V30 24 N -2.009435 -2.699803 -0.992489 0
M  V30 25 C -3.394084 -2.940918 -1.288847 0
M  V30 26 C -3.702459 -4.399158 -1.495616 0
M  V30 27 O -3.427751 -5.198919 -0.416212 0
M  V30 28 C -4.147774 -4.838428 0.722173 0
M  V30 29 N -0.208010 -1.202188 -0.488261 0
M  V30 30 C 0.273544 0.034441 -0.270089 0
M  V30 31 C 3.342482 -2.766694 1.569662 0
M  V30 32 H 5.510474 -6.404344 3.294293 0
M  V30 33 H 2.811096 -3.266582 4.886438 0
M  V30 34 H 1.427931 -1.265180 4.533960 0
M  V30 35 H 1.239730 -0.200253 2.329232 0
M  V30 36 H 2.990767 -1.449569 -0.721820 0
M  V30 37 H 2.884187 3.884400 0.628200 0
M  V30 38 H 3.373972 7.177197 0.994974 0
M  V30 39 H -0.975554 5.594003 0.038327 0
M  V30 40 H -1.971744 3.448627 -0.371977 0
M  V30 41 H -2.662998 1.681857 -0.684340 0
M  V30 42 H -1.364166 -3.518548 -0.947329 0
M  V30 43 H -4.038000 -2.531569 -0.509856 0
M  V30 44 H -3.633569 -2.405341 -2.251283 0
M  V30 45 H -4.780135 -4.468253 -1.781517 0
M  V30 46 H -3.123028 -4.770109 -2.361745 0
M  V30 47 H -5.248503 -4.892076 0.578536 0
M  V30 48 H -3.928929 -5.515451 1.572693 0
M  V30 49 H -3.808579 -3.832970 1.038082 0
M  V30 50 H 3.871273 -3.171006 0.722623 0
M  V30 END ATOM
M  V30 BEGIN BOND
M  V30 1 3 1 2
M  V30 2 1 2 3
M  V30 3 2 3 4
M  V30 4 1 4 5
M  V30 5 2 5 6
M  V30 6 1 6 7
M  V30 7 1 7 8
M  V30 8 1 8 9
M  V30 9 2 9 10
M  V30 10 1 10 11
M  V30 11 2 11 12
M  V30 12 1 12 13
M  V30 13 1 13 14
M  V30 14 2 14 15
M  V30 15 1 14 16
M  V30 16 2 13 17
M  V30 17 1 17 18
M  V30 18 2 18 19
M  V30 19 1 19 20
M  V30 20 2 20 21
M  V30 21 1 21 22
M  V30 22 2 22 23
M  V30 23 1 23 24
M  V30 24 1 24 25
M  V30 25 1 25 26
M  V30 26 1 26 27
M  V30 27 1 27 28
M  V30 28 1 23 29
M  V30 29 2 29 30
M  V30 30 2 7 31
M  V30 31 1 31 3
M  V30 32 1 30 9
M  V30 33 1 19 11
M  V30 34 1 30 20
M  V30 35 1 1 32
M  V30 36 1 4 33
M  V30 37 1 5 34
M  V30 38 1 6 35
M  V30 39 1 8 36
M  V30 40 1 12 37
M  V30 41 1 16 38
M  V30 42 1 17 39
M  V30 43 1 18 40
M  V30 44 1 21 41
M  V30 45 1 24 42
M  V30 46 1 25 43
M  V30 47 1 25 44
M  V30 48 1 26 45
M  V30 49 1 26 46
M  V30 50 1 28 47
M  V30 51 1 28 48
M  V30 52 1 28 49
M  V30 53 1 31 50
M  V30 END BOND
M  V30 END CTAB
M  END
>  <Dataset>  (64) 
ChEMBL_Kinases

>  <Ligand_Instance>  (64) 
nan

>  <PDB_ID>  (64) 
nan

>  <Standardized_SMILES>  (64) 
C#Cc1cccc(Nc2nc3cc(C(=O)O)ccc3c3cnc(NCCOC)nc23)c1

>  <Name>  (64) 
nan

>  <Pocket>  (64) 
nan

>  <ATP_Site>  (64) 
nan

>  <Peripheral>  (64) 
nan

>  <Num_H_Atoms_ProtBoundConf>  (64) 
nan

>  <Num_Resolved_Atoms>  (64) 
nan

>  <Num_Not_Resolved_Atoms>  (64) 
nan

$$$$
CHEMBL3700430
     RDKit          3D

  0  0  0  0  0  0  0  0  0  0999 V3000
M  V30 BEGIN CTAB
M  V30 COUNTS 49 52 0 0 0
M  V30 BEGIN ATOM
M  V30 1 C 3.328854 -6.852517 0.349992 0
M  V30 2 C 3.002853 -5.763826 0.770352 0
M  V30 3 C 2.611322 -4.477788 1.261828 0
M  V30 4 C 2.738145 -4.108946 2.600146 0
M  V30 5 C 2.346276 -2.844430 3.051325 0
M  V30 6 C 1.833923 -2.002548 2.092935 0
M  V30 7 C 1.702900 -2.354147 0.766313 0
M  V30 8 N 1.164529 -1.438878 -0.179932 0
M  V30 9 C 0.738511 -0.132159 0.192534 0
M  V30 10 N 1.542656 0.945515 0.181864 0
M  V30 11 C 1.113076 2.177497 0.540193 0
M  V30 12 C 1.994759 3.246366 0.506691 0
M  V30 13 C 1.501716 4.501674 0.887159 0
M  V30 14 C 2.397699 5.670838 0.869569 0
M  V30 15 O 2.025426 6.833470 1.198702 0
M  V30 16 O 3.724341 5.500836 0.472306 0
M  V30 17 C 0.192414 4.719295 1.289248 0
M  V30 18 C -0.683683 3.639913 1.319187 0
M  V30 19 C -0.184403 2.415154 0.942969 0
M  V30 20 C -0.996758 1.305584 0.949722 0
M  V30 21 C -2.313254 1.420031 1.333592 0
M  V30 22 N -3.131848 0.352905 1.350289 0
M  V30 23 C -2.670165 -0.876650 0.983685 0
M  V30 24 N -3.499498 -2.015606 0.993074 0
M  V30 25 C -3.097995 -3.351254 0.609674 0
M  V30 26 C -2.677928 -3.338469 -0.844262 0
M  V30 27 C -3.818685 -2.889489 -1.728154 0
M  V30 28 N -1.391570 -1.039432 0.600773 0
M  V30 29 C -0.588211 0.038358 0.590316 0
M  V30 30 C 2.094362 -3.600030 0.348939 0
M  V30 31 H 3.596676 -7.809171 -0.013899 0
M  V30 32 H 3.154722 -4.853398 3.264519 0
M  V30 33 H 2.456065 -2.585857 4.094069 0
M  V30 34 H 1.534012 -1.019351 2.467715 0
M  V30 35 H 1.064612 -1.694147 -1.174159 0
M  V30 36 H 3.028626 3.135798 0.201089 0
M  V30 37 H 4.466767 6.131980 0.699403 0
M  V30 38 H -0.133513 5.713503 1.572810 0
M  V30 39 H -1.661370 3.841139 1.627016 0
M  V30 40 H -2.812688 2.294447 1.641280 0
M  V30 41 H -4.505011 -1.871556 1.310554 0
M  V30 42 H -3.917643 -4.063383 0.775863 0
M  V30 43 H -2.215492 -3.700058 1.212293 0
M  V30 44 H -1.808676 -2.683702 -1.039334 0
M  V30 45 H -2.393278 -4.365435 -1.189500 0
M  V30 46 H -4.324628 -2.017581 -1.274526 0
M  V30 47 H -3.407980 -2.615500 -2.711129 0
M  V30 48 H -4.510324 -3.771463 -1.820450 0
M  V30 49 H 1.982258 -3.854984 -0.699044 0
M  V30 END ATOM
M  V30 BEGIN BOND
M  V30 1 3 1 2
M  V30 2 1 2 3
M  V30 3 2 3 4
M  V30 4 1 4 5
M  V30 5 2 5 6
M  V30 6 1 6 7
M  V30 7 1 7 8
M  V30 8 1 8 9
M  V30 9 2 9 10
M  V30 10 1 10 11
M  V30 11 2 11 12
M  V30 12 1 12 13
M  V30 13 1 13 14
M  V30 14 2 14 15
M  V30 15 1 14 16
M  V30 16 2 13 17
M  V30 17 1 17 18
M  V30 18 2 18 19
M  V30 19 1 19 20
M  V30 20 2 20 21
M  V30 21 1 21 22
M  V30 22 2 22 23
M  V30 23 1 23 24
M  V30 24 1 24 25
M  V30 25 1 25 26
M  V30 26 1 26 27
M  V30 27 1 23 28
M  V30 28 2 28 29
M  V30 29 2 7 30
M  V30 30 1 30 3
M  V30 31 1 29 9
M  V30 32 1 19 11
M  V30 33 1 29 20
M  V30 34 1 1 31
M  V30 35 1 4 32
M  V30 36 1 5 33
M  V30 37 1 6 34
M  V30 38 1 8 35
M  V30 39 1 12 36
M  V30 40 1 16 37
M  V30 41 1 17 38
M  V30 42 1 18 39
M  V30 43 1 21 40
M  V30 44 1 24 41
M  V30 45 1 25 42
M  V30 46 1 25 43
M  V30 47 1 26 44
M  V30 48 1 26 45
M  V30 49 1 27 46
M  V30 50 1 27 47
M  V30 51 1 27 48
M  V30 52 1 30 49
M  V30 END BOND
M  V30 END CTAB
M  END
>  <Dataset>  (65) 
ChEMBL_Kinases

>  <Ligand_Instance>  (65) 
nan

>  <PDB_ID>  (65) 
nan

>  <Standardized_SMILES>  (65) 
C#Cc1cccc(Nc2nc3cc(C(=O)O)ccc3c3cnc(NCCC)nc23)c1

>  <Name>  (65) 
nan

>  <Pocket>  (65) 
nan

>  <ATP_Site>  (65) 
nan

>  <Peripheral>  (65) 
nan

>  <Num_H_Atoms_ProtBoundConf>  (65) 
nan

>  <Num_Resolved_Atoms>  (65) 
nan

>  <Num_Not_Resolved_Atoms>  (65) 
nan

$$$$
CHEMBL3700429
     RDKit          3D

  0  0  0  0  0  0  0  0  0  0999 V3000
M  V30 BEGIN CTAB
M  V30 COUNTS 60 64 0 0 0
M  V30 BEGIN ATOM
M  V30 1 O 6.746366 1.105778 -2.947685 0
M  V30 2 C 6.222016 1.442150 -1.848901 0
M  V30 3 O 6.997258 2.027489 -0.879585 0
M  V30 4 C 4.784384 1.181134 -1.671498 0
M  V30 5 C 4.101807 0.586167 -2.714551 0
M  V30 6 C 2.752717 0.328842 -2.576107 0
M  V30 7 C 2.136700 0.677778 -1.395491 0
M  V30 8 C 2.808089 1.271372 -0.349226 0
M  V30 9 C 4.170764 1.534000 -0.483039 0
M  V30 10 N 2.180718 1.601281 0.791607 0
M  V30 11 C 0.879800 1.400705 1.038170 0
M  V30 12 N 0.153232 1.718598 2.207430 0
M  V30 13 C 0.667849 2.284609 3.398000 0
M  V30 14 C 2.018701 2.418007 3.694034 0
M  V30 15 C 2.431248 2.989269 4.872549 0
M  V30 16 C 1.558449 3.458232 5.819873 0
M  V30 17 C 0.216306 3.337451 5.549363 0
M  V30 18 C -0.173458 2.765545 4.370067 0
M  V30 19 C 0.180048 0.796965 -0.016435 0
M  V30 20 N -1.149573 0.526627 0.095159 0
M  V30 21 C -1.877398 -0.056237 -0.878596 0
M  V30 22 N -3.203194 -0.173110 -0.400725 0
M  V30 23 C -3.893093 -1.132279 0.376850 0
M  V30 24 C -4.102174 -2.492617 -0.163258 0
M  V30 25 C -2.914059 -3.292488 -0.526929 0
M  V30 26 N -3.345802 -4.587985 -1.025349 0
M  V30 27 C -2.185277 -5.332215 -1.544244 0
M  V30 28 C -1.278104 -5.761078 -0.412345 0
M  V30 29 O -1.986799 -6.639506 0.392902 0
M  V30 30 C -3.025256 -5.930679 0.996557 0
M  V30 31 C -4.005399 -5.404542 -0.024908 0
M  V30 32 N -1.246584 -0.390276 -2.033482 0
M  V30 33 C 0.064807 -0.146353 -2.196859 0
M  V30 34 C 0.797114 0.448279 -1.196087 0
M  V30 35 H 7.952175 1.656871 -0.750363 0
M  V30 36 H 4.602927 0.316953 -3.638284 0
M  V30 37 H 2.254033 -0.135879 -3.407651 0
M  V30 38 H 4.764502 1.999212 0.298301 0
M  V30 39 H -0.879079 1.521694 2.216077 0
M  V30 40 H 2.757373 2.074620 3.010066 0
M  V30 41 H 3.512180 3.071321 5.061031 0
M  V30 42 H 1.884298 3.901957 6.740789 0
M  V30 43 H -0.515455 3.701793 6.281837 0
M  V30 44 H -1.249673 2.705222 4.227081 0
M  V30 45 H -3.755549 0.667660 -0.725575 0
M  V30 46 H -4.881024 -0.767438 0.745825 0
M  V30 47 H -3.295587 -1.256796 1.333358 0
M  V30 48 H -4.797385 -2.447211 -1.032057 0
M  V30 49 H -4.666115 -3.054675 0.645183 0
M  V30 50 H -2.415055 -2.808946 -1.405211 0
M  V30 51 H -2.222014 -3.371815 0.347834 0
M  V30 52 H -1.695748 -4.721653 -2.300182 0
M  V30 53 H -2.637500 -6.263496 -1.967567 0
M  V30 54 H -0.386666 -6.255967 -0.860640 0
M  V30 55 H -0.879731 -4.879297 0.134480 0
M  V30 56 H -3.572484 -6.654033 1.636870 0
M  V30 57 H -2.594828 -5.158216 1.634049 0
M  V30 58 H -4.350706 -6.322439 -0.587943 0
M  V30 59 H -4.851905 -4.959181 0.456091 0
M  V30 60 H 0.393487 -0.466139 -3.145792 0
M  V30 END ATOM
M  V30 BEGIN BOND
M  V30 1 2 1 2
M  V30 2 1 2 3
M  V30 3 1 2 4
M  V30 4 2 4 5
M  V30 5 1 5 6
M  V30 6 2 6 7
M  V30 7 1 7 8
M  V30 8 2 8 9
M  V30 9 1 8 10
M  V30 10 2 10 11
M  V30 11 1 11 12
M  V30 12 1 12 13
M  V30 13 2 13 14
M  V30 14 1 14 15
M  V30 15 2 15 16
M  V30 16 1 16 17
M  V30 17 2 17 18
M  V30 18 1 11 19
M  V30 19 2 19 20
M  V30 20 1 20 21
M  V30 21 1 21 22
M  V30 22 1 22 23
M  V30 23 1 23 24
M  V30 24 1 24 25
M  V30 25 1 25 26
M  V30 26 1 26 27
M  V30 27 1 27 28
M  V30 28 1 28 29
M  V30 29 1 29 30
M  V30 30 1 30 31
M  V30 31 2 21 32
M  V30 32 1 32 33
M  V30 33 2 33 34
M  V30 34 1 9 4
M  V30 35 1 18 13
M  V30 36 1 34 19
M  V30 37 1 34 7
M  V30 38 1 31 26
M  V30 39 1 3 35
M  V30 40 1 5 36
M  V30 41 1 6 37
M  V30 42 1 9 38
M  V30 43 1 12 39
M  V30 44 1 14 40
M  V30 45 1 15 41
M  V30 46 1 16 42
M  V30 47 1 17 43
M  V30 48 1 18 44
M  V30 49 1 22 45
M  V30 50 1 23 46
M  V30 51 1 23 47
M  V30 52 1 24 48
M  V30 53 1 24 49
M  V30 54 1 25 50
M  V30 55 1 25 51
M  V30 56 1 27 52
M  V30 57 1 27 53
M  V30 58 1 28 54
M  V30 59 1 28 55
M  V30 60 1 30 56
M  V30 61 1 30 57
M  V30 62 1 31 58
M  V30 63 1 31 59
M  V30 64 1 33 60
M  V30 END BOND
M  V30 END CTAB
M  END
>  <Dataset>  (66) 
ChEMBL_Kinases

>  <Ligand_Instance>  (66) 
nan

>  <PDB_ID>  (66) 
nan

>  <Standardized_SMILES>  (66) 
O=C(O)c1ccc2c(c1)nc(Nc1ccccc1)c1nc(NCCCN3CCOCC3)ncc12

>  <Name>  (66) 
nan

>  <Pocket>  (66) 
nan

>  <ATP_Site>  (66) 
nan

>  <Peripheral>  (66) 
nan

>  <Num_H_Atoms_ProtBoundConf>  (66) 
nan

>  <Num_Resolved_Atoms>  (66) 
nan

>  <Num_Not_Resolved_Atoms>  (66) 
nan

$$$$
CHEMBL3700428
     RDKit          3D

  0  0  0  0  0  0  0  0  0  0999 V3000
M  V30 BEGIN CTAB
M  V30 COUNTS 57 61 0 0 0
M  V30 BEGIN ATOM
M  V30 1 O 5.478438 -5.838853 0.034201 0
M  V30 2 C 5.371772 -4.727328 0.656287 0
M  V30 3 O 6.429139 -5.318231 1.245939 0
M  V30 4 C 4.315279 -3.763524 0.308572 0
M  V30 5 C 3.513834 -4.170587 -0.721441 0
M  V30 6 C 2.518394 -3.284797 -1.065307 0
M  V30 7 C 2.428545 -2.110019 -0.359079 0
M  V30 8 C 3.249967 -1.721191 0.677205 0
M  V30 9 C 4.276483 -2.606940 1.048982 0
M  V30 10 N 3.077100 -0.551601 1.313365 0
M  V30 11 C 2.122991 0.345458 1.038079 0
M  V30 12 N 1.979731 1.587853 1.699369 0
M  V30 13 C 0.762660 2.173785 2.173065 0
M  V30 14 C 0.581808 3.548562 2.048103 0
M  V30 15 C -0.554379 4.271449 2.487955 0
M  V30 16 C -1.315805 3.297616 3.009024 0
M  V30 17 C -1.508064 2.026997 3.298528 0
M  V30 18 C -0.287454 1.440547 2.797776 0
M  V30 19 C 1.279680 -0.008259 0.010262 0
M  V30 20 N 0.297052 0.894419 -0.303365 0
M  V30 21 C -0.554457 0.627140 -1.302807 0
M  V30 22 N -1.619991 1.478187 -1.692769 0
M  V30 23 C -2.964203 1.299953 -1.118215 0
M  V30 24 C -3.531525 -0.060061 -1.414667 0
M  V30 25 N -2.810837 -1.170631 -0.935933 0
M  V30 26 C -3.411447 -2.402692 -1.359456 0
M  V30 27 C -3.275657 -3.493413 -0.314257 0
M  V30 28 O -3.930519 -3.125287 0.838665 0
M  V30 29 C -3.392085 -1.973526 1.337060 0
M  V30 30 C -2.477358 -1.203847 0.454498 0
M  V30 31 N -0.417600 -0.522156 -1.974735 0
M  V30 32 C 0.514633 -1.419327 -1.707222 0
M  V30 33 C 1.434016 -1.197698 -0.665556 0
M  V30 34 H 6.628355 -5.529968 2.196243 0
M  V30 35 H 3.626856 -5.102413 -1.247932 0
M  V30 36 H 1.862100 -3.572824 -1.868010 0
M  V30 37 H 4.948540 -2.360938 1.852038 0
M  V30 38 H 2.855749 2.110498 1.847120 0
M  V30 39 H 1.395010 4.102184 1.567372 0
M  V30 40 H -0.723036 5.300419 2.407027 0
M  V30 41 H -2.277194 3.778750 3.396648 0
M  V30 42 H -2.180543 1.340480 3.729666 0
M  V30 43 H 0.014220 0.376567 2.821493 0
M  V30 44 H -1.392201 2.214437 -2.390724 0
M  V30 45 H -3.607930 2.014398 -1.690432 0
M  V30 46 H -3.030644 1.626628 -0.077227 0
M  V30 47 H -4.607901 -0.031859 -1.126832 0
M  V30 48 H -3.539957 -0.122665 -2.537605 0
M  V30 49 H -4.444526 -2.313585 -1.732210 0
M  V30 50 H -2.799675 -2.770676 -2.228765 0
M  V30 51 H -3.690942 -4.442359 -0.714012 0
M  V30 52 H -2.194221 -3.697859 -0.132069 0
M  V30 53 H -4.246073 -1.315708 1.687669 0
M  V30 54 H -2.894696 -2.256151 2.306960 0
M  V30 55 H -2.319170 -0.203229 0.879183 0
M  V30 56 H -1.449222 -1.680496 0.494540 0
M  V30 57 H 0.548977 -2.299376 -2.291176 0
M  V30 END ATOM
M  V30 BEGIN BOND
M  V30 1 2 1 2
M  V30 2 1 2 3
M  V30 3 1 2 4
M  V30 4 2 4 5
M  V30 5 1 5 6
M  V30 6 2 6 7
M  V30 7 1 7 8
M  V30 8 2 8 9
M  V30 9 1 8 10
M  V30 10 2 10 11
M  V30 11 1 11 12
M  V30 12 1 12 13
M  V30 13 2 13 14
M  V30 14 1 14 15
M  V30 15 2 15 16
M  V30 16 1 16 17
M  V30 17 2 17 18
M  V30 18 1 11 19
M  V30 19 2 19 20
M  V30 20 1 20 21
M  V30 21 1 21 22
M  V30 22 1 22 23
M  V30 23 1 23 24
M  V30 24 1 24 25
M  V30 25 1 25 26
M  V30 26 1 26 27
M  V30 27 1 27 28
M  V30 28 1 28 29
M  V30 29 1 29 30
M  V30 30 2 21 31
M  V30 31 1 31 32
M  V30 32 2 32 33
M  V30 33 1 9 4
M  V30 34 1 18 13
M  V30 35 1 33 19
M  V30 36 1 33 7
M  V30 37 1 30 25
M  V30 38 1 3 34
M  V30 39 1 5 35
M  V30 40 1 6 36
M  V30 41 1 9 37
M  V30 42 1 12 38
M  V30 43 1 14 39
M  V30 44 1 15 40
M  V30 45 1 16 41
M  V30 46 1 17 42
M  V30 47 1 18 43
M  V30 48 1 22 44
M  V30 49 1 23 45
M  V30 50 1 23 46
M  V30 51 1 24 47
M  V30 52 1 24 48
M  V30 53 1 26 49
M  V30 54 1 26 50
M  V30 55 1 27 51
M  V30 56 1 27 52
M  V30 57 1 29 53
M  V30 58 1 29 54
M  V30 59 1 30 55
M  V30 60 1 30 56
M  V30 61 1 32 57
M  V30 END BOND
M  V30 END CTAB
M  END
>  <Dataset>  (67) 
ChEMBL_Kinases

>  <Ligand_Instance>  (67) 
nan

>  <PDB_ID>  (67) 
nan

>  <Standardized_SMILES>  (67) 
O=C(O)c1ccc2c(c1)nc(Nc1ccccc1)c1nc(NCCN3CCOCC3)ncc12

>  <Name>  (67) 
nan

>  <Pocket>  (67) 
nan

>  <ATP_Site>  (67) 
nan

>  <Peripheral>  (67) 
nan

>  <Num_H_Atoms_ProtBoundConf>  (67) 
nan

>  <Num_Resolved_Atoms>  (67) 
nan

>  <Num_Not_Resolved_Atoms>  (67) 
nan

$$$$
CHEMBL3700427
     RDKit          3D

  0  0  0  0  0  0  0  0  0  0999 V3000
M  V30 BEGIN CTAB
M  V30 COUNTS 58 61 0 0 0
M  V30 BEGIN ATOM
M  V30 1 C 2.104871 -1.118515 4.455767 0
M  V30 2 C 1.805220 -0.859300 3.022958 0
M  V30 3 N 1.539792 0.518727 2.676472 0
M  V30 4 C 2.736055 1.334200 2.804224 0
M  V30 5 C 3.800958 1.006543 1.778855 0
M  V30 6 C 0.574981 1.091804 3.626676 0
M  V30 7 C 0.134550 2.467658 3.244865 0
M  V30 8 N -0.514393 2.489647 1.945260 0
M  V30 9 C 0.071300 1.757441 0.877515 0
M  V30 10 N 1.081368 1.887257 0.008800 0
M  V30 11 C 1.359764 0.954221 -0.920341 0
M  V30 12 C 0.576151 -0.165512 -0.972079 0
M  V30 13 C -0.474226 -0.333194 -0.093220 0
M  V30 14 N -0.706604 0.642631 0.822613 0
M  V30 15 C -1.236298 -1.511470 -0.213891 0
M  V30 16 N -2.291362 -1.557229 0.737670 0
M  V30 17 C -3.656326 -1.608660 0.359793 0
M  V30 18 C -4.134186 -1.735819 -0.923677 0
M  V30 19 C -5.462573 -1.789642 -1.271717 0
M  V30 20 C -6.414695 -1.711764 -0.283750 0
M  V30 21 C -5.973022 -1.582010 1.031524 0
M  V30 22 C -4.631817 -1.530318 1.363224 0
M  V30 23 N -0.947413 -2.423181 -1.140167 0
M  V30 24 C 0.090849 -2.261966 -2.009305 0
M  V30 25 C 0.330229 -3.240043 -2.928565 0
M  V30 26 C 1.382472 -3.076460 -3.801034 0
M  V30 27 C 1.630474 -4.117690 -4.797059 0
M  V30 28 O 2.633250 -3.957974 -5.561851 0
M  V30 29 O 0.832633 -5.244244 -4.932058 0
M  V30 30 C 2.159388 -1.952935 -3.733687 0
M  V30 31 C 1.869400 -0.983385 -2.774298 0
M  V30 32 C 0.828650 -1.121010 -1.893979 0
M  V30 33 H 1.302823 -0.799700 5.137735 0
M  V30 34 H 3.127712 -0.785553 4.764412 0
M  V30 35 H 2.155625 -2.245972 4.560161 0
M  V30 36 H 2.631855 -1.233418 2.379511 0
M  V30 37 H 0.900734 -1.447669 2.738067 0
M  V30 38 H 3.136955 1.319326 3.855669 0
M  V30 39 H 2.444799 2.379238 2.604422 0
M  V30 40 H 4.706116 0.655168 2.330658 0
M  V30 41 H 3.465782 0.346848 0.974613 0
M  V30 42 H 4.176651 1.932239 1.243513 0
M  V30 43 H -0.242812 0.396838 3.815640 0
M  V30 44 H 1.143155 1.157954 4.594569 0
M  V30 45 H 0.883600 3.249030 3.333117 0
M  V30 46 H -0.693943 2.738224 3.976019 0
M  V30 47 H -1.386671 3.013772 1.760963 0
M  V30 48 H 2.197276 1.213273 -1.535011 0
M  V30 49 H -2.019569 -1.552765 1.739828 0
M  V30 50 H -3.313266 -1.788768 -1.656134 0
M  V30 51 H -5.727856 -1.890598 -2.331135 0
M  V30 52 H -7.459857 -1.752954 -0.559074 0
M  V30 53 H -6.767415 -1.524216 1.793815 0
M  V30 54 H -4.411358 -1.424389 2.436892 0
M  V30 55 H -0.288444 -4.131453 -2.979028 0
M  V30 56 H 1.165581 -6.099458 -5.328176 0
M  V30 57 H 2.972393 -1.876222 -4.445537 0
M  V30 58 H 2.545298 -0.154431 -2.823783 0
M  V30 END ATOM
M  V30 BEGIN BOND
M  V30 1 1 1 2
M  V30 2 1 2 3
M  V30 3 1 3 4
M  V30 4 1 4 5
M  V30 5 1 3 6
M  V30 6 1 6 7
M  V30 7 1 7 8
M  V30 8 1 8 9
M  V30 9 2 9 10
M  V30 10 1 10 11
M  V30 11 2 11 12
M  V30 12 1 12 13
M  V30 13 2 13 14
M  V30 14 1 13 15
M  V30 15 1 15 16
M  V30 16 1 16 17
M  V30 17 2 17 18
M  V30 18 1 18 19
M  V30 19 2 19 20
M  V30 20 1 20 21
M  V30 21 2 21 22
M  V30 22 2 15 23
M  V30 23 1 23 24
M  V30 24 2 24 25
M  V30 25 1 25 26
M  V30 26 1 26 27
M  V30 27 2 27 28
M  V30 28 1 27 29
M  V30 29 2 26 30
M  V30 30 1 30 31
M  V30 31 2 31 32
M  V30 32 1 14 9
M  V30 33 1 22 17
M  V30 34 1 32 24
M  V30 35 1 32 12
M  V30 36 1 1 33
M  V30 37 1 1 34
M  V30 38 1 1 35
M  V30 39 1 2 36
M  V30 40 1 2 37
M  V30 41 1 4 38
M  V30 42 1 4 39
M  V30 43 1 5 40
M  V30 44 1 5 41
M  V30 45 1 5 42
M  V30 46 1 6 43
M  V30 47 1 6 44
M  V30 48 1 7 45
M  V30 49 1 7 46
M  V30 50 1 8 47
M  V30 51 1 11 48
M  V30 52 1 16 49
M  V30 53 1 18 50
M  V30 54 1 19 51
M  V30 55 1 20 52
M  V30 56 1 21 53
M  V30 57 1 22 54
M  V30 58 1 25 55
M  V30 59 1 29 56
M  V30 60 1 30 57
M  V30 61 1 31 58
M  V30 END BOND
M  V30 END CTAB
M  END
>  <Dataset>  (68) 
ChEMBL_Kinases

>  <Ligand_Instance>  (68) 
nan

>  <PDB_ID>  (68) 
nan

>  <Standardized_SMILES>  (68) 
CCN(CC)CCNc1ncc2c(n1)c(Nc1ccccc1)nc1cc(C(=O)O)ccc12

>  <Name>  (68) 
nan

>  <Pocket>  (68) 
nan

>  <ATP_Site>  (68) 
nan

>  <Peripheral>  (68) 
nan

>  <Num_H_Atoms_ProtBoundConf>  (68) 
nan

>  <Num_Resolved_Atoms>  (68) 
nan

>  <Num_Not_Resolved_Atoms>  (68) 
nan

$$$$
CHEMBL3700426
     RDKit          3D

  0  0  0  0  0  0  0  0  0  0999 V3000
M  V30 BEGIN CTAB
M  V30 COUNTS 53 57 0 0 0
M  V30 BEGIN ATOM
M  V30 1 O 7.115270 -1.359658 0.805906 0
M  V30 2 C 6.258837 -2.253633 0.599197 0
M  V30 3 O 7.070529 -3.368292 0.557359 0
M  V30 4 C 4.818805 -2.095604 0.452303 0
M  V30 5 C 3.945013 -3.141476 0.230115 0
M  V30 6 C 2.603969 -2.849409 0.106590 0
M  V30 7 C 2.179758 -1.544959 0.206867 0
M  V30 8 C 3.047965 -0.498210 0.428745 0
M  V30 9 C 4.387960 -0.789693 0.552061 0
M  V30 10 N 2.624413 0.774924 0.524996 0
M  V30 11 C 1.302499 1.084640 0.405788 0
M  V30 12 N 0.976843 2.459688 0.522641 0
M  V30 13 C 0.720548 3.104840 1.764642 0
M  V30 14 C 0.406006 4.453089 1.871250 0
M  V30 15 C 0.166006 5.050215 3.104283 0
M  V30 16 C 0.238446 4.302030 4.247900 0
M  V30 17 C 0.549005 2.952804 4.189395 0
M  V30 18 C 0.780264 2.396734 2.950132 0
M  V30 19 C 0.420738 0.051923 0.184084 0
M  V30 20 N -0.876656 0.374188 0.065653 0
M  V30 21 C -1.793340 -0.613738 -0.158480 0
M  V30 22 N -3.193180 -0.392485 -0.296355 0
M  V30 23 C -4.198310 -1.398854 -0.542241 0
M  V30 24 C -3.922521 -2.040446 -1.872428 0
M  V30 25 C -4.431617 -3.475901 -1.913854 0
M  V30 26 N -3.603820 -4.183744 -0.964100 0
M  V30 27 C -3.920297 -3.764917 0.352409 0
M  V30 28 C -4.348439 -2.376770 0.576479 0
M  V30 29 N -1.387509 -1.890548 -0.257384 0
M  V30 30 C -0.094453 -2.234664 -0.142110 0
M  V30 31 C 0.842655 -1.255436 0.083463 0
M  V30 32 H 7.552845 -3.763437 1.347399 0
M  V30 33 H 4.376617 -4.138941 0.166405 0
M  V30 34 H 1.980524 -3.709003 -0.064227 0
M  V30 35 H 5.054739 0.058142 0.727634 0
M  V30 36 H 0.926274 3.011561 -0.358505 0
M  V30 37 H 0.348250 5.045366 0.966249 0
M  V30 38 H -0.073768 6.099781 3.136606 0
M  V30 39 H 0.060046 4.718346 5.241236 0
M  V30 40 H 0.616817 2.331572 5.054831 0
M  V30 41 H 1.025199 1.341445 2.879026 0
M  V30 42 H -3.457661 0.635260 -0.198306 0
M  V30 43 H -5.165086 -0.868148 -0.664786 0
M  V30 44 H -4.372364 -1.486569 -2.729657 0
M  V30 45 H -2.841685 -2.091258 -2.107457 0
M  V30 46 H -5.501928 -3.535769 -1.678276 0
M  V30 47 H -4.264142 -3.839683 -2.949768 0
M  V30 48 H -2.624304 -4.184234 -1.245619 0
M  V30 49 H -3.018373 -4.017993 0.989908 0
M  V30 50 H -4.684066 -4.507151 0.736769 0
M  V30 51 H -3.763673 -1.940441 1.441321 0
M  V30 52 H -5.399881 -2.379600 0.976374 0
M  V30 53 H 0.126296 -3.269865 -0.234860 0
M  V30 END ATOM
M  V30 BEGIN BOND
M  V30 1 2 1 2
M  V30 2 1 2 3
M  V30 3 1 2 4
M  V30 4 2 4 5
M  V30 5 1 5 6
M  V30 6 2 6 7
M  V30 7 1 7 8
M  V30 8 2 8 9
M  V30 9 1 8 10
M  V30 10 2 10 11
M  V30 11 1 11 12
M  V30 12 1 12 13
M  V30 13 2 13 14
M  V30 14 1 14 15
M  V30 15 2 15 16
M  V30 16 1 16 17
M  V30 17 2 17 18
M  V30 18 1 11 19
M  V30 19 2 19 20
M  V30 20 1 20 21
M  V30 21 1 21 22
M  V30 22 1 22 23
M  V30 23 1 23 24
M  V30 24 1 24 25
M  V30 25 1 25 26
M  V30 26 1 26 27
M  V30 27 1 27 28
M  V30 28 2 21 29
M  V30 29 1 29 30
M  V30 30 2 30 31
M  V30 31 1 9 4
M  V30 32 1 18 13
M  V30 33 1 31 19
M  V30 34 1 31 7
M  V30 35 1 28 23
M  V30 36 1 3 32
M  V30 37 1 5 33
M  V30 38 1 6 34
M  V30 39 1 9 35
M  V30 40 1 12 36
M  V30 41 1 14 37
M  V30 42 1 15 38
M  V30 43 1 16 39
M  V30 44 1 17 40
M  V30 45 1 18 41
M  V30 46 1 22 42
M  V30 47 1 23 43
M  V30 48 1 24 44
M  V30 49 1 24 45
M  V30 50 1 25 46
M  V30 51 1 25 47
M  V30 52 1 26 48
M  V30 53 1 27 49
M  V30 54 1 27 50
M  V30 55 1 28 51
M  V30 56 1 28 52
M  V30 57 1 30 53
M  V30 END BOND
M  V30 END CTAB
M  END
>  <Dataset>  (69) 
ChEMBL_Kinases

>  <Ligand_Instance>  (69) 
nan

>  <PDB_ID>  (69) 
nan

>  <Standardized_SMILES>  (69) 
O=C(O)c1ccc2c(c1)nc(Nc1ccccc1)c1nc(NC3CCNCC3)ncc12

>  <Name>  (69) 
nan

>  <Pocket>  (69) 
nan

>  <ATP_Site>  (69) 
nan

>  <Peripheral>  (69) 
nan

>  <Num_H_Atoms_ProtBoundConf>  (69) 
nan

>  <Num_Resolved_Atoms>  (69) 
nan

>  <Num_Not_Resolved_Atoms>  (69) 
nan

$$$$
CHEMBL3700425
     RDKit          3D

  0  0  0  0  0  0  0  0  0  0999 V3000
M  V30 BEGIN CTAB
M  V30 COUNTS 48 51 0 0 0
M  V30 BEGIN ATOM
M  V30 1 O 6.526441 -1.124426 2.747814 0
M  V30 2 C 6.057115 -2.097243 2.101504 0
M  V30 3 O 7.095101 -3.000653 2.092049 0
M  V30 4 C 4.719066 -2.168107 1.531878 0
M  V30 5 C 4.295125 -3.287109 0.833181 0
M  V30 6 C 2.997274 -3.281297 0.316798 0
M  V30 7 C 2.214832 -2.168848 0.529847 0
M  V30 8 C 2.649340 -1.062190 1.226916 0
M  V30 9 C 3.939068 -1.050032 1.748530 0
M  V30 10 N 1.847984 -0.003770 1.407143 0
M  V30 11 C 0.590159 0.113791 0.959910 0
M  V30 12 N -0.277678 1.214585 1.134173 0
M  V30 13 C -0.003490 2.422427 1.817731 0
M  V30 14 C 1.175546 2.746607 2.448364 0
M  V30 15 C 1.419657 3.931116 3.108884 0
M  V30 16 C 0.423428 4.883330 3.157554 0
M  V30 17 C -0.778025 4.608057 2.540996 0
M  V30 18 C -0.958352 3.407492 1.898698 0
M  V30 19 C 0.155819 -0.993957 0.262413 0
M  V30 20 N -1.093560 -1.006942 -0.242760 0
M  V30 21 C -1.606939 -2.040379 -0.936290 0
M  V30 22 N -2.935562 -1.967095 -1.432056 0
M  V30 23 C -3.871715 -2.486208 -0.454203 0
M  V30 24 C -5.308037 -2.435326 -0.923584 0
M  V30 25 C -5.690154 -1.012731 -1.207782 0
M  V30 26 O -4.873797 -0.491690 -2.188531 0
M  V30 27 N -0.829903 -3.128217 -1.140186 0
M  V30 28 C 0.437914 -3.186321 -0.661253 0
M  V30 29 C 0.929713 -2.111805 0.043125 0
M  V30 30 H 7.434413 -3.459919 2.950435 0
M  V30 31 H 4.950808 -4.145873 0.689406 0
M  V30 32 H 2.721012 -4.144007 -0.201653 0
M  V30 33 H 4.292173 -0.186255 2.298089 0
M  V30 34 H -1.235327 1.136851 0.713006 0
M  V30 35 H 1.986117 2.062628 2.451805 0
M  V30 36 H 2.356552 4.144053 3.588641 0
M  V30 37 H 0.603677 5.813735 3.672109 0
M  V30 38 H -1.553607 5.360334 2.584196 0
M  V30 39 H -1.933850 3.267959 1.437949 0
M  V30 40 H -2.799707 -1.546469 -2.376032 0
M  V30 41 H -3.618860 -3.556629 -0.299299 0
M  V30 42 H -3.743238 -1.932452 0.511832 0
M  V30 43 H -5.401453 -3.098195 -1.803261 0
M  V30 44 H -5.914182 -2.826058 -0.074959 0
M  V30 45 H -5.441730 -0.443849 -0.265953 0
M  V30 46 H -6.771200 -0.927799 -1.439932 0
M  V30 47 H -5.351038 0.177785 -2.767267 0
M  V30 48 H 0.917098 -4.086111 -0.895249 0
M  V30 END ATOM
M  V30 BEGIN BOND
M  V30 1 2 1 2
M  V30 2 1 2 3
M  V30 3 1 2 4
M  V30 4 2 4 5
M  V30 5 1 5 6
M  V30 6 2 6 7
M  V30 7 1 7 8
M  V30 8 2 8 9
M  V30 9 1 8 10
M  V30 10 2 10 11
M  V30 11 1 11 12
M  V30 12 1 12 13
M  V30 13 2 13 14
M  V30 14 1 14 15
M  V30 15 2 15 16
M  V30 16 1 16 17
M  V30 17 2 17 18
M  V30 18 1 11 19
M  V30 19 2 19 20
M  V30 20 1 20 21
M  V30 21 1 21 22
M  V30 22 1 22 23
M  V30 23 1 23 24
M  V30 24 1 24 25
M  V30 25 1 25 26
M  V30 26 2 21 27
M  V30 27 1 27 28
M  V30 28 2 28 29
M  V30 29 1 9 4
M  V30 30 1 18 13
M  V30 31 1 29 19
M  V30 32 1 29 7
M  V30 33 1 3 30
M  V30 34 1 5 31
M  V30 35 1 6 32
M  V30 36 1 9 33
M  V30 37 1 12 34
M  V30 38 1 14 35
M  V30 39 1 15 36
M  V30 40 1 16 37
M  V30 41 1 17 38
M  V30 42 1 18 39
M  V30 43 1 22 40
M  V30 44 1 23 41
M  V30 45 1 23 42
M  V30 46 1 24 43
M  V30 47 1 24 44
M  V30 48 1 25 45
M  V30 49 1 25 46
M  V30 50 1 26 47
M  V30 51 1 28 48
M  V30 END BOND
M  V30 END CTAB
M  END
>  <Dataset>  (70) 
ChEMBL_Kinases

>  <Ligand_Instance>  (70) 
nan

>  <PDB_ID>  (70) 
nan

>  <Standardized_SMILES>  (70) 
O=C(O)c1ccc2c(c1)nc(Nc1ccccc1)c1nc(NCCCO)ncc12

>  <Name>  (70) 
nan

>  <Pocket>  (70) 
nan

>  <ATP_Site>  (70) 
nan

>  <Peripheral>  (70) 
nan

>  <Num_H_Atoms_ProtBoundConf>  (70) 
nan

>  <Num_Resolved_Atoms>  (70) 
nan

>  <Num_Not_Resolved_Atoms>  (70) 
nan

$$$$
CHEMBL3700424
     RDKit          3D

  0  0  0  0  0  0  0  0  0  0999 V3000
M  V30 BEGIN CTAB
M  V30 COUNTS 45 48 0 0 0
M  V30 BEGIN ATOM
M  V30 1 O 6.239186 -1.843672 -0.806288 0
M  V30 2 C 5.413281 -2.758418 -0.561205 0
M  V30 3 O 6.277969 -3.857365 -0.484054 0
M  V30 4 C 3.949533 -2.616435 -0.413051 0
M  V30 5 C 3.143413 -3.688339 -0.142578 0
M  V30 6 C 1.789523 -3.414320 -0.029318 0
M  V30 7 C 1.241707 -2.156583 -0.171484 0
M  V30 8 C 2.161209 -1.137285 -0.447078 0
M  V30 9 C 3.528133 -1.316003 -0.577630 0
M  V30 10 N 1.698128 0.141262 -0.603540 0
M  V30 11 C 0.387399 0.417328 -0.495701 0
M  V30 12 N -0.133663 1.753812 -0.648814 0
M  V30 13 C 0.244277 2.358357 0.612522 0
M  V30 14 C 1.608802 2.688433 0.620074 0
M  V30 15 C 2.228968 3.283918 1.732665 0
M  V30 16 C 1.393702 3.511446 2.800951 0
M  V30 17 C 0.053138 3.200878 2.828760 0
M  V30 18 C -0.525390 2.618274 1.721962 0
M  V30 19 C -0.504244 -0.601403 -0.224603 0
M  V30 20 N -1.849780 -0.405621 -0.112701 0
M  V30 21 C -2.708301 -1.429486 0.145395 0
M  V30 22 N -4.025947 -0.900313 0.181219 0
M  V30 23 C -4.309728 -0.336465 1.465833 0
M  V30 24 C -4.249736 -1.289759 2.607287 0
M  V30 25 O -2.984494 -1.890706 2.759441 0
M  V30 26 N -2.271716 -2.704961 0.306366 0
M  V30 27 C -0.949297 -2.966590 0.206866 0
M  V30 28 C -0.104721 -1.912149 -0.055114 0
M  V30 29 H 6.870485 -3.987970 0.349292 0
M  V30 30 H 3.558339 -4.682840 -0.026973 0
M  V30 31 H 1.194733 -4.286021 0.185484 0
M  V30 32 H 4.149745 -0.467148 -0.789176 0
M  V30 33 H -0.644976 2.243542 -1.396123 0
M  V30 34 H 2.291368 2.516999 -0.217119 0
M  V30 35 H 3.280006 3.530199 1.714141 0
M  V30 36 H 1.845695 3.975335 3.686276 0
M  V30 37 H -0.583568 3.386793 3.676070 0
M  V30 38 H -1.546694 2.324951 1.599751 0
M  V30 39 H -4.782990 -0.860079 -0.558113 0
M  V30 40 H -3.519121 0.448691 1.664094 0
M  V30 41 H -5.259123 0.213039 1.521061 0
M  V30 42 H -4.983374 -2.093164 2.558224 0
M  V30 43 H -4.487538 -0.684499 3.532235 0
M  V30 44 H -2.618920 -1.719821 3.662439 0
M  V30 45 H -0.676585 -3.978847 0.342400 0
M  V30 END ATOM
M  V30 BEGIN BOND
M  V30 1 2 1 2
M  V30 2 1 2 3
M  V30 3 1 2 4
M  V30 4 2 4 5
M  V30 5 1 5 6
M  V30 6 2 6 7
M  V30 7 1 7 8
M  V30 8 2 8 9
M  V30 9 1 8 10
M  V30 10 2 10 11
M  V30 11 1 11 12
M  V30 12 1 12 13
M  V30 13 2 13 14
M  V30 14 1 14 15
M  V30 15 2 15 16
M  V30 16 1 16 17
M  V30 17 2 17 18
M  V30 18 1 11 19
M  V30 19 2 19 20
M  V30 20 1 20 21
M  V30 21 1 21 22
M  V30 22 1 22 23
M  V30 23 1 23 24
M  V30 24 1 24 25
M  V30 25 2 21 26
M  V30 26 1 26 27
M  V30 27 2 27 28
M  V30 28 1 9 4
M  V30 29 1 18 13
M  V30 30 1 28 19
M  V30 31 1 28 7
M  V30 32 1 3 29
M  V30 33 1 5 30
M  V30 34 1 6 31
M  V30 35 1 9 32
M  V30 36 1 12 33
M  V30 37 1 14 34
M  V30 38 1 15 35
M  V30 39 1 16 36
M  V30 40 1 17 37
M  V30 41 1 18 38
M  V30 42 1 22 39
M  V30 43 1 23 40
M  V30 44 1 23 41
M  V30 45 1 24 42
M  V30 46 1 24 43
M  V30 47 1 25 44
M  V30 48 1 27 45
M  V30 END BOND
M  V30 END CTAB
M  END
>  <Dataset>  (71) 
ChEMBL_Kinases

>  <Ligand_Instance>  (71) 
nan

>  <PDB_ID>  (71) 
nan

>  <Standardized_SMILES>  (71) 
O=C(O)c1ccc2c(c1)nc(Nc1ccccc1)c1nc(NCCO)ncc12

>  <Name>  (71) 
nan

>  <Pocket>  (71) 
nan

>  <ATP_Site>  (71) 
nan

>  <Peripheral>  (71) 
nan

>  <Num_H_Atoms_ProtBoundConf>  (71) 
nan

>  <Num_Resolved_Atoms>  (71) 
nan

>  <Num_Not_Resolved_Atoms>  (71) 
nan

$$$$
CHEMBL3700423
     RDKit          3D

  0  0  0  0  0  0  0  0  0  0999 V3000
M  V30 BEGIN CTAB
M  V30 COUNTS 48 51 0 0 0
M  V30 BEGIN ATOM
M  V30 1 C 2.775622 -5.549903 1.541060 0
M  V30 2 O 2.816627 -4.279528 0.969105 0
M  V30 3 C 4.056344 -3.704535 1.146353 0
M  V30 4 C 4.152553 -2.310317 0.550748 0
M  V30 5 N 3.194536 -1.394868 1.137126 0
M  V30 6 C 1.788576 -1.508551 1.022940 0
M  V30 7 N 0.916169 -2.462261 1.383075 0
M  V30 8 C -0.409587 -2.349032 1.180562 0
M  V30 9 C -0.949383 -1.250771 0.592942 0
M  V30 10 C -0.048259 -0.251560 0.214445 0
M  V30 11 N 1.265215 -0.414887 0.439227 0
M  V30 12 C -0.581376 0.897134 -0.384592 0
M  V30 13 N 0.385350 1.865046 -0.748571 0
M  V30 14 C 0.913066 2.770946 0.224363 0
M  V30 15 C 1.801060 3.770560 -0.050319 0
M  V30 16 C 2.310699 4.629520 0.902841 0
M  V30 17 C 1.903105 4.478104 2.224915 0
M  V30 18 C 1.002941 3.470674 2.526160 0
M  V30 19 C 0.520858 2.635863 1.537969 0
M  V30 20 N -1.909219 0.994977 -0.570741 0
M  V30 21 C -2.762290 0.023249 -0.201185 0
M  V30 22 C -4.119801 0.143461 -0.402891 0
M  V30 23 C -4.986818 -0.879017 -0.012620 0
M  V30 24 C -6.426415 -0.803860 -0.215537 0
M  V30 25 O -7.211418 -1.704875 0.143407 0
M  V30 26 O -7.118973 0.234043 -0.812631 0
M  V30 27 C -4.488997 -2.028969 0.583623 0
M  V30 28 C -3.129287 -2.145037 0.783687 0
M  V30 29 C -2.293213 -1.130009 0.393611 0
M  V30 30 H 2.991163 -5.449484 2.644663 0
M  V30 31 H 1.736768 -5.955594 1.446751 0
M  V30 32 H 3.487016 -6.261915 1.088201 0
M  V30 33 H 4.326995 -3.723279 2.209678 0
M  V30 34 H 4.783195 -4.396586 0.628948 0
M  V30 35 H 3.961749 -2.388024 -0.562413 0
M  V30 36 H 5.173001 -1.955783 0.671675 0
M  V30 37 H 3.553907 -0.591878 1.686475 0
M  V30 38 H -0.935029 -3.191087 1.523731 0
M  V30 39 H 0.754392 1.968067 -1.718436 0
M  V30 40 H 2.123807 3.897801 -1.077400 0
M  V30 41 H 3.005740 5.389776 0.607203 0
M  V30 42 H 2.331689 5.173996 2.935958 0
M  V30 43 H 0.763428 3.450500 3.576375 0
M  V30 44 H -0.187579 1.872388 1.886278 0
M  V30 45 H -4.556909 1.033891 -0.867031 0
M  V30 46 H -7.946793 0.087050 -1.411039 0
M  V30 47 H -5.171246 -2.808691 0.877043 0
M  V30 48 H -2.818951 -3.063957 1.248991 0
M  V30 END ATOM
M  V30 BEGIN BOND
M  V30 1 1 1 2
M  V30 2 1 2 3
M  V30 3 1 3 4
M  V30 4 1 4 5
M  V30 5 1 5 6
M  V30 6 2 6 7
M  V30 7 1 7 8
M  V30 8 2 8 9
M  V30 9 1 9 10
M  V30 10 2 10 11
M  V30 11 1 10 12
M  V30 12 1 12 13
M  V30 13 1 13 14
M  V30 14 2 14 15
M  V30 15 1 15 16
M  V30 16 2 16 17
M  V30 17 1 17 18
M  V30 18 2 18 19
M  V30 19 2 12 20
M  V30 20 1 20 21
M  V30 21 2 21 22
M  V30 22 1 22 23
M  V30 23 1 23 24
M  V30 24 2 24 25
M  V30 25 1 24 26
M  V30 26 2 23 27
M  V30 27 1 27 28
M  V30 28 2 28 29
M  V30 29 1 11 6
M  V30 30 1 19 14
M  V30 31 1 29 21
M  V30 32 1 29 9
M  V30 33 1 1 30
M  V30 34 1 1 31
M  V30 35 1 1 32
M  V30 36 1 3 33
M  V30 37 1 3 34
M  V30 38 1 4 35
M  V30 39 1 4 36
M  V30 40 1 5 37
M  V30 41 1 8 38
M  V30 42 1 13 39
M  V30 43 1 15 40
M  V30 44 1 16 41
M  V30 45 1 17 42
M  V30 46 1 18 43
M  V30 47 1 19 44
M  V30 48 1 22 45
M  V30 49 1 26 46
M  V30 50 1 27 47
M  V30 51 1 28 48
M  V30 END BOND
M  V30 END CTAB
M  END
>  <Dataset>  (72) 
ChEMBL_Kinases

>  <Ligand_Instance>  (72) 
nan

>  <PDB_ID>  (72) 
nan

>  <Standardized_SMILES>  (72) 
COCCNc1ncc2c(n1)c(Nc1ccccc1)nc1cc(C(=O)O)ccc12

>  <Name>  (72) 
nan

>  <Pocket>  (72) 
nan

>  <ATP_Site>  (72) 
nan

>  <Peripheral>  (72) 
nan

>  <Num_H_Atoms_ProtBoundConf>  (72) 
nan

>  <Num_Resolved_Atoms>  (72) 
nan

>  <Num_Not_Resolved_Atoms>  (72) 
nan

$$$$
CHEMBL3700422
     RDKit          3D

  0  0  0  0  0  0  0  0  0  0999 V3000
M  V30 BEGIN CTAB
M  V30 COUNTS 47 50 0 0 0
M  V30 BEGIN ATOM
M  V30 1 C 2.423881 -4.934137 -0.747977 0
M  V30 2 C 3.801518 -4.357953 -0.680861 0
M  V30 3 C 4.025075 -3.360354 0.413759 0
M  V30 4 N 3.204214 -2.198518 0.324233 0
M  V30 5 C 1.825490 -1.927015 0.483734 0
M  V30 6 N 0.897219 -2.810662 0.851447 0
M  V30 7 C -0.409816 -2.564637 1.004566 0
M  V30 8 C -0.803605 -1.274404 0.753322 0
M  V30 9 C 0.101597 -0.313349 0.370793 0
M  V30 10 N 1.384027 -0.679257 0.250907 0
M  V30 11 C -0.277428 0.975895 0.117016 0
M  V30 12 N 0.715393 1.947356 -0.273921 0
M  V30 13 C 1.333795 2.660089 0.817189 0
M  V30 14 C 2.291527 3.638483 0.636952 0
M  V30 15 C 2.861310 4.298937 1.707002 0
M  V30 16 C 2.488248 3.999132 2.999478 0
M  V30 17 C 1.535546 3.030130 3.243842 0
M  V30 18 C 1.009345 2.412659 2.141268 0
M  V30 19 N -1.578177 1.279680 0.254112 0
M  V30 20 C -2.500280 0.372661 0.626048 0
M  V30 21 C -3.828962 0.798901 0.737882 0
M  V30 22 C -4.722353 -0.176184 1.121417 0
M  V30 23 C -6.104585 0.289163 1.231435 0
M  V30 24 O -6.400883 1.473103 0.989012 0
M  V30 25 O -7.261376 -0.388506 1.585354 0
M  V30 26 C -4.370199 -1.470236 1.380742 0
M  V30 27 C -3.039350 -1.849288 1.257411 0
M  V30 28 C -2.106791 -0.928736 0.880541 0
M  V30 29 H 2.067624 -5.222268 0.258716 0
M  V30 30 H 2.428284 -5.923218 -1.317678 0
M  V30 31 H 1.760897 -4.267363 -1.312171 0
M  V30 32 H 4.522473 -5.219512 -0.613618 0
M  V30 33 H 4.092343 -3.868550 -1.661529 0
M  V30 34 H 3.861587 -3.899878 1.407614 0
M  V30 35 H 5.115847 -3.106715 0.393144 0
M  V30 36 H 3.807686 -1.348693 0.073849 0
M  V30 37 H -1.010158 -3.378311 1.301757 0
M  V30 38 H 1.056206 2.215356 -1.223430 0
M  V30 39 H 2.590469 3.879888 -0.381196 0
M  V30 40 H 3.611769 5.065987 1.576613 0
M  V30 41 H 2.906287 4.490683 3.887829 0
M  V30 42 H 1.195643 2.745186 4.242963 0
M  V30 43 H 0.254690 1.644167 2.329879 0
M  V30 44 H -4.091879 1.843622 0.525403 0
M  V30 45 H -8.071472 -0.461152 0.991915 0
M  V30 46 H -5.145215 -2.191907 1.683305 0
M  V30 47 H -2.857373 -2.884545 1.481528 0
M  V30 END ATOM
M  V30 BEGIN BOND
M  V30 1 1 1 2
M  V30 2 1 2 3
M  V30 3 1 3 4
M  V30 4 1 4 5
M  V30 5 2 5 6
M  V30 6 1 6 7
M  V30 7 2 7 8
M  V30 8 1 8 9
M  V30 9 2 9 10
M  V30 10 1 9 11
M  V30 11 1 11 12
M  V30 12 1 12 13
M  V30 13 2 13 14
M  V30 14 1 14 15
M  V30 15 2 15 16
M  V30 16 1 16 17
M  V30 17 2 17 18
M  V30 18 2 11 19
M  V30 19 1 19 20
M  V30 20 2 20 21
M  V30 21 1 21 22
M  V30 22 1 22 23
M  V30 23 2 23 24
M  V30 24 1 23 25
M  V30 25 2 22 26
M  V30 26 1 26 27
M  V30 27 2 27 28
M  V30 28 1 10 5
M  V30 29 1 18 13
M  V30 30 1 28 20
M  V30 31 1 28 8
M  V30 32 1 1 29
M  V30 33 1 1 30
M  V30 34 1 1 31
M  V30 35 1 2 32
M  V30 36 1 2 33
M  V30 37 1 3 34
M  V30 38 1 3 35
M  V30 39 1 4 36
M  V30 40 1 7 37
M  V30 41 1 12 38
M  V30 42 1 14 39
M  V30 43 1 15 40
M  V30 44 1 16 41
M  V30 45 1 17 42
M  V30 46 1 18 43
M  V30 47 1 21 44
M  V30 48 1 25 45
M  V30 49 1 26 46
M  V30 50 1 27 47
M  V30 END BOND
M  V30 END CTAB
M  END
>  <Dataset>  (73) 
ChEMBL_Kinases

>  <Ligand_Instance>  (73) 
nan

>  <PDB_ID>  (73) 
nan

>  <Standardized_SMILES>  (73) 
CCCNc1ncc2c(n1)c(Nc1ccccc1)nc1cc(C(=O)O)ccc12

>  <Name>  (73) 
nan

>  <Pocket>  (73) 
nan

>  <ATP_Site>  (73) 
nan

>  <Peripheral>  (73) 
nan

>  <Num_H_Atoms_ProtBoundConf>  (73) 
nan

>  <Num_Resolved_Atoms>  (73) 
nan

>  <Num_Not_Resolved_Atoms>  (73) 
nan

$$$$
CHEMBL3700418
     RDKit          3D

  0  0  0  0  0  0  0  0  0  0999 V3000
M  V30 BEGIN CTAB
M  V30 COUNTS 37 40 0 0 0
M  V30 BEGIN ATOM
M  V30 1 O 5.264028 -0.300892 3.178426 0
M  V30 2 C 4.700333 -1.413806 3.309032 0
M  V30 3 O 5.286494 -2.322461 4.209656 0
M  V30 4 C 3.488098 -1.781730 2.572439 0
M  V30 5 C 2.872641 -3.033100 2.743946 0
M  V30 6 C 1.737226 -3.252145 1.991085 0
M  V30 7 C 1.217076 -2.326665 1.120117 0
M  V30 8 C 1.850881 -1.091361 0.969861 0
M  V30 9 C 2.988476 -0.811150 1.693809 0
M  V30 10 N 1.368860 -0.166751 0.130159 0
M  V30 11 C 0.278662 -0.323382 -0.617389 0
M  V30 12 N -0.324892 0.565008 -1.546197 0
M  V30 13 C -1.182489 1.549900 -0.956987 0
M  V30 14 C -1.263719 1.662888 0.432506 0
M  V30 15 C -2.094187 2.615160 1.024737 0
M  V30 16 F -2.150710 2.700486 2.360819 0
M  V30 17 C -2.838341 3.447744 0.185449 0
M  V30 18 C -2.794094 3.376584 -1.209649 0
M  V30 19 F -3.530711 4.201561 -1.992259 0
M  V30 20 C -1.941848 2.400763 -1.732655 0
M  V30 21 C -0.348049 -1.542571 -0.469518 0
M  V30 22 C -1.494012 -1.856839 -1.178484 0
M  V30 23 C -2.160783 -3.052050 -1.073090 0
M  V30 24 N -1.679498 -3.995837 -0.225441 0
M  V30 25 C -0.553678 -3.745636 0.501390 0
M  V30 26 C 0.086282 -2.539772 0.370619 0
M  V30 27 H 6.253466 -2.203782 4.508901 0
M  V30 28 H 3.298101 -3.748509 3.436220 0
M  V30 29 H 1.306438 -4.202194 2.150062 0
M  V30 30 H 3.491638 0.133326 1.593064 0
M  V30 31 H -0.176802 0.527183 -2.557265 0
M  V30 32 H -0.682812 1.015633 1.098497 0
M  V30 33 H -3.503184 4.212757 0.620908 0
M  V30 34 H -1.898261 2.333595 -2.815818 0
M  V30 35 H -1.934674 -1.145367 -1.876253 0
M  V30 36 H -3.058916 -3.273460 -1.640825 0
M  V30 37 H -0.279392 -4.569552 1.133101 0
M  V30 END ATOM
M  V30 BEGIN BOND
M  V30 1 2 1 2
M  V30 2 1 2 3
M  V30 3 1 2 4
M  V30 4 2 4 5
M  V30 5 1 5 6
M  V30 6 2 6 7
M  V30 7 1 7 8
M  V30 8 2 8 9
M  V30 9 1 8 10
M  V30 10 2 10 11
M  V30 11 1 11 12
M  V30 12 1 12 13
M  V30 13 2 13 14
M  V30 14 1 14 15
M  V30 15 1 15 16
M  V30 16 2 15 17
M  V30 17 1 17 18
M  V30 18 1 18 19
M  V30 19 2 18 20
M  V30 20 1 11 21
M  V30 21 2 21 22
M  V30 22 1 22 23
M  V30 23 2 23 24
M  V30 24 1 24 25
M  V30 25 2 25 26
M  V30 26 1 9 4
M  V30 27 1 20 13
M  V30 28 1 26 21
M  V30 29 1 26 7
M  V30 30 1 3 27
M  V30 31 1 5 28
M  V30 32 1 6 29
M  V30 33 1 9 30
M  V30 34 1 12 31
M  V30 35 1 14 32
M  V30 36 1 17 33
M  V30 37 1 20 34
M  V30 38 1 22 35
M  V30 39 1 23 36
M  V30 40 1 25 37
M  V30 END BOND
M  V30 END CTAB
M  END
>  <Dataset>  (74) 
ChEMBL_Kinases

>  <Ligand_Instance>  (74) 
nan

>  <PDB_ID>  (74) 
nan

>  <Standardized_SMILES>  (74) 
O=C(O)c1ccc2c(c1)nc(Nc1cc(F)cc(F)c1)c1ccncc12

>  <Name>  (74) 
nan

>  <Pocket>  (74) 
nan

>  <ATP_Site>  (74) 
nan

>  <Peripheral>  (74) 
nan

>  <Num_H_Atoms_ProtBoundConf>  (74) 
nan

>  <Num_Resolved_Atoms>  (74) 
nan

>  <Num_Not_Resolved_Atoms>  (74) 
nan

$$$$
CHEMBL3700415
     RDKit          3D

  0  0  0  0  0  0  0  0  0  0999 V3000
M  V30 BEGIN CTAB
M  V30 COUNTS 41 44 0 0 0
M  V30 BEGIN ATOM
M  V30 1 C -4.274299 -3.396264 -2.467447 0
M  V30 2 N -3.554055 -3.900991 -1.305122 0
M  V30 3 C -2.830085 -2.903542 -0.554173 0
M  V30 4 N -3.454958 -2.265799 0.478536 0
M  V30 5 C -2.746548 -1.312372 1.174435 0
M  V30 6 C -1.449940 -1.067984 0.777079 0
M  V30 7 C -0.818784 -1.732223 -0.286441 0
M  V30 8 N -1.562401 -2.674868 -0.952313 0
M  V30 9 C 0.489577 -1.459673 -0.649501 0
M  V30 10 N 1.081131 -2.149009 -1.749353 0
M  V30 11 C 1.014101 -1.190080 -2.815400 0
M  V30 12 C 2.082903 -0.287888 -2.744576 0
M  V30 13 C 2.265886 0.740639 -3.640250 0
M  V30 14 C 1.334990 0.869566 -4.651367 0
M  V30 15 C 0.282623 -0.001728 -4.740160 0
M  V30 16 C 0.089193 -1.033436 -3.850884 0
M  V30 17 N 1.177565 -0.518125 0.052381 0
M  V30 18 C 0.605198 0.141919 1.080827 0
M  V30 19 C 1.396300 1.081800 1.712897 0
M  V30 20 C 0.841684 1.782749 2.761426 0
M  V30 21 C 1.563705 2.799873 3.511957 0
M  V30 22 O 1.233665 3.543109 4.469318 0
M  V30 23 O 2.877969 3.183173 3.300452 0
M  V30 24 C -0.476757 1.546338 3.168073 0
M  V30 25 C -1.218216 0.593942 2.497973 0
M  V30 26 C -0.702235 -0.127392 1.446096 0
M  V30 27 H -3.874594 -3.843664 -3.423720 0
M  V30 28 H -5.378491 -3.541196 -2.389836 0
M  V30 29 H -4.139660 -2.307596 -2.614809 0
M  V30 30 H -3.756351 -4.932144 -1.296971 0
M  V30 31 H -3.249399 -0.841437 1.961568 0
M  V30 32 H 1.504908 -3.060799 -1.965270 0
M  V30 33 H 2.864813 -0.313737 -1.976111 0
M  V30 34 H 3.101268 1.443115 -3.578716 0
M  V30 35 H 1.454477 1.670064 -5.370189 0
M  V30 36 H -0.474754 0.060376 -5.523960 0
M  V30 37 H -0.670396 -1.776620 -3.800403 0
M  V30 38 H 2.420278 1.301434 1.437762 0
M  V30 39 H 3.175596 4.127621 3.078956 0
M  V30 40 H -0.887843 2.113374 3.995244 0
M  V30 41 H -2.197279 0.476361 2.860629 0
M  V30 END ATOM
M  V30 BEGIN BOND
M  V30 1 1 1 2
M  V30 2 1 2 3
M  V30 3 2 3 4
M  V30 4 1 4 5
M  V30 5 2 5 6
M  V30 6 1 6 7
M  V30 7 2 7 8
M  V30 8 1 7 9
M  V30 9 1 9 10
M  V30 10 1 10 11
M  V30 11 2 11 12
M  V30 12 1 12 13
M  V30 13 2 13 14
M  V30 14 1 14 15
M  V30 15 2 15 16
M  V30 16 2 9 17
M  V30 17 1 17 18
M  V30 18 2 18 19
M  V30 19 1 19 20
M  V30 20 1 20 21
M  V30 21 2 21 22
M  V30 22 1 21 23
M  V30 23 2 20 24
M  V30 24 1 24 25
M  V30 25 2 25 26
M  V30 26 1 8 3
M  V30 27 1 16 11
M  V30 28 1 26 18
M  V30 29 1 26 6
M  V30 30 1 1 27
M  V30 31 1 1 28
M  V30 32 1 1 29
M  V30 33 1 2 30
M  V30 34 1 5 31
M  V30 35 1 10 32
M  V30 36 1 12 33
M  V30 37 1 13 34
M  V30 38 1 14 35
M  V30 39 1 15 36
M  V30 40 1 16 37
M  V30 41 1 19 38
M  V30 42 1 23 39
M  V30 43 1 24 40
M  V30 44 1 25 41
M  V30 END BOND
M  V30 END CTAB
M  END
>  <Dataset>  (75) 
ChEMBL_Kinases

>  <Ligand_Instance>  (75) 
nan

>  <PDB_ID>  (75) 
nan

>  <Standardized_SMILES>  (75) 
CNc1ncc2c(n1)c(Nc1ccccc1)nc1cc(C(=O)O)ccc12

>  <Name>  (75) 
nan

>  <Pocket>  (75) 
nan

>  <ATP_Site>  (75) 
nan

>  <Peripheral>  (75) 
nan

>  <Num_H_Atoms_ProtBoundConf>  (75) 
nan

>  <Num_Resolved_Atoms>  (75) 
nan

>  <Num_Not_Resolved_Atoms>  (75) 
nan

$$$$
CHEMBL3700396
     RDKit          3D

  0  0  0  0  0  0  0  0  0  0999 V3000
M  V30 BEGIN CTAB
M  V30 COUNTS 38 41 0 0 0
M  V30 BEGIN ATOM
M  V30 1 C -1.708116 -4.552914 -0.268975 0
M  V30 2 C -0.367512 -4.154002 0.191915 0
M  V30 3 C 0.642786 -5.114291 0.222886 0
M  V30 4 C 1.914896 -4.788649 0.645400 0
M  V30 5 C 2.188619 -3.493153 1.042634 0
M  V30 6 C 1.170293 -2.536297 1.008904 0
M  V30 7 C -0.125472 -2.851368 0.582679 0
M  V30 8 N -1.141509 -1.841502 0.564676 0
M  V30 9 C -0.691583 -0.543261 1.001194 0
M  V30 10 N -0.330650 0.229659 -0.018788 0
M  V30 11 C 0.131249 1.483716 0.053003 0
M  V30 12 C 0.495635 2.271890 -1.000159 0
M  V30 13 C 0.943784 3.542436 -0.709564 0
M  V30 14 C 1.344403 4.435736 -1.808154 0
M  V30 15 O 1.766069 5.599174 -1.734396 0
M  V30 16 O 1.261061 3.968638 -3.125651 0
M  V30 17 C 1.029823 4.022973 0.593042 0
M  V30 18 C 0.653019 3.202655 1.652296 0
M  V30 19 C 0.205267 1.929626 1.338197 0
M  V30 20 C -0.147680 1.191041 2.430277 0
M  V30 21 S -0.144470 1.527395 4.145037 0
M  V30 22 C -0.811856 -0.175053 4.603458 0
M  V30 23 C -0.986129 -0.886702 3.327821 0
M  V30 24 C -0.621800 -0.105264 2.305254 0
M  V30 25 H -1.657921 -5.532071 -0.808277 0
M  V30 26 H -2.414381 -4.693152 0.577942 0
M  V30 27 H -2.163584 -3.832376 -0.955581 0
M  V30 28 H 0.462731 -6.144709 -0.081867 0
M  V30 29 H 2.701451 -5.553589 0.665356 0
M  V30 30 H 3.170565 -3.207978 1.377656 0
M  V30 31 H 1.437347 -1.545552 1.328025 0
M  V30 32 H -2.089689 -2.132827 0.245903 0
M  V30 33 H 0.417344 1.872509 -1.981105 0
M  V30 34 H 1.283159 4.561258 -3.919385 0
M  V30 35 H 1.385903 5.028831 0.800939 0
M  V30 36 H 0.719430 3.574036 2.672708 0
M  V30 37 H -1.084470 -0.697529 5.691167 0
M  V30 38 H -1.363293 -1.880467 3.425713 0
M  V30 END ATOM
M  V30 BEGIN BOND
M  V30 1 1 1 2
M  V30 2 2 2 3
M  V30 3 1 3 4
M  V30 4 2 4 5
M  V30 5 1 5 6
M  V30 6 2 6 7
M  V30 7 1 7 8
M  V30 8 1 8 9
M  V30 9 2 9 10
M  V30 10 1 10 11
M  V30 11 2 11 12
M  V30 12 1 12 13
M  V30 13 1 13 14
M  V30 14 2 14 15
M  V30 15 1 14 16
M  V30 16 2 13 17
M  V30 17 1 17 18
M  V30 18 2 18 19
M  V30 19 1 19 20
M  V30 20 1 20 21
M  V30 21 1 21 22
M  V30 22 2 22 23
M  V30 23 1 23 24
M  V30 24 1 7 2
M  V30 25 1 24 9
M  V30 26 1 19 11
M  V30 27 2 24 20
M  V30 28 1 1 25
M  V30 29 1 1 26
M  V30 30 1 1 27
M  V30 31 1 3 28
M  V30 32 1 4 29
M  V30 33 1 5 30
M  V30 34 1 6 31
M  V30 35 1 8 32
M  V30 36 1 12 33
M  V30 37 1 16 34
M  V30 38 1 17 35
M  V30 39 1 18 36
M  V30 40 1 22 37
M  V30 41 1 23 38
M  V30 END BOND
M  V30 END CTAB
M  END
>  <Dataset>  (76) 
ChEMBL_Kinases

>  <Ligand_Instance>  (76) 
nan

>  <PDB_ID>  (76) 
nan

>  <Standardized_SMILES>  (76) 
Cc1ccccc1Nc1nc2cc(C(=O)O)ccc2c2sccc12

>  <Name>  (76) 
nan

>  <Pocket>  (76) 
nan

>  <ATP_Site>  (76) 
nan

>  <Peripheral>  (76) 
nan

>  <Num_H_Atoms_ProtBoundConf>  (76) 
nan

>  <Num_Resolved_Atoms>  (76) 
nan

>  <Num_Not_Resolved_Atoms>  (76) 
nan

$$$$
CHEMBL3700397
     RDKit          3D

  0  0  0  0  0  0  0  0  0  0999 V3000
M  V30 BEGIN CTAB
M  V30 COUNTS 35 38 0 0 0
M  V30 BEGIN ATOM
M  V30 1 O 2.715245 -5.919114 0.272705 0
M  V30 2 C 1.848975 -5.057249 0.030853 0
M  V30 3 O 0.843457 -5.567664 -0.771741 0
M  V30 4 C 1.927934 -3.698925 0.549224 0
M  V30 5 C 3.027580 -3.417146 1.331478 0
M  V30 6 C 3.144231 -2.134319 1.847240 0
M  V30 7 C 2.164367 -1.217531 1.553593 0
M  V30 8 C 1.082408 -1.545187 0.766509 0
M  V30 9 C 0.927811 -2.801192 0.236377 0
M  V30 10 N 0.239295 -0.536122 0.589918 0
M  V30 11 C 0.298286 0.705570 1.055559 0
M  V30 12 N -0.740348 1.606478 0.719816 0
M  V30 13 C -1.893349 1.456001 -0.050489 0
M  V30 14 C -2.794039 2.498170 -0.250762 0
M  V30 15 C -3.937423 2.392288 -0.999670 0
M  V30 16 C -4.246662 1.195835 -1.606513 0
M  V30 17 Cl -5.704223 1.130425 -2.537110 0
M  V30 18 C -3.391427 0.132414 -1.441912 0
M  V30 19 C -2.270175 0.306169 -0.683294 0
M  V30 20 C 1.366853 1.060304 1.843650 0
M  V30 21 C 1.587755 2.287698 2.405197 0
M  V30 22 C 2.776389 2.420466 3.191404 0
M  V30 23 S 3.538877 0.707059 3.074494 0
M  V30 24 C 2.283535 0.078635 2.075531 0
M  V30 25 H 0.360905 -6.450672 -0.544316 0
M  V30 26 H 3.795252 -4.135004 1.561672 0
M  V30 27 H 3.999310 -1.867910 2.471851 0
M  V30 28 H 0.081069 -3.016402 -0.365361 0
M  V30 29 H -0.633222 2.576845 1.121863 0
M  V30 30 H -2.591615 3.473446 0.212976 0
M  V30 31 H -4.577366 3.244266 -1.103356 0
M  V30 32 H -3.696371 -0.768590 -1.943802 0
M  V30 33 H -1.694093 -0.591371 -0.635163 0
M  V30 34 H 0.970921 3.172204 2.326519 0
M  V30 35 H 3.084023 3.408671 3.724352 0
M  V30 END ATOM
M  V30 BEGIN BOND
M  V30 1 2 1 2
M  V30 2 1 2 3
M  V30 3 1 2 4
M  V30 4 2 4 5
M  V30 5 1 5 6
M  V30 6 2 6 7
M  V30 7 1 7 8
M  V30 8 2 8 9
M  V30 9 1 8 10
M  V30 10 2 10 11
M  V30 11 1 11 12
M  V30 12 1 12 13
M  V30 13 2 13 14
M  V30 14 1 14 15
M  V30 15 2 15 16
M  V30 16 1 16 17
M  V30 17 1 16 18
M  V30 18 2 18 19
M  V30 19 1 11 20
M  V30 20 1 20 21
M  V30 21 2 21 22
M  V30 22 1 22 23
M  V30 23 1 23 24
M  V30 24 1 9 4
M  V30 25 1 19 13
M  V30 26 2 24 20
M  V30 27 1 24 7
M  V30 28 1 3 25
M  V30 29 1 5 26
M  V30 30 1 6 27
M  V30 31 1 9 28
M  V30 32 1 12 29
M  V30 33 1 14 30
M  V30 34 1 15 31
M  V30 35 1 18 32
M  V30 36 1 19 33
M  V30 37 1 21 34
M  V30 38 1 22 35
M  V30 END BOND
M  V30 END CTAB
M  END
>  <Dataset>  (77) 
ChEMBL_Kinases

>  <Ligand_Instance>  (77) 
nan

>  <PDB_ID>  (77) 
nan

>  <Standardized_SMILES>  (77) 
O=C(O)c1ccc2c(c1)nc(Nc1ccc(Cl)cc1)c1ccsc12

>  <Name>  (77) 
nan

>  <Pocket>  (77) 
nan

>  <ATP_Site>  (77) 
nan

>  <Peripheral>  (77) 
nan

>  <Num_H_Atoms_ProtBoundConf>  (77) 
nan

>  <Num_Resolved_Atoms>  (77) 
nan

>  <Num_Not_Resolved_Atoms>  (77) 
nan

$$$$
CHEMBL3700398
     RDKit          3D

  0  0  0  0  0  0  0  0  0  0999 V3000
M  V30 BEGIN CTAB
M  V30 COUNTS 35 38 0 0 0
M  V30 BEGIN ATOM
M  V30 1 O 0.565325 -5.890990 0.300495 0
M  V30 2 C 1.317758 -5.406473 1.180107 0
M  V30 3 O 1.913925 -6.347929 2.007217 0
M  V30 4 C 1.541566 -3.973023 1.316620 0
M  V30 5 C 2.360673 -3.412900 2.262932 0
M  V30 6 C 2.587074 -2.061414 2.424214 0
M  V30 7 C 1.889934 -1.287452 1.515367 0
M  V30 8 C 1.050434 -1.767508 0.537540 0
M  V30 9 C 0.866261 -3.129127 0.427820 0
M  V30 10 N 0.476021 -0.839138 -0.228446 0
M  V30 11 C 0.592033 0.468907 -0.185987 0
M  V30 12 N -0.066965 1.384183 -1.068004 0
M  V30 13 C -1.473589 1.540672 -0.875195 0
M  V30 14 C -2.095916 2.736676 -0.498848 0
M  V30 15 C -3.460464 2.823009 -0.356596 0
M  V30 16 C -4.269888 1.728741 -0.581530 0
M  V30 17 F -5.632399 1.824459 -0.439355 0
M  V30 18 C -3.672944 0.542688 -0.953156 0
M  V30 19 C -2.297597 0.442539 -1.099427 0
M  V30 20 F -1.846434 -0.768014 -1.469447 0
M  V30 21 C 1.413119 1.043165 0.763338 0
M  V30 22 C 1.741188 2.347668 1.054687 0
M  V30 23 C 2.579507 2.640645 2.041316 0
M  V30 24 S 3.063716 1.116905 2.741179 0
M  V30 25 C 2.046829 0.088876 1.600173 0
M  V30 26 H 1.412513 -7.198983 2.230335 0
M  V30 27 H 2.838872 -4.151888 2.906934 0
M  V30 28 H 3.244125 -1.676304 3.188807 0
M  V30 29 H 0.202510 -3.482963 -0.346993 0
M  V30 30 H 0.483325 1.877332 -1.775379 0
M  V30 31 H -1.455884 3.589011 -0.321225 0
M  V30 32 H -3.940136 3.767606 -0.056633 0
M  V30 33 H -4.367104 -0.282083 -1.120109 0
M  V30 34 H 1.339771 3.188075 0.502078 0
M  V30 35 H 2.947004 3.653578 2.404460 0
M  V30 END ATOM
M  V30 BEGIN BOND
M  V30 1 2 1 2
M  V30 2 1 2 3
M  V30 3 1 2 4
M  V30 4 2 4 5
M  V30 5 1 5 6
M  V30 6 2 6 7
M  V30 7 1 7 8
M  V30 8 2 8 9
M  V30 9 1 8 10
M  V30 10 2 10 11
M  V30 11 1 11 12
M  V30 12 1 12 13
M  V30 13 2 13 14
M  V30 14 1 14 15
M  V30 15 2 15 16
M  V30 16 1 16 17
M  V30 17 1 16 18
M  V30 18 2 18 19
M  V30 19 1 19 20
M  V30 20 1 11 21
M  V30 21 1 21 22
M  V30 22 2 22 23
M  V30 23 1 23 24
M  V30 24 1 24 25
M  V30 25 1 9 4
M  V30 26 1 19 13
M  V30 27 2 25 21
M  V30 28 1 25 7
M  V30 29 1 3 26
M  V30 30 1 5 27
M  V30 31 1 6 28
M  V30 32 1 9 29
M  V30 33 1 12 30
M  V30 34 1 14 31
M  V30 35 1 15 32
M  V30 36 1 18 33
M  V30 37 1 22 34
M  V30 38 1 23 35
M  V30 END BOND
M  V30 END CTAB
M  END
>  <Dataset>  (78) 
ChEMBL_Kinases

>  <Ligand_Instance>  (78) 
nan

>  <PDB_ID>  (78) 
nan

>  <Standardized_SMILES>  (78) 
O=C(O)c1ccc2c(c1)nc(Nc1ccc(F)cc1F)c1ccsc12

>  <Name>  (78) 
nan

>  <Pocket>  (78) 
nan

>  <ATP_Site>  (78) 
nan

>  <Peripheral>  (78) 
nan

>  <Num_H_Atoms_ProtBoundConf>  (78) 
nan

>  <Num_Resolved_Atoms>  (78) 
nan

>  <Num_Not_Resolved_Atoms>  (78) 
nan

$$$$
CHEMBL3700399
     RDKit          3D

  0  0  0  0  0  0  0  0  0  0999 V3000
M  V30 BEGIN CTAB
M  V30 COUNTS 32 35 0 0 0
M  V30 BEGIN ATOM
M  V30 1 O 4.154567 -3.641115 3.260501 0
M  V30 2 C 3.268749 -2.749591 3.311730 0
M  V30 3 O 3.101233 -2.039781 4.491848 0
M  V30 4 C 2.437973 -2.476322 2.142532 0
M  V30 5 C 2.649288 -3.215625 0.991367 0
M  V30 6 C 1.873037 -2.979115 -0.141783 0
M  V30 7 C 0.924993 -1.988204 -0.007369 0
M  V30 8 C 0.705853 -1.247715 1.129777 0
M  V30 9 C 1.467772 -1.482821 2.235592 0
M  V30 10 N -0.266718 -0.359191 0.990815 0
M  V30 11 C -1.019886 -0.111543 -0.069314 0
M  V30 12 N -1.992648 0.914242 0.088162 0
M  V30 13 C -2.152407 1.644341 1.328605 0
M  V30 14 C -0.957680 2.430434 1.841946 0
M  V30 15 C -2.175242 3.120275 1.355549 0
M  V30 16 C -0.841192 -0.823100 -1.229587 0
M  V30 17 C -1.560099 -0.646044 -2.369800 0
M  V30 18 C -1.161190 -1.541707 -3.461683 0
M  V30 19 S 0.204056 -2.548832 -2.747269 0
M  V30 20 C 0.165961 -1.770362 -1.144390 0
M  V30 21 H 3.312755 -2.459129 5.408479 0
M  V30 22 H 3.425409 -3.982762 0.976658 0
M  V30 23 H 2.018026 -3.538155 -1.043624 0
M  V30 24 H 1.274886 -0.895493 3.097122 0
M  V30 25 H -2.603465 1.140807 -0.715943 0
M  V30 26 H -2.694619 1.119075 2.168853 0
M  V30 27 H -0.080687 2.480004 1.160114 0
M  V30 28 H -0.721632 2.445070 2.913848 0
M  V30 29 H -2.795100 3.613812 2.130742 0
M  V30 30 H -2.179533 3.675737 0.398188 0
M  V30 31 H -2.359019 0.043552 -2.571072 0
M  V30 32 H -1.725557 -1.475037 -4.513220 0
M  V30 END ATOM
M  V30 BEGIN BOND
M  V30 1 2 1 2
M  V30 2 1 2 3
M  V30 3 1 2 4
M  V30 4 2 4 5
M  V30 5 1 5 6
M  V30 6 2 6 7
M  V30 7 1 7 8
M  V30 8 2 8 9
M  V30 9 1 8 10
M  V30 10 2 10 11
M  V30 11 1 11 12
M  V30 12 1 12 13
M  V30 13 1 13 14
M  V30 14 1 14 15
M  V30 15 1 11 16
M  V30 16 1 16 17
M  V30 17 2 17 18
M  V30 18 1 18 19
M  V30 19 1 19 20
M  V30 20 1 9 4
M  V30 21 1 15 13
M  V30 22 2 20 16
M  V30 23 1 20 7
M  V30 24 1 3 21
M  V30 25 1 5 22
M  V30 26 1 6 23
M  V30 27 1 9 24
M  V30 28 1 12 25
M  V30 29 1 13 26
M  V30 30 1 14 27
M  V30 31 1 14 28
M  V30 32 1 15 29
M  V30 33 1 15 30
M  V30 34 1 17 31
M  V30 35 1 18 32
M  V30 END BOND
M  V30 END CTAB
M  END
>  <Dataset>  (79) 
ChEMBL_Kinases

>  <Ligand_Instance>  (79) 
nan

>  <PDB_ID>  (79) 
nan

>  <Standardized_SMILES>  (79) 
O=C(O)c1ccc2c(c1)nc(NC1CC1)c1ccsc12

>  <Name>  (79) 
nan

>  <Pocket>  (79) 
nan

>  <ATP_Site>  (79) 
nan

>  <Peripheral>  (79) 
nan

>  <Num_H_Atoms_ProtBoundConf>  (79) 
nan

>  <Num_Resolved_Atoms>  (79) 
nan

>  <Num_Not_Resolved_Atoms>  (79) 
nan

$$$$
CHEMBL3700400
     RDKit          3D

  0  0  0  0  0  0  0  0  0  0999 V3000
M  V30 BEGIN CTAB
M  V30 COUNTS 39 43 0 0 0
M  V30 BEGIN ATOM
M  V30 1 O 0.385460 -6.759768 2.792929 0
M  V30 2 C 0.645792 -5.868053 1.936475 0
M  V30 3 O 1.471964 -6.329371 0.921368 0
M  V30 4 C 0.093719 -4.526471 2.080236 0
M  V30 5 C -0.700869 -4.319430 3.187156 0
M  V30 6 C -1.240296 -3.037548 3.340858 0
M  V30 7 C -0.954968 -2.087304 2.406771 0
M  V30 8 C -0.158509 -2.310771 1.305512 0
M  V30 9 C 0.380347 -3.566627 1.138995 0
M  V30 10 N -0.002157 -1.266053 0.518931 0
M  V30 11 C -0.535308 -0.057713 0.701848 0
M  V30 12 N -0.194065 0.890063 -0.317515 0
M  V30 13 C -0.950695 1.662603 -1.251423 0
M  V30 14 C -0.109997 2.885291 -1.493397 0
M  V30 15 C 1.280895 2.417763 -1.267121 0
M  V30 16 C 2.472385 2.982948 -1.641124 0
M  V30 17 C 3.657448 2.356228 -1.313909 0
M  V30 18 C 3.578848 1.161301 -0.608271 0
M  V30 19 C 2.377394 0.608830 -0.241453 0
M  V30 20 C 1.180852 1.240367 -0.571161 0
M  V30 21 C -1.338403 0.226474 1.781868 0
M  V30 22 C -1.927912 1.426750 2.055642 0
M  V30 23 C -2.709352 1.458233 3.235204 0
M  V30 24 S -2.581158 -0.222057 3.918553 0
M  V30 25 C -1.543884 -0.833497 2.651183 0
M  V30 26 H 2.373018 -6.786936 1.126807 0
M  V30 27 H -0.921614 -5.060715 3.913208 0
M  V30 28 H -1.864847 -2.859422 4.203766 0
M  V30 29 H 1.002214 -3.726244 0.271660 0
M  V30 30 H -1.007669 1.080892 -2.202926 0
M  V30 31 H -1.956789 1.925701 -0.886452 0
M  V30 32 H -0.295179 3.687646 -0.750914 0
M  V30 33 H -0.216517 3.321697 -2.502402 0
M  V30 34 H 2.530008 3.917405 -2.192534 0
M  V30 35 H 4.647704 2.723832 -1.564714 0
M  V30 36 H 4.498308 0.657887 -0.343930 0
M  V30 37 H 2.342183 -0.319598 0.305677 0
M  V30 38 H -1.860883 2.337137 1.476827 0
M  V30 39 H -3.260502 2.327722 3.623885 0
M  V30 END ATOM
M  V30 BEGIN BOND
M  V30 1 2 1 2
M  V30 2 1 2 3
M  V30 3 1 2 4
M  V30 4 2 4 5
M  V30 5 1 5 6
M  V30 6 2 6 7
M  V30 7 1 7 8
M  V30 8 2 8 9
M  V30 9 1 8 10
M  V30 10 2 10 11
M  V30 11 1 11 12
M  V30 12 1 12 13
M  V30 13 1 13 14
M  V30 14 1 14 15
M  V30 15 2 15 16
M  V30 16 1 16 17
M  V30 17 2 17 18
M  V30 18 1 18 19
M  V30 19 2 19 20
M  V30 20 1 11 21
M  V30 21 1 21 22
M  V30 22 2 22 23
M  V30 23 1 23 24
M  V30 24 1 24 25
M  V30 25 1 9 4
M  V30 26 1 20 12
M  V30 27 2 25 21
M  V30 28 1 25 7
M  V30 29 1 20 15
M  V30 30 1 3 26
M  V30 31 1 5 27
M  V30 32 1 6 28
M  V30 33 1 9 29
M  V30 34 1 13 30
M  V30 35 1 13 31
M  V30 36 1 14 32
M  V30 37 1 14 33
M  V30 38 1 16 34
M  V30 39 1 17 35
M  V30 40 1 18 36
M  V30 41 1 19 37
M  V30 42 1 22 38
M  V30 43 1 23 39
M  V30 END BOND
M  V30 END CTAB
M  END
>  <Dataset>  (80) 
ChEMBL_Kinases

>  <Ligand_Instance>  (80) 
nan

>  <PDB_ID>  (80) 
nan

>  <Standardized_SMILES>  (80) 
O=C(O)c1ccc2c(c1)nc(N1CCc3ccccc31)c1ccsc12

>  <Name>  (80) 
nan

>  <Pocket>  (80) 
nan

>  <ATP_Site>  (80) 
nan

>  <Peripheral>  (80) 
nan

>  <Num_H_Atoms_ProtBoundConf>  (80) 
nan

>  <Num_Resolved_Atoms>  (80) 
nan

>  <Num_Not_Resolved_Atoms>  (80) 
nan

$$$$
CHEMBL3700401
     RDKit          3D

  0  0  0  0  0  0  0  0  0  0999 V3000
M  V30 BEGIN CTAB
M  V30 COUNTS 39 42 0 0 0
M  V30 BEGIN ATOM
M  V30 1 C 2.832249 -4.762546 3.875153 0
M  V30 2 O 1.765195 -4.196131 4.635167 0
M  V30 3 C 0.957385 -3.220293 4.066557 0
M  V30 4 C 1.184511 -2.790139 2.754189 0
M  V30 5 C 0.404840 -1.816048 2.139704 0
M  V30 6 C -0.636107 -1.252855 2.859909 0
M  V30 7 N -1.452868 -0.247787 2.255620 0
M  V30 8 C -1.205951 0.076265 0.891379 0
M  V30 9 N -0.254320 0.995368 0.731080 0
M  V30 10 C 0.188224 1.495444 -0.408228 0
M  V30 11 C 1.155709 2.433272 -0.637653 0
M  V30 12 C 1.507050 2.854049 -1.905229 0
M  V30 13 C 2.546908 3.855941 -2.084235 0
M  V30 14 O 2.838039 4.214957 -3.273888 0
M  V30 15 O 3.242823 4.448133 -1.064695 0
M  V30 16 C 0.853054 2.304005 -2.986508 0
M  V30 17 C -0.133504 1.350385 -2.788378 0
M  V30 18 C -0.464430 0.948415 -1.512148 0
M  V30 19 C -1.463046 -0.009515 -1.433724 0
M  V30 20 S -2.393485 -0.813751 -2.628078 0
M  V30 21 C -3.361121 -1.823952 -1.351419 0
M  V30 22 C -2.828336 -1.404386 -0.071215 0
M  V30 23 C -1.863586 -0.476846 -0.191678 0
M  V30 24 C -0.859791 -1.675758 4.150197 0
M  V30 25 C -0.092580 -2.648504 4.784355 0
M  V30 26 Cl -0.404190 -3.163990 6.425867 0
M  V30 27 H 3.603686 -3.989604 3.632327 0
M  V30 28 H 2.415693 -5.183636 2.948114 0
M  V30 29 H 3.355425 -5.522588 4.479031 0
M  V30 30 H 1.997718 -3.209214 2.148001 0
M  V30 31 H 0.626772 -1.517216 1.110937 0
M  V30 32 H -2.193508 0.202271 2.840469 0
M  V30 33 H 1.617051 2.811568 0.259910 0
M  V30 34 H 3.807108 5.292671 -1.218549 0
M  V30 35 H 1.094305 2.603452 -4.015710 0
M  V30 36 H -0.636069 0.930405 -3.668685 0
M  V30 37 H -4.212195 -2.625550 -1.481569 0
M  V30 38 H -3.271081 -1.884588 0.781385 0
M  V30 39 H -1.680617 -1.222506 4.698352 0
M  V30 END ATOM
M  V30 BEGIN BOND
M  V30 1 1 1 2
M  V30 2 1 2 3
M  V30 3 2 3 4
M  V30 4 1 4 5
M  V30 5 2 5 6
M  V30 6 1 6 7
M  V30 7 1 7 8
M  V30 8 2 8 9
M  V30 9 1 9 10
M  V30 10 2 10 11
M  V30 11 1 11 12
M  V30 12 1 12 13
M  V30 13 2 13 14
M  V30 14 1 13 15
M  V30 15 2 12 16
M  V30 16 1 16 17
M  V30 17 2 17 18
M  V30 18 1 18 19
M  V30 19 1 19 20
M  V30 20 1 20 21
M  V30 21 2 21 22
M  V30 22 1 22 23
M  V30 23 1 6 24
M  V30 24 2 24 25
M  V30 25 1 25 26
M  V30 26 1 25 3
M  V30 27 1 23 8
M  V30 28 1 18 10
M  V30 29 2 23 19
M  V30 30 1 1 27
M  V30 31 1 1 28
M  V30 32 1 1 29
M  V30 33 1 4 30
M  V30 34 1 5 31
M  V30 35 1 7 32
M  V30 36 1 11 33
M  V30 37 1 15 34
M  V30 38 1 16 35
M  V30 39 1 17 36
M  V30 40 1 21 37
M  V30 41 1 22 38
M  V30 42 1 24 39
M  V30 END BOND
M  V30 END CTAB
M  END
>  <Dataset>  (81) 
ChEMBL_Kinases

>  <Ligand_Instance>  (81) 
nan

>  <PDB_ID>  (81) 
nan

>  <Standardized_SMILES>  (81) 
COc1ccc(Nc2nc3cc(C(=O)O)ccc3c3sccc23)cc1Cl

>  <Name>  (81) 
nan

>  <Pocket>  (81) 
nan

>  <ATP_Site>  (81) 
nan

>  <Peripheral>  (81) 
nan

>  <Num_H_Atoms_ProtBoundConf>  (81) 
nan

>  <Num_Resolved_Atoms>  (81) 
nan

>  <Num_Not_Resolved_Atoms>  (81) 
nan

$$$$
CHEMBL3700402
     RDKit          3D

  0  0  0  0  0  0  0  0  0  0999 V3000
M  V30 BEGIN CTAB
M  V30 COUNTS 36 39 0 0 0
M  V30 BEGIN ATOM
M  V30 1 O 0.108386 -3.286903 5.022305 0
M  V30 2 C 0.435850 -3.863565 3.957661 0
M  V30 3 O 0.402839 -5.166087 4.443718 0
M  V30 4 C 0.756082 -3.372775 2.624283 0
M  V30 5 C 1.099679 -4.205625 1.573952 0
M  V30 6 C 1.383593 -3.637874 0.355014 0
M  V30 7 C 1.308528 -2.275836 0.257741 0
M  V30 8 C 0.969100 -1.429589 1.285414 0
M  V30 9 C 0.684210 -1.991265 2.505619 0
M  V30 10 N 0.950179 -0.138817 0.988658 0
M  V30 11 C 1.214926 0.456825 -0.167391 0
M  V30 12 N 1.132962 1.893237 -0.320428 0
M  V30 13 C -0.195148 2.243726 0.122784 0
M  V30 14 C -0.470512 3.126711 1.169686 0
M  V30 15 C -1.761853 3.404980 1.550223 0
M  V30 16 C -2.829527 2.814501 0.902703 0
M  V30 17 C -2.620702 1.935824 -0.135767 0
M  V30 18 C -1.327573 1.687790 -0.481283 0
M  V30 19 O -1.125636 0.795219 -1.536136 0
M  V30 20 C 1.564884 -0.307170 -1.251404 0
M  V30 21 C 1.878613 0.069403 -2.519030 0
M  V30 22 C 2.215774 -0.898694 -3.494088 0
M  V30 23 S 2.080914 -2.478271 -2.549891 0
M  V30 24 C 1.598494 -1.715061 -0.979383 0
M  V30 25 H -0.473305 -5.662329 4.674184 0
M  V30 26 H 1.137647 -5.290219 1.734897 0
M  V30 27 H 1.649551 -4.305965 -0.453772 0
M  V30 28 H 0.422000 -1.335225 3.301185 0
M  V30 29 H 1.843093 2.578256 -0.668352 0
M  V30 30 H 0.374789 3.575415 1.657574 0
M  V30 31 H -1.951741 4.094958 2.363291 0
M  V30 32 H -3.849304 3.023318 1.189806 0
M  V30 33 H -3.444030 1.456861 -0.661118 0
M  V30 34 H -1.332216 -0.184159 -1.281950 0
M  V30 35 H 1.899931 1.080885 -2.883265 0
M  V30 36 H 2.483186 -0.819352 -4.502455 0
M  V30 END ATOM
M  V30 BEGIN BOND
M  V30 1 2 1 2
M  V30 2 1 2 3
M  V30 3 1 2 4
M  V30 4 2 4 5
M  V30 5 1 5 6
M  V30 6 2 6 7
M  V30 7 1 7 8
M  V30 8 2 8 9
M  V30 9 1 8 10
M  V30 10 2 10 11
M  V30 11 1 11 12
M  V30 12 1 12 13
M  V30 13 2 13 14
M  V30 14 1 14 15
M  V30 15 2 15 16
M  V30 16 1 16 17
M  V30 17 2 17 18
M  V30 18 1 18 19
M  V30 19 1 11 20
M  V30 20 1 20 21
M  V30 21 2 21 22
M  V30 22 1 22 23
M  V30 23 1 23 24
M  V30 24 1 9 4
M  V30 25 1 18 13
M  V30 26 2 24 20
M  V30 27 1 24 7
M  V30 28 1 3 25
M  V30 29 1 5 26
M  V30 30 1 6 27
M  V30 31 1 9 28
M  V30 32 1 12 29
M  V30 33 1 14 30
M  V30 34 1 15 31
M  V30 35 1 16 32
M  V30 36 1 17 33
M  V30 37 1 19 34
M  V30 38 1 21 35
M  V30 39 1 22 36
M  V30 END BOND
M  V30 END CTAB
M  END
>  <Dataset>  (82) 
ChEMBL_Kinases

>  <Ligand_Instance>  (82) 
nan

>  <PDB_ID>  (82) 
nan

>  <Standardized_SMILES>  (82) 
O=C(O)c1ccc2c(c1)nc(Nc1ccccc1O)c1ccsc12

>  <Name>  (82) 
nan

>  <Pocket>  (82) 
nan

>  <ATP_Site>  (82) 
nan

>  <Peripheral>  (82) 
nan

>  <Num_H_Atoms_ProtBoundConf>  (82) 
nan

>  <Num_Resolved_Atoms>  (82) 
nan

>  <Num_Not_Resolved_Atoms>  (82) 
nan

$$$$
CHEMBL3700403
     RDKit          3D

  0  0  0  0  0  0  0  0  0  0999 V3000
M  V30 BEGIN CTAB
M  V30 COUNTS 48 52 0 0 0
M  V30 BEGIN ATOM
M  V30 1 O 5.751911 -1.485504 1.023338 0
M  V30 2 C 5.318073 -2.364034 0.271920 0
M  V30 3 O 6.182051 -3.479422 0.231657 0
M  V30 4 C 4.145441 -2.552899 -0.586446 0
M  V30 5 C 3.861138 -3.647618 -1.371598 0
M  V30 6 C 2.685837 -3.614795 -2.082245 0
M  V30 7 C 1.849159 -2.532324 -1.999947 0
M  V30 8 C 2.110040 -1.424746 -1.222894 0
M  V30 9 C 3.284040 -1.451243 -0.508772 0
M  V30 10 N 1.154965 -0.504243 -1.296887 0
M  V30 11 C 0.036118 -0.511591 -1.985856 0
M  V30 12 N -0.767127 0.651023 -1.850484 0
M  V30 13 C -1.328135 0.701798 -0.517041 0
M  V30 14 C -0.498091 1.523354 0.235272 0
M  V30 15 C -0.769352 1.781686 1.580607 0
M  V30 16 C -1.882184 1.205411 2.162953 0
M  V30 17 N -2.224989 1.412459 3.526884 0
M  V30 18 C -3.272492 0.716599 4.300111 0
M  V30 19 C -2.480213 -0.051821 5.345125 0
M  V30 20 O -1.815843 0.844833 6.137598 0
M  V30 21 C -0.865321 1.621945 5.504438 0
M  V30 22 C -1.552038 2.382884 4.386489 0
M  V30 23 C -2.689610 0.396831 1.400464 0
M  V30 24 C -2.432207 0.136745 0.075862 0
M  V30 25 C -0.267832 -1.589997 -2.771234 0
M  V30 26 C -1.386060 -1.731060 -3.532709 0
M  V30 27 C -1.491606 -2.975789 -4.286916 0
M  V30 28 S 0.093305 -3.902880 -3.833005 0
M  V30 29 C 0.720103 -2.630202 -2.745689 0
M  V30 30 H 7.146637 -3.397957 0.456268 0
M  V30 31 H 4.575290 -4.430790 -1.365676 0
M  V30 32 H 2.474276 -4.478074 -2.692769 0
M  V30 33 H 3.440384 -0.551457 0.090185 0
M  V30 34 H -0.931094 1.362777 -2.598360 0
M  V30 35 H 0.406446 2.047109 -0.068755 0
M  V30 36 H -0.128767 2.430848 2.203069 0
M  V30 37 H -3.865263 1.514815 4.784942 0
M  V30 38 H -3.942459 0.117970 3.698044 0
M  V30 39 H -3.128942 -0.666880 5.994085 0
M  V30 40 H -1.806638 -0.721684 4.770376 0
M  V30 41 H 0.017757 1.070568 5.152800 0
M  V30 42 H -0.518688 2.372232 6.245062 0
M  V30 43 H -2.376974 2.968492 4.890960 0
M  V30 44 H -0.947004 3.119391 3.883036 0
M  V30 45 H -3.594980 -0.115955 1.735517 0
M  V30 46 H -2.958173 -0.463499 -0.648734 0
M  V30 47 H -2.202863 -1.046690 -3.654865 0
M  V30 48 H -2.384002 -3.223826 -4.971456 0
M  V30 END ATOM
M  V30 BEGIN BOND
M  V30 1 2 1 2
M  V30 2 1 2 3
M  V30 3 1 2 4
M  V30 4 2 4 5
M  V30 5 1 5 6
M  V30 6 2 6 7
M  V30 7 1 7 8
M  V30 8 2 8 9
M  V30 9 1 8 10
M  V30 10 2 10 11
M  V30 11 1 11 12
M  V30 12 1 12 13
M  V30 13 2 13 14
M  V30 14 1 14 15
M  V30 15 2 15 16
M  V30 16 1 16 17
M  V30 17 1 17 18
M  V30 18 1 18 19
M  V30 19 1 19 20
M  V30 20 1 20 21
M  V30 21 1 21 22
M  V30 22 1 16 23
M  V30 23 2 23 24
M  V30 24 1 11 25
M  V30 25 1 25 26
M  V30 26 2 26 27
M  V30 27 1 27 28
M  V30 28 1 28 29
M  V30 29 1 9 4
M  V30 30 1 24 13
M  V30 31 2 29 25
M  V30 32 1 29 7
M  V30 33 1 22 17
M  V30 34 1 3 30
M  V30 35 1 5 31
M  V30 36 1 6 32
M  V30 37 1 9 33
M  V30 38 1 12 34
M  V30 39 1 14 35
M  V30 40 1 15 36
M  V30 41 1 18 37
M  V30 42 1 18 38
M  V30 43 1 19 39
M  V30 44 1 19 40
M  V30 45 1 21 41
M  V30 46 1 21 42
M  V30 47 1 22 43
M  V30 48 1 22 44
M  V30 49 1 23 45
M  V30 50 1 24 46
M  V30 51 1 26 47
M  V30 52 1 27 48
M  V30 END BOND
M  V30 END CTAB
M  END
>  <Dataset>  (83) 
ChEMBL_Kinases

>  <Ligand_Instance>  (83) 
nan

>  <PDB_ID>  (83) 
nan

>  <Standardized_SMILES>  (83) 
O=C(O)c1ccc2c(c1)nc(Nc1ccc(N3CCOCC3)cc1)c1ccsc12

>  <Name>  (83) 
nan

>  <Pocket>  (83) 
nan

>  <ATP_Site>  (83) 
nan

>  <Peripheral>  (83) 
nan

>  <Num_H_Atoms_ProtBoundConf>  (83) 
nan

>  <Num_Resolved_Atoms>  (83) 
nan

>  <Num_Not_Resolved_Atoms>  (83) 
nan

$$$$
CHEMBL3700414
     RDKit          3D

  0  0  0  0  0  0  0  0  0  0999 V3000
M  V30 BEGIN CTAB
M  V30 COUNTS 39 43 0 0 0
M  V30 BEGIN ATOM
M  V30 1 F -0.105436 -3.998654 6.618653 0
M  V30 2 C -0.324514 -3.434341 5.403463 0
M  V30 3 C 0.704333 -2.828707 4.710928 0
M  V30 4 C 0.495673 -2.248005 3.468471 0
M  V30 5 N 1.517261 -1.607037 2.702606 0
M  V30 6 C 1.226336 -1.029539 1.427773 0
M  V30 7 N 0.835461 0.254875 1.273976 0
M  V30 8 C 0.565263 0.781458 0.060589 0
M  V30 9 C 0.171209 2.121469 0.043508 0
M  V30 10 C -0.099027 2.631679 -1.220660 0
M  V30 11 C -0.515508 4.027644 -1.300847 0
M  V30 12 N -0.828949 4.738193 -2.404459 0
M  V30 13 N -1.162578 5.974594 -2.106708 0
M  V30 14 N -1.073392 6.099770 -0.788691 0
M  V30 15 N -0.681900 4.919729 -0.307468 0
M  V30 16 C -0.002081 1.917008 -2.396187 0
M  V30 17 C 0.390305 0.595373 -2.340241 0
M  V30 18 C 0.666390 0.055193 -1.106675 0
M  V30 19 C 1.061097 -1.256813 -0.997190 0
M  V30 20 C 1.188047 -2.053570 -2.110219 0
M  V30 21 N 1.576419 -3.339720 -1.987686 0
M  V30 22 C 1.836969 -3.827545 -0.756410 0
M  V30 23 C 1.730924 -3.087026 0.403026 0
M  V30 24 C 1.328989 -1.761241 0.259921 0
M  V30 25 C -0.796790 -2.315651 2.975921 0
M  V30 26 C -1.852603 -2.911752 3.636679 0
M  V30 27 C -1.599384 -3.480907 4.878003 0
M  V30 28 Cl -2.946814 -4.225387 5.689195 0
M  V30 29 H 1.712662 -2.780289 5.103755 0
M  V30 30 H 2.481570 -1.598287 3.151110 0
M  V30 31 H 0.078321 2.725863 0.923158 0
M  V30 32 H -0.513685 4.678355 0.713865 0
M  V30 33 H -0.232402 2.398580 -3.330760 0
M  V30 34 H 0.449943 0.085060 -3.279942 0
M  V30 35 H 1.003592 -1.751395 -3.114130 0
M  V30 36 H 2.148903 -4.858178 -0.650389 0
M  V30 37 H 1.943809 -3.497927 1.371469 0
M  V30 38 H -0.971170 -1.859532 1.995022 0
M  V30 39 H -2.820277 -2.894143 3.133684 0
M  V30 END ATOM
M  V30 BEGIN BOND
M  V30 1 1 1 2
M  V30 2 2 2 3
M  V30 3 1 3 4
M  V30 4 1 4 5
M  V30 5 1 5 6
M  V30 6 2 6 7
M  V30 7 1 7 8
M  V30 8 2 8 9
M  V30 9 1 9 10
M  V30 10 1 10 11
M  V30 11 2 11 12
M  V30 12 1 12 13
M  V30 13 2 13 14
M  V30 14 1 14 15
M  V30 15 2 10 16
M  V30 16 1 16 17
M  V30 17 2 17 18
M  V30 18 1 18 19
M  V30 19 2 19 20
M  V30 20 1 20 21
M  V30 21 2 21 22
M  V30 22 1 22 23
M  V30 23 2 23 24
M  V30 24 2 4 25
M  V30 25 1 25 26
M  V30 26 2 26 27
M  V30 27 1 27 28
M  V30 28 1 27 2
M  V30 29 1 24 6
M  V30 30 1 18 8
M  V30 31 1 24 19
M  V30 32 1 15 11
M  V30 33 1 3 29
M  V30 34 1 5 30
M  V30 35 1 9 31
M  V30 36 1 15 32
M  V30 37 1 16 33
M  V30 38 1 17 34
M  V30 39 1 20 35
M  V30 40 1 22 36
M  V30 41 1 23 37
M  V30 42 1 25 38
M  V30 43 1 26 39
M  V30 END BOND
M  V30 END CTAB
M  END
>  <Dataset>  (84) 
ChEMBL_Kinases

>  <Ligand_Instance>  (84) 
nan

>  <PDB_ID>  (84) 
nan

>  <Standardized_SMILES>  (84) 
Fc1cc(Nc2nc3cc(-c4nnn[nH]4)ccc3c3cnccc23)ccc1Cl

>  <Name>  (84) 
nan

>  <Pocket>  (84) 
nan

>  <ATP_Site>  (84) 
nan

>  <Peripheral>  (84) 
nan

>  <Num_H_Atoms_ProtBoundConf>  (84) 
nan

>  <Num_Resolved_Atoms>  (84) 
nan

>  <Num_Not_Resolved_Atoms>  (84) 
nan

$$$$
CHEMBL3700405
     RDKit          3D

  0  0  0  0  0  0  0  0  0  0999 V3000
M  V30 BEGIN CTAB
M  V30 COUNTS 26 29 0 0 0
M  V30 BEGIN ATOM
M  V30 1 O -1.241516 -3.235081 3.316914 0
M  V30 2 C -1.188674 -2.204480 2.559053 0
M  V30 3 N 0.000519 -1.962019 1.996348 0
M  V30 4 C 0.351505 -0.967783 1.167221 0
M  V30 5 C 1.605737 -0.790548 0.630116 0
M  V30 6 C 1.776182 0.295738 -0.206207 0
M  V30 7 C 3.093313 0.522091 -0.799184 0
M  V30 8 N 4.229015 1.202940 -0.584612 0
M  V30 9 N 5.080954 0.952627 -1.561112 0
M  V30 10 N 4.507260 0.115892 -2.406056 0
M  V30 11 N 3.293353 -0.153948 -1.951037 0
M  V30 12 C 0.712124 1.138873 -0.464497 0
M  V30 13 C -0.561246 0.970306 0.072632 0
M  V30 14 C -0.718814 -0.115651 0.904507 0
M  V30 15 C -1.979642 -0.288969 1.440929 0
M  V30 16 S -3.410390 0.616256 1.257780 0
M  V30 17 C -4.431435 -0.494634 2.389602 0
M  V30 18 C -3.466161 -1.545923 2.829767 0
M  V30 19 C -2.232696 -1.343989 2.281743 0
M  V30 20 H 0.815465 -2.613899 2.198579 0
M  V30 21 H 2.363469 -1.491071 0.886001 0
M  V30 22 H 5.088362 -0.163663 -3.234761 0
M  V30 23 H 0.896608 1.974998 -1.125627 0
M  V30 24 H -1.377008 1.634218 -0.137982 0
M  V30 25 H -5.557242 -0.507016 2.766245 0
M  V30 26 H -3.873084 -2.282194 3.491784 0
M  V30 END ATOM
M  V30 BEGIN BOND
M  V30 1 2 1 2
M  V30 2 1 2 3
M  V30 3 1 3 4
M  V30 4 2 4 5
M  V30 5 1 5 6
M  V30 6 1 6 7
M  V30 7 1 7 8
M  V30 8 2 8 9
M  V30 9 1 9 10
M  V30 10 1 10 11
M  V30 11 2 6 12
M  V30 12 1 12 13
M  V30 13 2 13 14
M  V30 14 1 14 15
M  V30 15 1 15 16
M  V30 16 1 16 17
M  V30 17 2 17 18
M  V30 18 1 18 19
M  V30 19 1 19 2
M  V30 20 1 14 4
M  V30 21 2 19 15
M  V30 22 2 11 7
M  V30 23 1 3 20
M  V30 24 1 5 21
M  V30 25 1 10 22
M  V30 26 1 12 23
M  V30 27 1 13 24
M  V30 28 1 17 25
M  V30 29 1 18 26
M  V30 END BOND
M  V30 END CTAB
M  END
>  <Dataset>  (85) 
ChEMBL_Kinases

>  <Ligand_Instance>  (85) 
nan

>  <PDB_ID>  (85) 
nan

>  <Standardized_SMILES>  (85) 
O=c1[nH]c2cc(-c3nn[nH]n3)ccc2c2sccc12

>  <Name>  (85) 
nan

>  <Pocket>  (85) 
nan

>  <ATP_Site>  (85) 
nan

>  <Peripheral>  (85) 
nan

>  <Num_H_Atoms_ProtBoundConf>  (85) 
nan

>  <Num_Resolved_Atoms>  (85) 
nan

>  <Num_Not_Resolved_Atoms>  (85) 
nan

$$$$
CHEMBL3700406
     RDKit          3D

  0  0  0  0  0  0  0  0  0  0999 V3000
M  V30 BEGIN CTAB
M  V30 COUNTS 38 40 0 0 0
M  V30 BEGIN ATOM
M  V30 1 C 0.133076 -4.582187 0.516588 0
M  V30 2 N 0.014492 -3.681246 1.657044 0
M  V30 3 C 0.803618 -4.298186 2.727784 0
M  V30 4 C 0.608202 -2.376647 1.314853 0
M  V30 5 C -0.240577 -1.728974 0.288062 0
M  V30 6 N 0.239220 -0.407927 -0.154898 0
M  V30 7 C 1.047605 -0.383629 -1.224955 0
M  V30 8 O 1.326659 -1.513082 -1.762441 0
M  V30 9 C 1.538886 0.821603 -1.699427 0
M  V30 10 C 2.361818 0.920553 -2.778976 0
M  V30 11 C 2.744728 2.287061 -3.086811 0
M  V30 12 S 1.875600 3.319039 -1.779678 0
M  V30 13 C 1.149674 1.943002 -1.017134 0
M  V30 14 C 0.311758 1.849627 0.082592 0
M  V30 15 C -0.011554 3.042686 0.695854 0
M  V30 16 C -0.839483 3.077229 1.809235 0
M  V30 17 C -1.302977 1.855480 2.245338 0
M  V30 18 C -2.171574 1.891479 3.413653 0
M  V30 19 O -2.486613 2.954904 3.999501 0
M  V30 20 O -2.839784 0.969933 4.165728 0
M  V30 21 C -0.996715 0.652539 1.653790 0
M  V30 22 C -0.178227 0.653096 0.557160 0
M  V30 23 H 1.165915 -4.555611 0.099408 0
M  V30 24 H -0.098823 -5.603357 0.917491 0
M  V30 25 H -0.592287 -4.383951 -0.269547 0
M  V30 26 H 0.091621 -4.916180 3.315916 0
M  V30 27 H 1.626258 -4.925075 2.313804 0
M  V30 28 H 1.189869 -3.537338 3.448667 0
M  V30 29 H 0.636829 -1.827298 2.285854 0
M  V30 30 H 1.616715 -2.649065 0.939766 0
M  V30 31 H -1.271926 -1.624934 0.647325 0
M  V30 32 H -0.246712 -2.405760 -0.607808 0
M  V30 33 H 2.770668 0.171877 -3.432903 0
M  V30 34 H 3.446774 2.564082 -3.978444 0
M  V30 35 H 0.364209 3.993541 0.336528 0
M  V30 36 H -1.087083 4.018173 2.282223 0
M  V30 37 H -3.866157 0.864916 4.149584 0
M  V30 38 H -1.358981 -0.271507 2.011455 0
M  V30 END ATOM
M  V30 BEGIN BOND
M  V30 1 1 1 2
M  V30 2 1 2 3
M  V30 3 1 2 4
M  V30 4 1 4 5
M  V30 5 1 5 6
M  V30 6 1 6 7
M  V30 7 2 7 8
M  V30 8 1 7 9
M  V30 9 1 9 10
M  V30 10 2 10 11
M  V30 11 1 11 12
M  V30 12 1 12 13
M  V30 13 1 13 14
M  V30 14 2 14 15
M  V30 15 1 15 16
M  V30 16 2 16 17
M  V30 17 1 17 18
M  V30 18 2 18 19
M  V30 19 1 18 20
M  V30 20 1 17 21
M  V30 21 2 21 22
M  V30 22 1 22 6
M  V30 23 2 13 9
M  V30 24 1 22 14
M  V30 25 1 1 23
M  V30 26 1 1 24
M  V30 27 1 1 25
M  V30 28 1 3 26
M  V30 29 1 3 27
M  V30 30 1 3 28
M  V30 31 1 4 29
M  V30 32 1 4 30
M  V30 33 1 5 31
M  V30 34 1 5 32
M  V30 35 1 10 33
M  V30 36 1 11 34
M  V30 37 1 15 35
M  V30 38 1 16 36
M  V30 39 1 20 37
M  V30 40 1 21 38
M  V30 END BOND
M  V30 END CTAB
M  END
>  <Dataset>  (86) 
ChEMBL_Kinases

>  <Ligand_Instance>  (86) 
nan

>  <PDB_ID>  (86) 
nan

>  <Standardized_SMILES>  (86) 
CN(C)CCn1c(=O)c2ccsc2c2ccc(C(=O)O)cc21

>  <Name>  (86) 
nan

>  <Pocket>  (86) 
nan

>  <ATP_Site>  (86) 
nan

>  <Peripheral>  (86) 
nan

>  <Num_H_Atoms_ProtBoundConf>  (86) 
nan

>  <Num_Resolved_Atoms>  (86) 
nan

>  <Num_Not_Resolved_Atoms>  (86) 
nan

$$$$
CHEMBL3700407
     RDKit          3D

  0  0  0  0  0  0  0  0  0  0999 V3000
M  V30 BEGIN CTAB
M  V30 COUNTS 39 43 0 0 0
M  V30 BEGIN ATOM
M  V30 1 C -1.380327 -3.516959 4.996685 0
M  V30 2 C -0.034618 -3.598244 5.332158 0
M  V30 3 C 0.933647 -3.000461 4.554567 0
M  V30 4 C 0.625072 -2.294034 3.409172 0
M  V30 5 N 1.625251 -1.671370 2.607510 0
M  V30 6 C 1.241501 -0.999638 1.412071 0
M  V30 7 N 0.849812 0.297685 1.283549 0
M  V30 8 C 0.513213 0.815991 0.089256 0
M  V30 9 C 0.131065 2.140715 0.065151 0
M  V30 10 C -0.212580 2.673308 -1.158176 0
M  V30 11 C -0.629372 4.080902 -1.250773 0
M  V30 12 N -0.978497 4.744406 -2.370399 0
M  V30 13 N -1.283488 5.997745 -2.021401 0
M  V30 14 N -1.139810 6.147304 -0.726366 0
M  V30 15 N -0.736637 4.968596 -0.246023 0
M  V30 16 C -0.180887 1.923749 -2.321845 0
M  V30 17 C 0.206214 0.596386 -2.268109 0
M  V30 18 C 0.550622 0.054143 -1.058051 0
M  V30 19 C 0.940277 -1.259467 -0.971005 0
M  V30 20 C 0.990448 -2.050426 -2.095428 0
M  V30 21 N 1.371836 -3.347687 -2.038723 0
M  V30 22 C 1.712047 -3.881992 -0.851172 0
M  V30 23 C 1.664613 -3.098171 0.276873 0
M  V30 24 C 1.281904 -1.774828 0.259870 0
M  V30 25 C -0.708723 -2.204406 3.062348 0
M  V30 26 C -1.683570 -2.799498 3.834814 0
M  V30 27 H -2.151514 -3.979260 5.595381 0
M  V30 28 H 0.177025 -4.163220 6.242974 0
M  V30 29 H 1.957282 -3.074318 4.829628 0
M  V30 30 H 2.627631 -1.743413 2.953298 0
M  V30 31 H 0.096391 2.745677 0.951486 0
M  V30 32 H -0.519806 4.708372 0.753291 0
M  V30 33 H -0.462641 2.404325 -3.248868 0
M  V30 34 H 0.200798 0.092387 -3.215309 0
M  V30 35 H 0.744820 -1.744900 -3.094899 0
M  V30 36 H 2.020197 -4.906520 -0.767169 0
M  V30 37 H 1.943455 -3.549868 1.228903 0
M  V30 38 H -0.983668 -1.651274 2.159956 0
M  V30 39 H -2.732021 -2.722540 3.550888 0
M  V30 END ATOM
M  V30 BEGIN BOND
M  V30 1 2 1 2
M  V30 2 1 2 3
M  V30 3 2 3 4
M  V30 4 1 4 5
M  V30 5 1 5 6
M  V30 6 2 6 7
M  V30 7 1 7 8
M  V30 8 2 8 9
M  V30 9 1 9 10
M  V30 10 1 10 11
M  V30 11 2 11 12
M  V30 12 1 12 13
M  V30 13 2 13 14
M  V30 14 1 14 15
M  V30 15 2 10 16
M  V30 16 1 16 17
M  V30 17 2 17 18
M  V30 18 1 18 19
M  V30 19 2 19 20
M  V30 20 1 20 21
M  V30 21 2 21 22
M  V30 22 1 22 23
M  V30 23 2 23 24
M  V30 24 1 4 25
M  V30 25 2 25 26
M  V30 26 1 26 1
M  V30 27 1 24 6
M  V30 28 1 18 8
M  V30 29 1 24 19
M  V30 30 1 15 11
M  V30 31 1 1 27
M  V30 32 1 2 28
M  V30 33 1 3 29
M  V30 34 1 5 30
M  V30 35 1 9 31
M  V30 36 1 15 32
M  V30 37 1 16 33
M  V30 38 1 17 34
M  V30 39 1 20 35
M  V30 40 1 22 36
M  V30 41 1 23 37
M  V30 42 1 25 38
M  V30 43 1 26 39
M  V30 END BOND
M  V30 END CTAB
M  END
>  <Dataset>  (87) 
ChEMBL_Kinases

>  <Ligand_Instance>  (87) 
nan

>  <PDB_ID>  (87) 
nan

>  <Standardized_SMILES>  (87) 
c1ccc(Nc2nc3cc(-c4nnn[nH]4)ccc3c3cnccc23)cc1

>  <Name>  (87) 
nan

>  <Pocket>  (87) 
nan

>  <ATP_Site>  (87) 
nan

>  <Peripheral>  (87) 
nan

>  <Num_H_Atoms_ProtBoundConf>  (87) 
nan

>  <Num_Resolved_Atoms>  (87) 
nan

>  <Num_Not_Resolved_Atoms>  (87) 
nan

$$$$
CHEMBL3700408
     RDKit          3D

  0  0  0  0  0  0  0  0  0  0999 V3000
M  V30 BEGIN CTAB
M  V30 COUNTS 43 46 0 0 0
M  V30 BEGIN ATOM
M  V30 1 C 0.787772 -4.995220 -1.601125 0
M  V30 2 N 0.595004 -3.614034 -1.404851 0
M  V30 3 C -0.612056 -3.271633 -0.736969 0
M  V30 4 C 1.686749 -2.812641 -1.018282 0
M  V30 5 C 2.240063 -3.058676 0.355224 0
M  V30 6 N 1.272689 -2.832839 1.382301 0
M  V30 7 C 0.724700 -1.544127 1.651305 0
M  V30 8 N 1.151446 -0.504207 0.917432 0
M  V30 9 C 0.672673 0.726682 1.141006 0
M  V30 10 C 1.161823 1.759975 0.340964 0
M  V30 11 C 0.703916 3.048530 0.528387 0
M  V30 12 C 1.195780 4.172279 -0.296722 0
M  V30 13 N 2.101509 4.092467 -1.286331 0
M  V30 14 N 2.298233 5.304796 -1.805452 0
M  V30 15 N 1.522459 6.158573 -1.152118 0
M  V30 16 N 0.863174 5.474878 -0.248235 0
M  V30 17 C -0.246733 3.354974 1.506984 0
M  V30 18 C -0.722140 2.321429 2.291613 0
M  V30 19 C -0.263072 1.039882 2.101200 0
M  V30 20 C -0.713175 -0.008679 2.863032 0
M  V30 21 C -1.648975 0.227623 3.842332 0
M  V30 22 N -2.081172 -0.834131 4.587299 0
M  V30 23 C -1.617697 -2.069519 4.382006 0
M  V30 24 C -0.682235 -2.278665 3.396216 0
M  V30 25 C -0.205834 -1.263374 2.613720 0
M  V30 26 H -0.172794 -5.540074 -1.698968 0
M  V30 27 H 1.471468 -5.242860 -2.456284 0
M  V30 28 H 1.266293 -5.419290 -0.690418 0
M  V30 29 H -0.705508 -3.654948 0.284575 0
M  V30 30 H -1.481730 -3.734075 -1.301379 0
M  V30 31 H -0.702501 -2.156986 -0.770894 0
M  V30 32 H 2.535068 -2.828224 -1.759208 0
M  V30 33 H 1.327343 -1.740744 -1.050805 0
M  V30 34 H 2.640953 -4.103107 0.453706 0
M  V30 35 H 3.058058 -2.314877 0.521909 0
M  V30 36 H 0.988572 -3.679545 1.938132 0
M  V30 37 H 1.899053 1.594378 -0.435918 0
M  V30 38 H 0.159024 5.861223 0.441141 0
M  V30 39 H -0.571251 4.363715 1.616356 0
M  V30 40 H -1.438384 2.608987 3.014947 0
M  V30 41 H -2.096685 1.167505 4.104552 0
M  V30 42 H -2.022313 -2.850407 5.025911 0
M  V30 43 H -0.364599 -3.304393 3.300498 0
M  V30 END ATOM
M  V30 BEGIN BOND
M  V30 1 1 1 2
M  V30 2 1 2 3
M  V30 3 1 2 4
M  V30 4 1 4 5
M  V30 5 1 5 6
M  V30 6 1 6 7
M  V30 7 2 7 8
M  V30 8 1 8 9
M  V30 9 2 9 10
M  V30 10 1 10 11
M  V30 11 1 11 12
M  V30 12 2 12 13
M  V30 13 1 13 14
M  V30 14 2 14 15
M  V30 15 1 15 16
M  V30 16 2 11 17
M  V30 17 1 17 18
M  V30 18 2 18 19
M  V30 19 1 19 20
M  V30 20 2 20 21
M  V30 21 1 21 22
M  V30 22 2 22 23
M  V30 23 1 23 24
M  V30 24 2 24 25
M  V30 25 1 25 7
M  V30 26 1 19 9
M  V30 27 1 25 20
M  V30 28 1 16 12
M  V30 29 1 1 26
M  V30 30 1 1 27
M  V30 31 1 1 28
M  V30 32 1 3 29
M  V30 33 1 3 30
M  V30 34 1 3 31
M  V30 35 1 4 32
M  V30 36 1 4 33
M  V30 37 1 5 34
M  V30 38 1 5 35
M  V30 39 1 6 36
M  V30 40 1 10 37
M  V30 41 1 16 38
M  V30 42 1 17 39
M  V30 43 1 18 40
M  V30 44 1 21 41
M  V30 45 1 23 42
M  V30 46 1 24 43
M  V30 END BOND
M  V30 END CTAB
M  END
>  <Dataset>  (88) 
ChEMBL_Kinases

>  <Ligand_Instance>  (88) 
nan

>  <PDB_ID>  (88) 
nan

>  <Standardized_SMILES>  (88) 
CN(C)CCNc1nc2cc(-c3nnn[nH]3)ccc2c2cnccc12

>  <Name>  (88) 
nan

>  <Pocket>  (88) 
nan

>  <ATP_Site>  (88) 
nan

>  <Peripheral>  (88) 
nan

>  <Num_H_Atoms_ProtBoundConf>  (88) 
nan

>  <Num_Resolved_Atoms>  (88) 
nan

>  <Num_Not_Resolved_Atoms>  (88) 
nan

$$$$
CHEMBL3700409
     RDKit          3D

  0  0  0  0  0  0  0  0  0  0999 V3000
M  V30 BEGIN CTAB
M  V30 COUNTS 40 43 0 0 0
M  V30 BEGIN ATOM
M  V30 1 C 2.547454 -7.043307 -0.625947 0
M  V30 2 O 1.551823 -6.166977 -0.118592 0
M  V30 3 C 1.599014 -4.796383 -0.327213 0
M  V30 4 O 2.634182 -4.577877 -1.002111 0
M  V30 5 C 0.652671 -3.792176 0.132168 0
M  V30 6 C -0.473932 -4.073264 0.879105 0
M  V30 7 C -1.302744 -3.036426 1.254898 0
M  V30 8 C -1.001695 -1.746151 0.885629 0
M  V30 9 C 0.118191 -1.456656 0.141770 0
M  V30 10 C 0.954771 -2.499094 -0.238140 0
M  V30 11 N 0.441903 -0.191979 -0.240640 0
M  V30 12 C -0.357513 0.828800 0.116093 0
M  V30 13 N 0.098675 2.091738 -0.345807 0
M  V30 14 C 0.926402 2.996342 0.384234 0
M  V30 15 C 1.397402 4.160804 -0.185155 0
M  V30 16 C 2.195126 5.031647 0.537967 0
M  V30 17 C 2.550392 4.763825 1.865097 0
M  V30 18 C 2.031985 3.579810 2.341314 0
M  V30 19 C 1.236227 2.656669 1.703587 0
M  V30 20 C -1.487817 0.570365 0.861945 0
M  V30 21 C -2.250587 1.662061 1.187016 0
M  V30 22 C -3.388349 1.359814 1.945351 0
M  V30 23 N -3.703130 0.107892 2.320735 0
M  V30 24 C -2.945001 -0.954654 1.994197 0
M  V30 25 C -1.815826 -0.708791 1.249343 0
M  V30 26 H 2.704156 -7.856997 0.128711 0
M  V30 27 H 2.205062 -7.572115 -1.543694 0
M  V30 28 H 3.508084 -6.551584 -0.811851 0
M  V30 29 H -0.607231 -5.117050 1.108936 0
M  V30 30 H -2.139607 -3.347905 1.823392 0
M  V30 31 H 1.821334 -2.245550 -0.817357 0
M  V30 32 H -0.240417 2.303373 -1.304768 0
M  V30 33 H 1.137273 4.395654 -1.217023 0
M  V30 34 H 2.568144 5.952140 0.089045 0
M  V30 35 H 3.160111 5.396900 2.467569 0
M  V30 36 H 2.291761 3.340988 3.377666 0
M  V30 37 H 0.907089 1.766478 2.218448 0
M  V30 38 H -1.985420 2.656846 0.879272 0
M  V30 39 H -4.044449 2.164307 2.244177 0
M  V30 40 H -3.292035 -1.899966 2.346461 0
M  V30 END ATOM
M  V30 BEGIN BOND
M  V30 1 1 1 2
M  V30 2 1 2 3
M  V30 3 2 3 4
M  V30 4 1 3 5
M  V30 5 2 5 6
M  V30 6 1 6 7
M  V30 7 2 7 8
M  V30 8 1 8 9
M  V30 9 2 9 10
M  V30 10 1 9 11
M  V30 11 2 11 12
M  V30 12 1 12 13
M  V30 13 1 13 14
M  V30 14 2 14 15
M  V30 15 1 15 16
M  V30 16 2 16 17
M  V30 17 1 17 18
M  V30 18 2 18 19
M  V30 19 1 12 20
M  V30 20 2 20 21
M  V30 21 1 21 22
M  V30 22 2 22 23
M  V30 23 1 23 24
M  V30 24 2 24 25
M  V30 25 1 10 5
M  V30 26 1 19 14
M  V30 27 1 25 20
M  V30 28 1 25 8
M  V30 29 1 1 26
M  V30 30 1 1 27
M  V30 31 1 1 28
M  V30 32 1 6 29
M  V30 33 1 7 30
M  V30 34 1 10 31
M  V30 35 1 13 32
M  V30 36 1 15 33
M  V30 37 1 16 34
M  V30 38 1 17 35
M  V30 39 1 18 36
M  V30 40 1 19 37
M  V30 41 1 21 38
M  V30 42 1 22 39
M  V30 43 1 24 40
M  V30 END BOND
M  V30 END CTAB
M  END
>  <Dataset>  (89) 
ChEMBL_Kinases

>  <Ligand_Instance>  (89) 
nan

>  <PDB_ID>  (89) 
nan

>  <Standardized_SMILES>  (89) 
COC(=O)c1ccc2c(c1)nc(Nc1ccccc1)c1ccncc12

>  <Name>  (89) 
nan

>  <Pocket>  (89) 
nan

>  <ATP_Site>  (89) 
nan

>  <Peripheral>  (89) 
nan

>  <Num_H_Atoms_ProtBoundConf>  (89) 
nan

>  <Num_Resolved_Atoms>  (89) 
nan

>  <Num_Not_Resolved_Atoms>  (89) 
nan

$$$$
CHEMBL3700410
     RDKit          3D

  0  0  0  0  0  0  0  0  0  0999 V3000
M  V30 BEGIN CTAB
M  V30 COUNTS 40 43 0 0 0
M  V30 BEGIN ATOM
M  V30 1 C 4.970546 -4.952205 -0.271326 0
M  V30 2 O 3.697981 -4.399225 -0.553112 0
M  V30 3 C 3.315876 -3.162740 -0.036843 0
M  V30 4 O 4.319150 -2.832214 0.618228 0
M  V30 5 C 2.041567 -2.547683 -0.291770 0
M  V30 6 C 1.064755 -3.164249 -1.052025 0
M  V30 7 C -0.111231 -2.468571 -1.250598 0
M  V30 8 C -0.355213 -1.216240 -0.738995 0
M  V30 9 C 0.662574 -0.653347 0.014463 0
M  V30 10 C 1.869769 -1.276575 0.263293 0
M  V30 11 N 0.431480 0.567023 0.515955 0
M  V30 12 C -0.686948 1.287778 0.355975 0
M  V30 13 N -0.941170 2.593996 0.917139 0
M  V30 14 C -0.656857 2.328837 2.297687 0
M  V30 15 C 0.698461 2.272950 2.650939 0
M  V30 16 C 1.198747 2.005710 3.934134 0
M  V30 17 C 0.269807 1.780041 4.925423 0
M  V30 18 F 0.697466 1.513353 6.182471 0
M  V30 19 C -1.068556 1.828408 4.611040 0
M  V30 20 Cl -2.283880 1.540268 5.837785 0
M  V30 21 C -1.541546 2.090019 3.358459 0
M  V30 22 C -1.690000 0.684283 -0.413218 0
M  V30 23 C -2.854037 1.403972 -0.601628 0
M  V30 24 C -3.826063 0.772332 -1.373954 0
M  V30 25 N -3.636808 -0.429075 -1.884752 0
M  V30 26 C -2.522713 -1.163184 -1.727407 0
M  V30 27 C -1.541647 -0.565332 -0.967638 0
M  V30 28 H 5.768947 -4.418110 -0.857972 0
M  V30 29 H 5.200478 -4.864797 0.804475 0
M  V30 30 H 5.023823 -6.018000 -0.607650 0
M  V30 31 H 1.271849 -4.165091 -1.448355 0
M  V30 32 H -0.805968 -3.031374 -1.850023 0
M  V30 33 H 2.612863 -0.753663 0.867817 0
M  V30 34 H -1.238234 3.462600 0.453553 0
M  V30 35 H 1.453964 2.450403 1.881834 0
M  V30 36 H 2.266147 1.990005 4.088247 0
M  V30 37 H -2.570271 2.144579 3.027264 0
M  V30 38 H -3.074785 2.390627 -0.216062 0
M  V30 39 H -4.778753 1.265114 -1.579802 0
M  V30 40 H -2.448089 -2.139069 -2.177222 0
M  V30 END ATOM
M  V30 BEGIN BOND
M  V30 1 1 1 2
M  V30 2 1 2 3
M  V30 3 2 3 4
M  V30 4 1 3 5
M  V30 5 2 5 6
M  V30 6 1 6 7
M  V30 7 2 7 8
M  V30 8 1 8 9
M  V30 9 2 9 10
M  V30 10 1 9 11
M  V30 11 2 11 12
M  V30 12 1 12 13
M  V30 13 1 13 14
M  V30 14 2 14 15
M  V30 15 1 15 16
M  V30 16 2 16 17
M  V30 17 1 17 18
M  V30 18 1 17 19
M  V30 19 1 19 20
M  V30 20 2 19 21
M  V30 21 1 12 22
M  V30 22 2 22 23
M  V30 23 1 23 24
M  V30 24 2 24 25
M  V30 25 1 25 26
M  V30 26 2 26 27
M  V30 27 1 10 5
M  V30 28 1 21 14
M  V30 29 1 27 22
M  V30 30 1 27 8
M  V30 31 1 1 28
M  V30 32 1 1 29
M  V30 33 1 1 30
M  V30 34 1 6 31
M  V30 35 1 7 32
M  V30 36 1 10 33
M  V30 37 1 13 34
M  V30 38 1 15 35
M  V30 39 1 16 36
M  V30 40 1 21 37
M  V30 41 1 23 38
M  V30 42 1 24 39
M  V30 43 1 26 40
M  V30 END BOND
M  V30 END CTAB
M  END
>  <Dataset>  (90) 
ChEMBL_Kinases

>  <Ligand_Instance>  (90) 
nan

>  <PDB_ID>  (90) 
nan

>  <Standardized_SMILES>  (90) 
COC(=O)c1ccc2c(c1)nc(Nc1ccc(F)c(Cl)c1)c1ccncc12

>  <Name>  (90) 
nan

>  <Pocket>  (90) 
nan

>  <ATP_Site>  (90) 
nan

>  <Peripheral>  (90) 
nan

>  <Num_H_Atoms_ProtBoundConf>  (90) 
nan

>  <Num_Resolved_Atoms>  (90) 
nan

>  <Num_Not_Resolved_Atoms>  (90) 
nan

$$$$
CHEMBL3700412
     RDKit          3D

  0  0  0  0  0  0  0  0  0  0999 V3000
M  V30 BEGIN CTAB
M  V30 COUNTS 27 29 0 0 0
M  V30 BEGIN ATOM
M  V30 1 C -1.644418 -5.082657 2.815225 0
M  V30 2 O -1.312336 -3.865473 2.172093 0
M  V30 3 C -0.083777 -3.260097 2.266214 0
M  V30 4 O 0.829396 -3.790391 2.958241 0
M  V30 5 C 0.201211 -1.995153 1.574438 0
M  V30 6 C 1.480846 -1.454807 1.729685 0
M  V30 7 C 1.735532 -0.249793 1.064133 0
M  V30 8 C 0.781787 0.375533 0.296022 0
M  V30 9 C -0.453334 -0.229018 0.198850 0
M  V30 10 C -0.797738 -1.415177 0.817509 0
M  V30 11 N -1.442669 0.338873 -0.546672 0
M  V30 12 C -1.221099 1.497604 -1.195749 0
M  V30 13 Cl -2.500258 2.222730 -2.153870 0
M  V30 14 C 0.014940 2.102526 -1.098453 0
M  V30 15 N 0.269182 3.269217 -1.739875 0
M  V30 16 C 1.474428 3.857512 -1.644027 0
M  V30 17 N 2.449154 3.297938 -0.909466 0
M  V30 18 C 2.283713 2.136931 -0.237082 0
M  V30 19 C 1.040758 1.559340 -0.354404 0
M  V30 20 H -1.792247 -4.959273 3.906584 0
M  V30 21 H -2.606858 -5.451900 2.406357 0
M  V30 22 H -0.877563 -5.869199 2.671453 0
M  V30 23 H 2.221890 -1.954932 2.335540 0
M  V30 24 H 2.725777 0.112601 1.219663 0
M  V30 25 H -1.750474 -1.892038 0.749225 0
M  V30 26 H 1.701373 4.792816 -2.149242 0
M  V30 27 H 3.118443 1.761923 0.325842 0
M  V30 END ATOM
M  V30 BEGIN BOND
M  V30 1 1 1 2
M  V30 2 1 2 3
M  V30 3 2 3 4
M  V30 4 1 3 5
M  V30 5 2 5 6
M  V30 6 1 6 7
M  V30 7 2 7 8
M  V30 8 1 8 9
M  V30 9 2 9 10
M  V30 10 1 9 11
M  V30 11 2 11 12
M  V30 12 1 12 13
M  V30 13 1 12 14
M  V30 14 2 14 15
M  V30 15 1 15 16
M  V30 16 2 16 17
M  V30 17 1 17 18
M  V30 18 2 18 19
M  V30 19 1 10 5
M  V30 20 1 19 14
M  V30 21 1 19 8
M  V30 22 1 1 20
M  V30 23 1 1 21
M  V30 24 1 1 22
M  V30 25 1 6 23
M  V30 26 1 7 24
M  V30 27 1 10 25
M  V30 28 1 16 26
M  V30 29 1 18 27
M  V30 END BOND
M  V30 END CTAB
M  END
>  <Dataset>  (91) 
ChEMBL_Kinases

>  <Ligand_Instance>  (91) 
nan

>  <PDB_ID>  (91) 
nan

>  <Standardized_SMILES>  (91) 
COC(=O)c1ccc2c(c1)nc(Cl)c1ncncc12

>  <Name>  (91) 
nan

>  <Pocket>  (91) 
nan

>  <ATP_Site>  (91) 
nan

>  <Peripheral>  (91) 
nan

>  <Num_H_Atoms_ProtBoundConf>  (91) 
nan

>  <Num_Resolved_Atoms>  (91) 
nan

>  <Num_Not_Resolved_Atoms>  (91) 
nan

$$$$
CHEMBL3700413
     RDKit          3D

  0  0  0  0  0  0  0  0  0  0999 V3000
M  V30 BEGIN CTAB
M  V30 COUNTS 39 43 0 0 0
M  V30 BEGIN ATOM
M  V30 1 F 4.650618 -4.343307 4.194362 0
M  V30 2 C 3.647766 -3.551782 3.719565 0
M  V30 3 C 2.808306 -2.983455 4.642572 0
M  V30 4 C 1.783838 -2.178109 4.205492 0
M  V30 5 C 1.634596 -1.967242 2.835199 0
M  V30 6 C 2.456057 -2.519420 1.877147 0
M  V30 7 N 2.274973 -2.282477 0.486589 0
M  V30 8 C 1.134961 -1.452601 0.201534 0
M  V30 9 N 1.198273 -0.109027 0.163653 0
M  V30 10 C 0.119033 0.660036 -0.107033 0
M  V30 11 C 0.274823 2.032107 -0.124431 0
M  V30 12 C -0.881464 2.763256 -0.409720 0
M  V30 13 C -0.805978 4.231945 -0.447400 0
M  V30 14 N 0.294088 4.970760 -0.229885 0
M  V30 15 N 0.003373 6.261705 -0.342444 0
M  V30 16 N -1.283131 6.357281 -0.632353 0
M  V30 17 N -1.770256 5.130071 -0.695363 0
M  V30 18 C -2.096655 2.160279 -0.657728 0
M  V30 19 C -2.212913 0.784823 -0.631551 0
M  V30 20 C -1.088845 0.042325 -0.352799 0
M  V30 21 C -1.151618 -1.330517 -0.313745 0
M  V30 22 C -2.334165 -1.986484 -0.552919 0
M  V30 23 N -2.415704 -3.314094 -0.520188 0
M  V30 24 C -1.340676 -4.076841 -0.250607 0
M  V30 25 C -0.097903 -3.514134 0.005564 0
M  V30 26 C -0.065060 -2.133732 -0.040064 0
M  V30 27 C 3.473660 -3.323578 2.369352 0
M  V30 28 H 2.899933 -3.129217 5.714534 0
M  V30 29 H 1.111771 -1.720341 4.905226 0
M  V30 30 H 0.811694 -1.324832 2.553488 0
M  V30 31 H 2.965228 -2.721323 -0.163568 0
M  V30 32 H 1.231326 2.498995 0.071209 0
M  V30 33 H -2.755296 4.813548 -0.903314 0
M  V30 34 H -2.956667 2.784410 -0.872998 0
M  V30 35 H -3.189729 0.388391 -0.834286 0
M  V30 36 H -3.271433 -1.523669 -0.779864 0
M  V30 37 H -1.423899 -5.166538 -0.227816 0
M  V30 38 H 0.795174 -4.077495 0.226634 0
M  V30 39 H 4.158864 -3.790521 1.664069 0
M  V30 END ATOM
M  V30 BEGIN BOND
M  V30 1 1 1 2
M  V30 2 2 2 3
M  V30 3 1 3 4
M  V30 4 2 4 5
M  V30 5 1 5 6
M  V30 6 1 6 7
M  V30 7 1 7 8
M  V30 8 2 8 9
M  V30 9 1 9 10
M  V30 10 2 10 11
M  V30 11 1 11 12
M  V30 12 1 12 13
M  V30 13 2 13 14
M  V30 14 1 14 15
M  V30 15 2 15 16
M  V30 16 1 16 17
M  V30 17 2 12 18
M  V30 18 1 18 19
M  V30 19 2 19 20
M  V30 20 1 20 21
M  V30 21 2 21 22
M  V30 22 1 22 23
M  V30 23 2 23 24
M  V30 24 1 24 25
M  V30 25 2 25 26
M  V30 26 2 6 27
M  V30 27 1 27 2
M  V30 28 1 26 8
M  V30 29 1 20 10
M  V30 30 1 26 21
M  V30 31 1 17 13
M  V30 32 1 3 28
M  V30 33 1 4 29
M  V30 34 1 5 30
M  V30 35 1 7 31
M  V30 36 1 11 32
M  V30 37 1 17 33
M  V30 38 1 18 34
M  V30 39 1 19 35
M  V30 40 1 22 36
M  V30 41 1 24 37
M  V30 42 1 25 38
M  V30 43 1 27 39
M  V30 END BOND
M  V30 END CTAB
M  END
>  <Dataset>  (92) 
ChEMBL_Kinases

>  <Ligand_Instance>  (92) 
nan

>  <PDB_ID>  (92) 
nan

>  <Standardized_SMILES>  (92) 
Fc1cccc(Nc2nc3cc(-c4nnn[nH]4)ccc3c3cnccc23)c1

>  <Name>  (92) 
nan

>  <Pocket>  (92) 
nan

>  <ATP_Site>  (92) 
nan

>  <Peripheral>  (92) 
nan

>  <Num_H_Atoms_ProtBoundConf>  (92) 
nan

>  <Num_Resolved_Atoms>  (92) 
nan

>  <Num_Not_Resolved_Atoms>  (92) 
nan

$$$$
CHEMBL3700404
     RDKit          3D

  0  0  0  0  0  0  0  0  0  0999 V3000
M  V30 BEGIN CTAB
M  V30 COUNTS 43 46 0 0 0
M  V30 BEGIN ATOM
M  V30 1 C 3.858931 -3.127486 5.420470 0
M  V30 2 O 3.240059 -3.330441 4.171109 0
M  V30 3 C 3.050578 -2.314247 3.244397 0
M  V30 4 C 3.435494 -1.001061 3.422450 0
M  V30 5 C 3.212160 -0.045371 2.452329 0
M  V30 6 C 2.594036 -0.353239 1.257544 0
M  V30 7 O 2.318991 0.500960 0.225691 0
M  V30 8 C 2.605902 1.870530 0.161208 0
M  V30 9 C 2.203891 -1.675403 1.072601 0
M  V30 10 N 1.557520 -2.100508 -0.124744 0
M  V30 11 C 0.314766 -1.497227 -0.480657 0
M  V30 12 N -0.197528 -0.565364 0.308566 0
M  V30 13 C -1.335042 0.118570 0.163297 0
M  V30 14 C -1.817229 1.081555 1.023827 0
M  V30 15 C -3.017815 1.684541 0.707670 0
M  V30 16 C -3.522791 2.702425 1.621765 0
M  V30 17 O -2.853350 2.986986 2.648580 0
M  V30 18 O -4.716188 3.375751 1.408781 0
M  V30 19 C -3.736890 1.354022 -0.429272 0
M  V30 20 C -3.264657 0.378355 -1.316645 0
M  V30 21 C -2.065328 -0.194067 -0.959813 0
M  V30 22 C -1.588637 -1.162420 -1.832904 0
M  V30 23 S -2.233829 -1.834372 -3.367289 0
M  V30 24 C -0.858650 -3.003470 -3.660554 0
M  V30 25 C -0.013812 -2.783078 -2.554844 0
M  V30 26 C -0.362230 -1.859257 -1.620734 0
M  V30 27 C 2.429791 -2.641681 2.053669 0
M  V30 28 H 4.731464 -2.458142 5.357209 0
M  V30 29 H 4.207369 -4.145995 5.754630 0
M  V30 30 H 3.182128 -2.748715 6.192212 0
M  V30 31 H 3.924741 -0.747177 4.362982 0
M  V30 32 H 3.511014 0.985149 2.585050 0
M  V30 33 H 1.676267 2.434510 -0.105834 0
M  V30 34 H 3.315617 2.020921 -0.688736 0
M  V30 35 H 3.065486 2.275229 1.068870 0
M  V30 36 H 1.953819 -2.831905 -0.749687 0
M  V30 37 H -1.205814 1.284320 1.883311 0
M  V30 38 H -5.303123 3.700420 2.192129 0
M  V30 39 H -4.672720 1.859202 -0.627537 0
M  V30 40 H -3.823511 0.124442 -2.196199 0
M  V30 41 H -0.805080 -3.633382 -4.472535 0
M  V30 42 H 0.875192 -3.393027 -2.544645 0
M  V30 43 H 2.103974 -3.670236 1.861073 0
M  V30 END ATOM
M  V30 BEGIN BOND
M  V30 1 1 1 2
M  V30 2 1 2 3
M  V30 3 2 3 4
M  V30 4 1 4 5
M  V30 5 2 5 6
M  V30 6 1 6 7
M  V30 7 1 7 8
M  V30 8 1 6 9
M  V30 9 1 9 10
M  V30 10 1 10 11
M  V30 11 2 11 12
M  V30 12 1 12 13
M  V30 13 2 13 14
M  V30 14 1 14 15
M  V30 15 1 15 16
M  V30 16 2 16 17
M  V30 17 1 16 18
M  V30 18 2 15 19
M  V30 19 1 19 20
M  V30 20 2 20 21
M  V30 21 1 21 22
M  V30 22 1 22 23
M  V30 23 1 23 24
M  V30 24 2 24 25
M  V30 25 1 25 26
M  V30 26 2 9 27
M  V30 27 1 27 3
M  V30 28 1 26 11
M  V30 29 1 21 13
M  V30 30 2 26 22
M  V30 31 1 1 28
M  V30 32 1 1 29
M  V30 33 1 1 30
M  V30 34 1 4 31
M  V30 35 1 5 32
M  V30 36 1 8 33
M  V30 37 1 8 34
M  V30 38 1 8 35
M  V30 39 1 10 36
M  V30 40 1 14 37
M  V30 41 1 18 38
M  V30 42 1 19 39
M  V30 43 1 20 40
M  V30 44 1 24 41
M  V30 45 1 25 42
M  V30 46 1 27 43
M  V30 END BOND
M  V30 END CTAB
M  END
>  <Dataset>  (93) 
ChEMBL_Kinases

>  <Ligand_Instance>  (93) 
nan

>  <PDB_ID>  (93) 
nan

>  <Standardized_SMILES>  (93) 
COc1ccc(OC)c(Nc2nc3cc(C(=O)O)ccc3c3sccc23)c1

>  <Name>  (93) 
nan

>  <Pocket>  (93) 
nan

>  <ATP_Site>  (93) 
nan

>  <Peripheral>  (93) 
nan

>  <Num_H_Atoms_ProtBoundConf>  (93) 
nan

>  <Num_Resolved_Atoms>  (93) 
nan

>  <Num_Not_Resolved_Atoms>  (93) 
nan

$$$$
CHEMBL3700947
     RDKit          3D

  0  0  0  0  0  0  0  0  0  0999 V3000
M  V30 BEGIN CTAB
M  V30 COUNTS 71 76 0 0 0
M  V30 BEGIN ATOM
M  V30 1 N 3.010948 2.181821 3.864842 0
M  V30 2 C 3.249469 2.196026 2.712468 0
M  V30 3 C 3.544477 2.193589 1.328979 0
M  V30 4 C 4.845208 2.387501 0.837852 0
M  V30 5 C 5.077827 2.379635 -0.514971 0
M  V30 6 C 4.004472 2.178584 -1.380528 0
M  V30 7 C 2.702009 1.982275 -0.923217 0
M  V30 8 N 1.838582 1.808377 -2.004231 0
M  V30 9 C 1.038702 2.628563 -2.839359 0
M  V30 10 O 0.968271 3.898859 -2.709720 0
M  V30 11 N 0.221520 2.189979 -3.914207 0
M  V30 12 C -0.505960 3.225917 -4.672745 0
M  V30 13 C -0.259861 2.880372 -6.141462 0
M  V30 14 C 0.210770 1.409039 -6.073693 0
M  V30 15 C -0.265912 1.078010 -4.689996 0
M  V30 16 C 0.030178 -0.256724 -4.196440 0
M  V30 17 C 0.771730 -1.244561 -4.807728 0
M  V30 18 C 0.873563 -2.473005 -4.149822 0
M  V30 19 C 0.265311 -2.716013 -2.935338 0
M  V30 20 C -0.485276 -1.731857 -2.308664 0
M  V30 21 C -1.168437 -1.956095 -1.033770 0
M  V30 22 O -1.847780 -1.028958 -0.510309 0
M  V30 23 N -1.064911 -3.202018 -0.403448 0
M  V30 24 C -1.855649 -3.181565 0.859339 0
M  V30 25 N -2.534277 -2.549308 1.529745 0
M  V30 26 C -3.128212 -2.846675 2.674577 0
M  V30 27 C -2.896558 -4.099021 3.126601 0
M  V30 28 S -1.814261 -4.795999 1.854214 0
M  V30 29 C -3.533817 -4.534535 4.419853 0
M  V30 30 N -3.803302 -3.376911 5.150755 0
M  V30 31 C -2.856704 -3.064799 6.140786 0
M  V30 32 C -1.520949 -2.804100 5.581696 0
M  V30 33 C -1.169906 -1.507163 5.235202 0
M  V30 34 C 0.027595 -1.088511 4.707912 0
M  V30 35 C 1.011460 -2.052370 4.489997 0
M  V30 36 C 0.717618 -3.358004 4.816323 0
M  V30 37 C -0.499836 -3.697088 5.337419 0
M  V30 38 C -4.600932 -2.416689 4.545621 0
M  V30 39 C -3.972539 -1.813046 3.332475 0
M  V30 40 C -0.585789 -0.507762 -2.962832 0
M  V30 41 C 2.511752 1.996269 0.438955 0
M  V30 42 H 5.654263 2.543454 1.544216 0
M  V30 43 H 6.091821 2.530681 -0.805762 0
M  V30 44 H 4.351132 2.200549 -2.423628 0
M  V30 45 H 1.843919 0.785161 -2.178547 0
M  V30 46 H -1.572739 3.038479 -4.450468 0
M  V30 47 H -0.193303 4.244905 -4.437662 0
M  V30 48 H -1.189734 2.907727 -6.733179 0
M  V30 49 H 0.483819 3.525709 -6.625386 0
M  V30 50 H -0.300044 0.809777 -6.854982 0
M  V30 51 H 1.305219 1.411291 -6.163381 0
M  V30 52 H -1.406849 1.180928 -4.708965 0
M  V30 53 H 1.219455 -0.982323 -5.756252 0
M  V30 54 H 1.467907 -3.213309 -4.675600 0
M  V30 55 H 0.385061 -3.675760 -2.485900 0
M  V30 56 H -0.548234 -4.018617 -0.716172 0
M  V30 57 H -4.441846 -5.156402 4.189929 0
M  V30 58 H -2.884801 -5.212061 5.009246 0
M  V30 59 H -2.708525 -3.960620 6.834083 0
M  V30 60 H -3.186791 -2.234181 6.821408 0
M  V30 61 H -1.860477 -0.676091 5.367763 0
M  V30 62 H 0.257178 -0.061729 4.453600 0
M  V30 63 H 1.963830 -1.746253 4.076209 0
M  V30 64 H 1.458278 -4.135229 4.660412 0
M  V30 65 H -0.672685 -4.732241 5.581891 0
M  V30 66 H -4.934752 -1.597432 5.249918 0
M  V30 67 H -5.544747 -2.948342 4.169292 0
M  V30 68 H -3.402535 -0.879274 3.566633 0
M  V30 69 H -4.815012 -1.456487 2.678697 0
M  V30 70 H -1.192754 0.229459 -2.417744 0
M  V30 71 H 1.460624 1.836762 0.686800 0
M  V30 END ATOM
M  V30 BEGIN BOND
M  V30 1 3 1 2
M  V30 2 1 2 3
M  V30 3 2 3 4
M  V30 4 1 4 5
M  V30 5 2 5 6
M  V30 6 1 6 7
M  V30 7 1 7 8
M  V30 8 1 8 9
M  V30 9 2 9 10
M  V30 10 1 9 11
M  V30 11 1 11 12
M  V30 12 1 12 13
M  V30 13 1 13 14
M  V30 14 1 14 15
M  V30 15 1 15 16
M  V30 16 2 16 17
M  V30 17 1 17 18
M  V30 18 2 18 19
M  V30 19 1 19 20
M  V30 20 1 20 21
M  V30 21 2 21 22
M  V30 22 1 21 23
M  V30 23 1 23 24
M  V30 24 2 24 25
M  V30 25 1 25 26
M  V30 26 2 26 27
M  V30 27 1 27 28
M  V30 28 1 27 29
M  V30 29 1 29 30
M  V30 30 1 30 31
M  V30 31 1 31 32
M  V30 32 2 32 33
M  V30 33 1 33 34
M  V30 34 2 34 35
M  V30 35 1 35 36
M  V30 36 2 36 37
M  V30 37 1 30 38
M  V30 38 1 38 39
M  V30 39 2 20 40
M  V30 40 2 7 41
M  V30 41 1 41 3
M  V30 42 1 15 11
M  V30 43 1 40 16
M  V30 44 1 28 24
M  V30 45 1 37 32
M  V30 46 1 39 26
M  V30 47 1 4 42
M  V30 48 1 5 43
M  V30 49 1 6 44
M  V30 50 1 8 45
M  V30 51 1 12 46
M  V30 52 1 12 47
M  V30 53 1 13 48
M  V30 54 1 13 49
M  V30 55 1 14 50
M  V30 56 1 14 51
M  V30 57 1 15 52
M  V30 58 1 17 53
M  V30 59 1 18 54
M  V30 60 1 19 55
M  V30 61 1 23 56
M  V30 62 1 29 57
M  V30 63 1 29 58
M  V30 64 1 31 59
M  V30 65 1 31 60
M  V30 66 1 33 61
M  V30 67 1 34 62
M  V30 68 1 35 63
M  V30 69 1 36 64
M  V30 70 1 37 65
M  V30 71 1 38 66
M  V30 72 1 38 67
M  V30 73 1 39 68
M  V30 74 1 39 69
M  V30 75 1 40 70
M  V30 76 1 41 71
M  V30 END BOND
M  V30 END CTAB
M  END
>  <Dataset>  (94) 
ChEMBL_Kinases

>  <Ligand_Instance>  (94) 
nan

>  <PDB_ID>  (94) 
nan

>  <Standardized_SMILES>  (94) 
N#Cc1cccc(NC(=O)N2CCCC2c2cccc(C(=O)Nc3nc4c(s3)CN(Cc3ccccc3)CC4)c2)c1

>  <Name>  (94) 
nan

>  <Pocket>  (94) 
nan

>  <ATP_Site>  (94) 
nan

>  <Peripheral>  (94) 
nan

>  <Num_H_Atoms_ProtBoundConf>  (94) 
nan

>  <Num_Resolved_Atoms>  (94) 
nan

>  <Num_Not_Resolved_Atoms>  (94) 
nan

$$$$
CHEMBL3700946
     RDKit          3D

  0  0  0  0  0  0  0  0  0  0999 V3000
M  V30 BEGIN CTAB
M  V30 COUNTS 67 72 0 0 0
M  V30 BEGIN ATOM
M  V30 1 C 5.428685 -3.079983 6.585946 0
M  V30 2 N 4.846543 -2.918805 5.262501 0
M  V30 3 C 3.492118 -2.473867 5.376005 0
M  V30 4 C 3.576770 -0.962441 5.631339 0
M  V30 5 C 3.779737 -0.375996 4.273086 0
M  V30 6 N 3.253530 0.515551 3.460309 0
M  V30 7 C 3.626944 0.806143 2.376499 0
M  V30 8 N 2.907345 1.862625 1.555994 0
M  V30 9 C 1.907890 1.278049 0.776368 0
M  V30 10 O 1.762990 0.018385 0.869586 0
M  V30 11 C 1.090541 2.117600 -0.092574 0
M  V30 12 C 1.205447 3.464510 -0.212559 0
M  V30 13 C 0.380716 4.145510 -1.063387 0
M  V30 14 C -0.573842 3.485177 -1.808472 0
M  V30 15 C -0.739536 2.122401 -1.731422 0
M  V30 16 C -1.728805 1.307045 -2.482277 0 CFG=1
M  V30 17 C -2.176209 1.933614 -3.758714 0
M  V30 18 C -1.008880 1.761408 -4.673500 0
M  V30 19 C -0.118337 0.699983 -4.013001 0
M  V30 20 N -0.961491 0.150054 -2.970798 0
M  V30 21 C -0.889989 -1.234331 -2.661306 0
M  V30 22 O -0.030161 -1.800984 -3.410270 0
M  V30 23 C -1.628115 -2.004384 -1.669125 0
M  V30 24 C -0.899965 -2.649754 -0.664623 0
M  V30 25 C -1.455686 -3.414493 0.342070 0
M  V30 26 C -2.828581 -3.542755 0.345330 0
M  V30 27 C -3.590708 -2.918931 -0.633147 0
M  V30 28 C -5.043780 -3.079873 -0.594553 0
M  V30 29 C -5.761356 -3.229112 0.598384 0
M  V30 30 C -7.127285 -3.377983 0.595095 0
M  V30 31 C -7.820458 -3.381960 -0.609935 0
M  V30 32 N -7.114440 -3.237510 -1.743650 0
M  V30 33 C -5.775097 -3.090028 -1.765618 0
M  V30 34 C -2.997583 -2.165465 -1.619097 0
M  V30 35 C 0.118886 1.454963 -0.852643 0
M  V30 36 S 5.099857 -0.280274 2.117442 0
M  V30 37 C 4.890534 -1.053081 3.821712 0
M  V30 38 C 5.688591 -2.085336 4.473991 0
M  V30 39 H 4.657247 -3.159309 7.387268 0
M  V30 40 H 6.060094 -2.179577 6.767985 0
M  V30 41 H 6.027465 -4.014877 6.566927 0
M  V30 42 H 2.914423 -2.635532 4.460306 0
M  V30 43 H 3.002758 -2.962659 6.235707 0
M  V30 44 H 4.363894 -0.719444 6.346004 0
M  V30 45 H 2.606664 -0.683827 6.068807 0
M  V30 46 H 3.148125 2.853382 1.594154 0
M  V30 47 H 1.943013 3.970678 0.364010 0
M  V30 48 H 0.469405 5.217771 -1.161335 0
M  V30 49 H -1.227344 4.007508 -2.480017 0
M  V30 50 H -2.583069 1.007589 -1.865256 0
M  V30 51 H -2.527619 2.976584 -3.676629 0
M  V30 52 H -3.054620 1.338663 -4.114446 0
M  V30 53 H -0.443973 2.674170 -4.884734 0
M  V30 54 H -1.394510 1.337637 -5.645370 0
M  V30 55 H 0.784425 1.221343 -3.584039 0
M  V30 56 H 0.218835 -0.039583 -4.743624 0
M  V30 57 H 0.187177 -2.564732 -0.644136 0
M  V30 58 H -0.827293 -3.884377 1.085728 0
M  V30 59 H -3.333343 -4.136244 1.117238 0
M  V30 60 H -5.165998 -3.217949 1.501789 0
M  V30 61 H -7.591814 -3.486270 1.566466 0
M  V30 62 H -8.897973 -3.502404 -0.564850 0
M  V30 63 H -5.258560 -2.978333 -2.695361 0
M  V30 64 H -3.563624 -1.676766 -2.381493 0
M  V30 65 H 0.015172 0.361676 -0.764590 0
M  V30 66 H 6.485504 -1.630975 5.069363 0
M  V30 67 H 6.209482 -2.760030 3.747919 0
M  V30 END ATOM
M  V30 BEGIN BOND
M  V30 1 1 1 2
M  V30 2 1 2 3
M  V30 3 1 3 4
M  V30 4 1 4 5
M  V30 5 1 5 6
M  V30 6 2 6 7
M  V30 7 1 7 8
M  V30 8 1 8 9
M  V30 9 2 9 10
M  V30 10 1 9 11
M  V30 11 2 11 12
M  V30 12 1 12 13
M  V30 13 2 13 14
M  V30 14 1 14 15
M  V30 15 1 15 16
M  V30 16 1 16 17
M  V30 17 1 17 18
M  V30 18 1 18 19
M  V30 19 1 19 20
M  V30 20 1 20 21
M  V30 21 2 21 22
M  V30 22 1 21 23
M  V30 23 2 23 24
M  V30 24 1 24 25
M  V30 25 2 25 26
M  V30 26 1 26 27
M  V30 27 1 27 28
M  V30 28 2 28 29
M  V30 29 1 29 30
M  V30 30 2 30 31
M  V30 31 1 31 32
M  V30 32 2 32 33
M  V30 33 2 27 34
M  V30 34 2 15 35
M  V30 35 1 7 36
M  V30 36 1 36 37
M  V30 37 1 37 38
M  V30 38 1 38 2
M  V30 39 2 37 5
M  V30 40 1 35 11
M  V30 41 1 20 16
M  V30 42 1 34 23
M  V30 43 1 33 28
M  V30 44 1 1 39
M  V30 45 1 1 40
M  V30 46 1 1 41
M  V30 47 1 3 42
M  V30 48 1 3 43
M  V30 49 1 4 44
M  V30 50 1 4 45
M  V30 51 1 8 46
M  V30 52 1 12 47
M  V30 53 1 13 48
M  V30 54 1 14 49
M  V30 55 1 16 50 CFG=1
M  V30 56 1 17 51
M  V30 57 1 17 52
M  V30 58 1 18 53
M  V30 59 1 18 54
M  V30 60 1 19 55
M  V30 61 1 19 56
M  V30 62 1 24 57
M  V30 63 1 25 58
M  V30 64 1 26 59
M  V30 65 1 29 60
M  V30 66 1 30 61
M  V30 67 1 31 62
M  V30 68 1 33 63
M  V30 69 1 34 64
M  V30 70 1 35 65
M  V30 71 1 38 66
M  V30 72 1 38 67
M  V30 END BOND
M  V30 END CTAB
M  END
>  <Dataset>  (95) 
ChEMBL_Kinases

>  <Ligand_Instance>  (95) 
nan

>  <PDB_ID>  (95) 
nan

>  <Standardized_SMILES>  (95) 
CN1CCc2nc(NC(=O)c3cccc([C@H]4CCCN4C(=O)c4cccc(-c5cccnc5)c4)c3)sc2C1

>  <Name>  (95) 
nan

>  <Pocket>  (95) 
nan

>  <ATP_Site>  (95) 
nan

>  <Peripheral>  (95) 
nan

>  <Num_H_Atoms_ProtBoundConf>  (95) 
nan

>  <Num_Resolved_Atoms>  (95) 
nan

>  <Num_Not_Resolved_Atoms>  (95) 
nan

$$$$
CHEMBL3700945
     RDKit          3D

  0  0  0  0  0  0  0  0  0  0999 V3000
M  V30 BEGIN CTAB
M  V30 COUNTS 61 65 0 0 0
M  V30 BEGIN ATOM
M  V30 1 C 4.622481 -4.176869 5.414817 0
M  V30 2 N 4.454774 -2.837755 5.911364 0
M  V30 3 C 5.181046 -1.885588 5.121198 0
M  V30 4 C 4.581678 -1.633638 3.755972 0
M  V30 5 C 3.215948 -1.070603 4.046877 0
M  V30 6 N 2.521638 -0.194848 3.357365 0
M  V30 7 C 1.495507 0.262562 3.532720 0
M  V30 8 N 0.686643 1.261113 2.763929 0
M  V30 9 C -0.216244 0.717203 1.836399 0
M  V30 10 O -0.234728 -0.558699 1.765904 0
M  V30 11 C -1.082638 1.548417 1.004474 0
M  V30 12 C -1.021974 2.923795 0.976618 0
M  V30 13 C -1.844645 3.714177 0.206450 0
M  V30 14 C -2.784666 3.090007 -0.583168 0
M  V30 15 C -2.919393 1.692148 -0.619006 0
M  V30 16 C -3.940775 1.083559 -1.461998 0
M  V30 17 C -5.110587 0.526069 -0.676666 0
M  V30 18 C -5.793734 -0.287626 -1.756472 0
M  V30 19 C -4.670870 -0.950318 -2.540315 0
M  V30 20 N -3.561866 -0.057089 -2.246580 0
M  V30 21 C -2.384009 -0.593375 -2.842876 0
M  V30 22 O -2.977228 -1.615117 -3.332509 0
M  V30 23 N -1.031474 -0.259432 -2.946421 0
M  V30 24 C -0.329530 -1.254586 -3.710785 0
M  V30 25 C -0.073609 -1.325090 -5.060310 0
M  V30 26 C 0.628624 -2.414372 -5.524565 0
M  V30 27 C 1.067697 -3.409480 -4.682249 0
M  V30 28 C 0.813342 -3.347768 -3.313741 0
M  V30 29 C 1.301105 -4.421047 -2.494613 0
M  V30 30 N 1.683925 -5.276539 -1.820009 0
M  V30 31 C 0.115967 -2.263503 -2.858514 0
M  V30 32 C -2.045226 0.989111 0.190923 0
M  V30 33 S 1.082636 -0.654657 5.174259 0
M  V30 34 C 2.589141 -1.506958 5.175084 0
M  V30 35 C 3.107799 -2.504457 6.181531 0
M  V30 36 H 4.203312 -4.315491 4.394778 0
M  V30 37 H 5.691845 -4.429937 5.341561 0
M  V30 38 H 4.127776 -4.885194 6.131352 0
M  V30 39 H 5.275119 -0.910890 5.616849 0
M  V30 40 H 6.207127 -2.275852 4.966868 0
M  V30 41 H 5.241771 -0.919309 3.248921 0
M  V30 42 H 4.498759 -2.537126 3.152863 0
M  V30 43 H 0.781015 2.276895 2.900724 0
M  V30 44 H -0.289217 3.426770 1.592623 0
M  V30 45 H -1.730519 4.796068 0.241096 0
M  V30 46 H -3.463424 3.687476 -1.213118 0
M  V30 47 H -4.323416 1.833995 -2.181879 0
M  V30 48 H -4.709213 -0.177629 0.064637 0
M  V30 49 H -5.771625 1.302757 -0.260870 0
M  V30 50 H -6.470094 -1.068061 -1.322414 0
M  V30 51 H -6.374212 0.430187 -2.379254 0
M  V30 52 H -4.513148 -1.994590 -2.212410 0
M  V30 53 H -4.913248 -0.988456 -3.636212 0
M  V30 54 H -0.899258 0.628123 -2.438336 0
M  V30 55 H -0.473596 -0.483791 -5.593939 0
M  V30 56 H 0.801681 -2.419164 -6.593768 0
M  V30 57 H 1.607714 -4.213028 -5.161815 0
M  V30 58 H -0.026123 -2.319822 -1.771346 0
M  V30 59 H -2.146521 -0.108015 0.165258 0
M  V30 60 H 2.418374 -3.366135 6.276779 0
M  V30 61 H 3.094549 -1.939147 7.161397 0
M  V30 END ATOM
M  V30 BEGIN BOND
M  V30 1 1 1 2
M  V30 2 1 2 3
M  V30 3 1 3 4
M  V30 4 1 4 5
M  V30 5 1 5 6
M  V30 6 2 6 7
M  V30 7 1 7 8
M  V30 8 1 8 9
M  V30 9 2 9 10
M  V30 10 1 9 11
M  V30 11 2 11 12
M  V30 12 1 12 13
M  V30 13 2 13 14
M  V30 14 1 14 15
M  V30 15 1 15 16
M  V30 16 1 16 17
M  V30 17 1 17 18
M  V30 18 1 18 19
M  V30 19 1 19 20
M  V30 20 1 20 21
M  V30 21 2 21 22
M  V30 22 1 21 23
M  V30 23 1 23 24
M  V30 24 2 24 25
M  V30 25 1 25 26
M  V30 26 2 26 27
M  V30 27 1 27 28
M  V30 28 1 28 29
M  V30 29 3 29 30
M  V30 30 2 28 31
M  V30 31 2 15 32
M  V30 32 1 7 33
M  V30 33 1 33 34
M  V30 34 1 34 35
M  V30 35 1 35 2
M  V30 36 2 34 5
M  V30 37 1 32 11
M  V30 38 1 20 16
M  V30 39 1 31 24
M  V30 40 1 1 36
M  V30 41 1 1 37
M  V30 42 1 1 38
M  V30 43 1 3 39
M  V30 44 1 3 40
M  V30 45 1 4 41
M  V30 46 1 4 42
M  V30 47 1 8 43
M  V30 48 1 12 44
M  V30 49 1 13 45
M  V30 50 1 14 46
M  V30 51 1 16 47
M  V30 52 1 17 48
M  V30 53 1 17 49
M  V30 54 1 18 50
M  V30 55 1 18 51
M  V30 56 1 19 52
M  V30 57 1 19 53
M  V30 58 1 23 54
M  V30 59 1 25 55
M  V30 60 1 26 56
M  V30 61 1 27 57
M  V30 62 1 31 58
M  V30 63 1 32 59
M  V30 64 1 35 60
M  V30 65 1 35 61
M  V30 END BOND
M  V30 END CTAB
M  END
>  <Dataset>  (96) 
ChEMBL_Kinases

>  <Ligand_Instance>  (96) 
nan

>  <PDB_ID>  (96) 
nan

>  <Standardized_SMILES>  (96) 
CN1CCc2nc(NC(=O)c3cccc(C4CCCN4C(=O)Nc4cccc(C#N)c4)c3)sc2C1

>  <Name>  (96) 
nan

>  <Pocket>  (96) 
nan

>  <ATP_Site>  (96) 
nan

>  <Peripheral>  (96) 
nan

>  <Num_H_Atoms_ProtBoundConf>  (96) 
nan

>  <Num_Resolved_Atoms>  (96) 
nan

>  <Num_Not_Resolved_Atoms>  (96) 
nan

$$$$
CHEMBL3700944
     RDKit          3D

  0  0  0  0  0  0  0  0  0  0999 V3000
M  V30 BEGIN CTAB
M  V30 COUNTS 63 68 0 0 0
M  V30 BEGIN ATOM
M  V30 1 C 2.306995 0.193093 5.714003 0
M  V30 2 N 3.633443 0.220776 5.211087 0
M  V30 3 C 3.867425 -0.760827 4.220180 0
M  V30 4 C 3.153451 -0.445699 2.941197 0
M  V30 5 C 3.208430 1.064914 2.776820 0
M  V30 6 N 2.730288 1.566243 1.651050 0
M  V30 7 C 2.699631 2.817317 1.439310 0
M  V30 8 N 2.107676 3.073445 0.080629 0
M  V30 9 C 0.730586 2.913248 0.020876 0
M  V30 10 O 0.361480 2.586111 1.225907 0
M  V30 11 C -0.244707 3.027384 -1.053663 0
M  V30 12 C -0.273536 3.753908 -2.234998 0
M  V30 13 C -1.302590 3.556160 -3.128307 0
M  V30 14 C -2.308193 2.660895 -2.891486 0
M  V30 15 C -2.365969 1.897339 -1.751457 0
M  V30 16 C -3.385432 0.870622 -1.350195 0 CFG=1
M  V30 17 C -4.690471 1.088623 -1.981347 0
M  V30 18 C -5.080281 -0.286559 -2.539560 0
M  V30 19 C -3.674801 -0.803315 -2.858167 0
M  V30 20 N -2.933093 -0.482630 -1.623596 0
M  V30 21 C -1.997547 -1.216189 -0.843288 0
M  V30 22 O -1.359544 -0.965868 0.230072 0
M  V30 23 C -1.518067 -2.575746 -1.160450 0
M  V30 24 C -1.085246 -2.705031 -2.504214 0
M  V30 25 S -0.498409 -4.530016 -2.595507 0
M  V30 26 C -0.961765 -4.722731 -0.804364 0
M  V30 27 C -0.783205 -6.022335 -0.020505 0
M  V30 28 C -0.308461 -7.129978 -0.674394 0
M  V30 29 C -0.137085 -8.245941 0.158142 0
M  V30 30 C -0.450448 -8.130884 1.515884 0
M  V30 31 N -0.917612 -6.977305 2.071565 0
M  V30 32 C -1.101153 -5.867694 1.294511 0
M  V30 33 N -1.363926 -3.700042 -0.516237 0
M  V30 34 C -1.308278 2.124038 -0.868073 0
M  V30 35 S 3.376134 3.572218 2.860976 0
M  V30 36 C 3.692645 2.010517 3.736161 0
M  V30 37 C 4.244308 1.474873 5.002174 0
M  V30 38 H 1.489502 0.335937 4.974182 0
M  V30 39 H 2.143368 -0.825016 6.152260 0
M  V30 40 H 2.138311 0.932296 6.525619 0
M  V30 41 H 4.970732 -0.818596 3.967209 0
M  V30 42 H 3.540198 -1.739637 4.648704 0
M  V30 43 H 3.631425 -0.974718 2.101241 0
M  V30 44 H 2.093041 -0.770086 2.966367 0
M  V30 45 H 2.558099 3.361545 -0.828752 0
M  V30 46 H 0.582475 4.423698 -2.271110 0
M  V30 47 H -1.239084 4.158640 -4.013779 0
M  V30 48 H -3.092047 2.524210 -3.618142 0
M  V30 49 H -3.502421 0.988776 -0.227437 0
M  V30 50 H -4.743698 1.766778 -2.843749 0
M  V30 51 H -5.497204 1.349935 -1.257501 0
M  V30 52 H -5.565612 -0.909938 -1.770704 0
M  V30 53 H -5.676702 -0.214886 -3.452187 0
M  V30 54 H -3.767762 -1.882881 -3.034518 0
M  V30 55 H -3.255118 -0.317215 -3.735239 0
M  V30 56 H -0.985959 -2.014889 -3.522138 0
M  V30 57 H -0.106141 -7.077451 -1.737656 0
M  V30 58 H 0.231694 -9.143725 -0.301254 0
M  V30 59 H -0.305326 -9.025209 2.123783 0
M  V30 60 H -1.473981 -4.974232 1.736145 0
M  V30 61 H -1.365505 1.562277 0.039359 0
M  V30 62 H 4.149630 2.150931 5.840948 0
M  V30 63 H 5.329944 1.297953 4.807908 0
M  V30 END ATOM
M  V30 BEGIN BOND
M  V30 1 1 1 2
M  V30 2 1 2 3
M  V30 3 1 3 4
M  V30 4 1 4 5
M  V30 5 1 5 6
M  V30 6 2 6 7
M  V30 7 1 7 8
M  V30 8 1 8 9
M  V30 9 2 9 10
M  V30 10 1 9 11
M  V30 11 2 11 12
M  V30 12 1 12 13
M  V30 13 2 13 14
M  V30 14 1 14 15
M  V30 15 1 15 16
M  V30 16 1 16 17
M  V30 17 1 17 18
M  V30 18 1 18 19
M  V30 19 1 19 20
M  V30 20 1 20 21
M  V30 21 2 21 22
M  V30 22 1 21 23
M  V30 23 2 23 24
M  V30 24 1 24 25
M  V30 25 1 25 26
M  V30 26 1 26 27
M  V30 27 2 27 28
M  V30 28 1 28 29
M  V30 29 2 29 30
M  V30 30 1 30 31
M  V30 31 2 31 32
M  V30 32 2 26 33
M  V30 33 2 15 34
M  V30 34 1 7 35
M  V30 35 1 35 36
M  V30 36 1 36 37
M  V30 37 1 37 2
M  V30 38 2 36 5
M  V30 39 1 34 11
M  V30 40 1 20 16
M  V30 41 1 33 23
M  V30 42 1 32 27
M  V30 43 1 1 38
M  V30 44 1 1 39
M  V30 45 1 1 40
M  V30 46 1 3 41
M  V30 47 1 3 42
M  V30 48 1 4 43
M  V30 49 1 4 44
M  V30 50 1 8 45
M  V30 51 1 12 46
M  V30 52 1 13 47
M  V30 53 1 14 48
M  V30 54 1 16 49 CFG=1
M  V30 55 1 17 50
M  V30 56 1 17 51
M  V30 57 1 18 52
M  V30 58 1 18 53
M  V30 59 1 19 54
M  V30 60 1 19 55
M  V30 61 1 24 56
M  V30 62 1 28 57
M  V30 63 1 29 58
M  V30 64 1 30 59
M  V30 65 1 32 60
M  V30 66 1 34 61
M  V30 67 1 37 62
M  V30 68 1 37 63
M  V30 END BOND
M  V30 END CTAB
M  END
>  <Dataset>  (97) 
ChEMBL_Kinases

>  <Ligand_Instance>  (97) 
nan

>  <PDB_ID>  (97) 
nan

>  <Standardized_SMILES>  (97) 
CN1CCc2nc(NC(=O)c3cccc([C@H]4CCCN4C(=O)c4csc(-c5cccnc5)n4)c3)sc2C1

>  <Name>  (97) 
nan

>  <Pocket>  (97) 
nan

>  <ATP_Site>  (97) 
nan

>  <Peripheral>  (97) 
nan

>  <Num_H_Atoms_ProtBoundConf>  (97) 
nan

>  <Num_Resolved_Atoms>  (97) 
nan

>  <Num_Not_Resolved_Atoms>  (97) 
nan

$$$$
CHEMBL3700943
     RDKit          3D

  0  0  0  0  0  0  0  0  0  0999 V3000
M  V30 BEGIN CTAB
M  V30 COUNTS 62 66 0 0 0
M  V30 BEGIN ATOM
M  V30 1 N -6.606602 -3.567025 3.896779 0
M  V30 2 C -5.486632 -3.267582 3.918169 0
M  V30 3 C -3.987736 -2.868414 3.978500 0
M  V30 4 C -3.309024 -3.984545 4.165687 0
M  V30 5 C -1.889441 -3.881141 4.344622 0
M  V30 6 C -1.370732 -2.587020 4.300095 0
M  V30 7 C -2.287751 -1.549566 4.087729 0
M  V30 8 N -1.638285 -0.205036 4.078036 0
M  V30 9 C -0.336974 0.062455 4.465317 0
M  V30 10 O 0.558735 -0.602861 4.942646 0
M  V30 11 N 0.294801 1.320442 4.366652 0
M  V30 12 C 1.391817 2.151132 4.802701 0
M  V30 13 C 1.042545 3.618545 4.626017 0
M  V30 14 C -0.388136 3.494307 3.995849 0
M  V30 15 C -0.113712 2.216679 3.317043 0 CFG=2
M  V30 16 C -0.942012 1.769875 2.228495 0
M  V30 17 C -2.042707 2.406568 1.664065 0
M  V30 18 C -2.519944 1.810167 0.562579 0
M  V30 19 C -2.131028 0.616049 -0.192342 0
M  V30 20 C -0.989103 0.059603 0.524699 0
M  V30 21 C -0.332871 -1.106085 -0.170942 0
M  V30 22 O -0.164125 -2.220988 0.380526 0
M  V30 23 N 0.008458 -0.670380 -1.443530 0
M  V30 24 C 0.651005 -1.350891 -2.527238 0
M  V30 25 C -0.047590 -2.503652 -2.884670 0
M  V30 26 C 0.341454 -3.373657 -3.963338 0
M  V30 27 C 1.491872 -2.890407 -4.578023 0
M  V30 28 C 2.267466 -1.800490 -4.339198 0
M  V30 29 C 1.735599 -1.123178 -3.294086 0
M  V30 30 C 3.451315 -1.400706 -5.129574 0
M  V30 31 N 3.537125 -2.128913 -6.351360 0
M  V30 32 C 3.211351 -3.479791 -6.270590 0
M  V30 33 C 1.834735 -3.771421 -5.754626 0
M  V30 34 C -0.452048 0.642204 1.683824 0
M  V30 35 C -3.583218 -1.568429 3.920112 0
M  V30 36 H -3.584772 -5.065945 4.202092 0
M  V30 37 H -1.159628 -4.708710 4.501185 0
M  V30 38 H -0.340405 -2.537311 4.414811 0
M  V30 39 H -2.267228 0.578402 3.796325 0
M  V30 40 H 1.648371 2.037640 5.879530 0
M  V30 41 H 2.304606 1.956470 4.156714 0
M  V30 42 H 1.687372 4.023718 3.779463 0
M  V30 43 H 1.052091 4.242956 5.508057 0
M  V30 44 H -0.621335 4.339726 3.352364 0
M  V30 45 H -1.056858 3.320751 4.858643 0
M  V30 46 H 0.948340 2.410021 2.762062 0
M  V30 47 H -2.495031 3.312901 2.025225 0
M  V30 48 H -3.372576 2.173945 -0.064779 0
M  V30 49 H -2.580866 0.231515 -1.070939 0
M  V30 50 H -0.108875 0.227725 -1.978814 0
M  V30 51 H -0.934024 -2.850628 -2.367368 0
M  V30 52 H -0.202415 -4.258890 -4.226017 0
M  V30 53 H 2.257356 -0.181777 -2.925384 0
M  V30 54 H 4.407360 -1.347760 -4.563403 0
M  V30 55 H 3.273683 -0.313526 -5.425113 0
M  V30 56 H 3.979912 -1.688734 -7.120525 0
M  V30 57 H 3.959822 -3.986987 -5.606459 0
M  V30 58 H 3.333832 -3.936847 -7.289408 0
M  V30 59 H 1.113489 -3.465120 -6.587590 0
M  V30 60 H 1.669757 -4.819661 -5.514296 0
M  V30 61 H 0.418331 0.058093 2.067990 0
M  V30 62 H -4.330098 -0.840055 3.768718 0
M  V30 END ATOM
M  V30 BEGIN BOND
M  V30 1 3 1 2
M  V30 2 1 2 3
M  V30 3 2 3 4
M  V30 4 1 4 5
M  V30 5 2 5 6
M  V30 6 1 6 7
M  V30 7 1 7 8
M  V30 8 1 8 9
M  V30 9 2 9 10
M  V30 10 1 9 11
M  V30 11 1 11 12
M  V30 12 1 12 13
M  V30 13 1 13 14
M  V30 14 1 14 15
M  V30 15 1 15 16
M  V30 16 2 16 17
M  V30 17 1 17 18
M  V30 18 2 18 19
M  V30 19 1 19 20
M  V30 20 1 20 21
M  V30 21 2 21 22
M  V30 22 1 21 23
M  V30 23 1 23 24
M  V30 24 2 24 25
M  V30 25 1 25 26
M  V30 26 2 26 27
M  V30 27 1 27 28
M  V30 28 2 28 29
M  V30 29 1 28 30
M  V30 30 1 30 31
M  V30 31 1 31 32
M  V30 32 1 32 33
M  V30 33 2 20 34
M  V30 34 2 7 35
M  V30 35 1 35 3
M  V30 36 1 15 11
M  V30 37 1 34 16
M  V30 38 1 29 24
M  V30 39 1 33 27
M  V30 40 1 4 36
M  V30 41 1 5 37
M  V30 42 1 6 38
M  V30 43 1 8 39
M  V30 44 1 12 40
M  V30 45 1 12 41
M  V30 46 1 13 42
M  V30 47 1 13 43
M  V30 48 1 14 44
M  V30 49 1 14 45
M  V30 50 1 15 46 CFG=3
M  V30 51 1 17 47
M  V30 52 1 18 48
M  V30 53 1 19 49
M  V30 54 1 23 50
M  V30 55 1 25 51
M  V30 56 1 26 52
M  V30 57 1 29 53
M  V30 58 1 30 54
M  V30 59 1 30 55
M  V30 60 1 31 56
M  V30 61 1 32 57
M  V30 62 1 32 58
M  V30 63 1 33 59
M  V30 64 1 33 60
M  V30 65 1 34 61
M  V30 66 1 35 62
M  V30 END BOND
M  V30 END CTAB
M  END
>  <Dataset>  (98) 
ChEMBL_Kinases

>  <Ligand_Instance>  (98) 
nan

>  <PDB_ID>  (98) 
nan

>  <Standardized_SMILES>  (98) 
N#Cc1cccc(NC(=O)N2CCC[C@@H]2c2cccc(C(=O)Nc3ccc4c(c3)CNCC4)c2)c1

>  <Name>  (98) 
nan

>  <Pocket>  (98) 
nan

>  <ATP_Site>  (98) 
nan

>  <Peripheral>  (98) 
nan

>  <Num_H_Atoms_ProtBoundConf>  (98) 
nan

>  <Num_Resolved_Atoms>  (98) 
nan

>  <Num_Not_Resolved_Atoms>  (98) 
nan

$$$$
CHEMBL3700942
     RDKit          3D

  0  0  0  0  0  0  0  0  0  0999 V3000
M  V30 BEGIN CTAB
M  V30 COUNTS 66 71 0 0 0
M  V30 BEGIN ATOM
M  V30 1 C 4.763962 -2.449483 5.950456 0
M  V30 2 C 4.782290 -2.828691 4.532294 0
M  V30 3 N 5.397280 -3.906840 3.967377 0
M  V30 4 N 5.181166 -3.894327 2.678473 0
M  V30 5 N 4.445246 -2.833289 2.425018 0
M  V30 6 N 4.181064 -2.158256 3.529425 0
M  V30 7 C 3.404029 -0.964614 3.555983 0
M  V30 8 C 3.464405 -0.102883 2.467546 0
M  V30 9 C 2.726926 1.072919 2.439506 0
M  V30 10 C 1.910405 1.408755 3.507719 0
M  V30 11 C 1.099961 2.598036 3.594480 0
M  V30 12 O 1.036907 3.629848 4.303998 0
M  V30 13 N -0.004129 3.022367 2.817146 0
M  V30 14 C -0.468229 4.310840 3.316868 0
M  V30 15 C -1.541372 4.780800 2.372820 0
M  V30 16 C -1.956714 3.555926 1.592640 0
M  V30 17 C -0.806185 2.606316 1.715713 0 CFG=2
M  V30 18 C -1.240409 1.201007 1.904106 0
M  V30 19 C -1.655739 0.606670 3.069633 0
M  V30 20 C -2.060782 -0.705901 3.132644 0
M  V30 21 C -2.073103 -1.508484 2.015408 0
M  V30 22 C -1.667555 -0.993692 0.779111 0
M  V30 23 C -1.624250 -1.681830 -0.509364 0
M  V30 24 O -1.220978 -1.218936 -1.604702 0
M  V30 25 N -2.075416 -3.030806 -0.601569 0
M  V30 26 C -1.881418 -3.377667 -2.049867 0
M  V30 27 N -2.787685 -3.145747 -2.849657 0
M  V30 28 C -2.693821 -3.425655 -4.134729 0
M  V30 29 C -1.503232 -4.010248 -4.579796 0
M  V30 30 S -0.566340 -4.109463 -3.001347 0
M  V30 31 C -1.456438 -4.309413 -6.076737 0
M  V30 32 N -1.697702 -3.079011 -6.806227 0
M  V30 33 C -0.676903 -2.078625 -6.490596 0
M  V30 34 C -3.011240 -2.598258 -6.461789 0
M  V30 35 C -3.647001 -3.238085 -5.284108 0
M  V30 36 C -1.269653 0.350312 0.801181 0
M  V30 37 C 1.839444 0.559879 4.600505 0
M  V30 38 C 2.584478 -0.604181 4.601995 0
M  V30 39 H 3.892472 -2.919401 6.492912 0
M  V30 40 H 4.818496 -1.355389 6.134363 0
M  V30 41 H 5.667575 -2.880950 6.456245 0
M  V30 42 H 4.108361 -0.376166 1.635789 0
M  V30 43 H 2.759603 1.757768 1.600470 0
M  V30 44 H 0.318289 5.095096 3.290541 0
M  V30 45 H -0.883232 4.195667 4.353670 0
M  V30 46 H -1.168197 5.585098 1.673444 0
M  V30 47 H -2.428333 5.191722 2.889948 0
M  V30 48 H -2.918775 3.118910 1.943043 0
M  V30 49 H -2.137968 3.834829 0.512961 0
M  V30 50 H -0.227337 2.665613 0.764239 0
M  V30 51 H -1.644224 1.248594 3.958231 0
M  V30 52 H -2.383794 -1.155869 4.060119 0
M  V30 53 H -2.371700 -2.543779 1.961532 0
M  V30 54 H -2.433307 -3.559392 0.196619 0
M  V30 55 H -0.482927 -4.764403 -6.321962 0
M  V30 56 H -2.330732 -4.958301 -6.243406 0
M  V30 57 H -0.928343 -1.186431 -7.100208 0
M  V30 58 H -0.756834 -1.757412 -5.427498 0
M  V30 59 H 0.317417 -2.487914 -6.693257 0
M  V30 60 H -2.988811 -1.485368 -6.378919 0
M  V30 61 H -3.654071 -2.798268 -7.343880 0
M  V30 62 H -4.100550 -4.222793 -5.513830 0
M  V30 63 H -4.508049 -2.573615 -4.984161 0
M  V30 64 H -0.942466 0.791927 -0.153936 0
M  V30 65 H 1.218361 0.769751 5.465538 0
M  V30 66 H 2.514588 -1.253114 5.467075 0
M  V30 END ATOM
M  V30 BEGIN BOND
M  V30 1 1 1 2
M  V30 2 2 2 3
M  V30 3 1 3 4
M  V30 4 2 4 5
M  V30 5 1 5 6
M  V30 6 1 6 7
M  V30 7 2 7 8
M  V30 8 1 8 9
M  V30 9 2 9 10
M  V30 10 1 10 11
M  V30 11 2 11 12
M  V30 12 1 11 13
M  V30 13 1 13 14
M  V30 14 1 14 15
M  V30 15 1 15 16
M  V30 16 1 16 17
M  V30 17 1 17 18
M  V30 18 2 18 19
M  V30 19 1 19 20
M  V30 20 2 20 21
M  V30 21 1 21 22
M  V30 22 1 22 23
M  V30 23 2 23 24
M  V30 24 1 23 25
M  V30 25 1 25 26
M  V30 26 2 26 27
M  V30 27 1 27 28
M  V30 28 2 28 29
M  V30 29 1 29 30
M  V30 30 1 29 31
M  V30 31 1 31 32
M  V30 32 1 32 33
M  V30 33 1 32 34
M  V30 34 1 34 35
M  V30 35 2 22 36
M  V30 36 1 10 37
M  V30 37 2 37 38
M  V30 38 1 6 2
M  V30 39 1 38 7
M  V30 40 1 17 13
M  V30 41 1 36 18
M  V30 42 1 30 26
M  V30 43 1 35 28
M  V30 44 1 1 39
M  V30 45 1 1 40
M  V30 46 1 1 41
M  V30 47 1 8 42
M  V30 48 1 9 43
M  V30 49 1 14 44
M  V30 50 1 14 45
M  V30 51 1 15 46
M  V30 52 1 15 47
M  V30 53 1 16 48
M  V30 54 1 16 49
M  V30 55 1 17 50 CFG=3
M  V30 56 1 19 51
M  V30 57 1 20 52
M  V30 58 1 21 53
M  V30 59 1 25 54
M  V30 60 1 31 55
M  V30 61 1 31 56
M  V30 62 1 33 57
M  V30 63 1 33 58
M  V30 64 1 33 59
M  V30 65 1 34 60
M  V30 66 1 34 61
M  V30 67 1 35 62
M  V30 68 1 35 63
M  V30 69 1 36 64
M  V30 70 1 37 65
M  V30 71 1 38 66
M  V30 END BOND
M  V30 END CTAB
M  END
>  <Dataset>  (99) 
ChEMBL_Kinases

>  <Ligand_Instance>  (99) 
nan

>  <PDB_ID>  (99) 
nan

>  <Standardized_SMILES>  (99) 
Cc1nnnn1-c1ccc(C(=O)N2CCC[C@@H]2c2cccc(C(=O)Nc3nc4c(s3)CN(C)CC4)c2)cc1

>  <Name>  (99) 
nan

>  <Pocket>  (99) 
nan

>  <ATP_Site>  (99) 
nan

>  <Peripheral>  (99) 
nan

>  <Num_H_Atoms_ProtBoundConf>  (99) 
nan

>  <Num_Resolved_Atoms>  (99) 
nan

>  <Num_Not_Resolved_Atoms>  (99) 
nan

$$$$
CHEMBL3700941
     RDKit          3D

  0  0  0  0  0  0  0  0  0  0999 V3000
M  V30 BEGIN CTAB
M  V30 COUNTS 77 83 0 0 0
M  V30 BEGIN ATOM
M  V30 1 C -6.452936 0.224065 -5.163153 0
M  V30 2 N -5.908614 -0.811809 -4.344859 0
M  V30 3 C -6.919858 -1.342354 -3.470727 0
M  V30 4 C -4.684682 -0.518946 -3.679139 0 CFG=1
M  V30 5 C -3.639386 -0.179675 -4.718128 0
M  V30 6 C -3.160359 1.252349 -4.580385 0
M  V30 7 C -2.477417 1.322543 -3.233919 0
M  V30 8 N -1.219480 1.700639 -3.063629 0
M  V30 9 C -0.909384 1.641166 -1.651743 0
M  V30 10 N 0.322533 1.960659 -1.039820 0
M  V30 11 C 0.516470 1.800535 0.332149 0
M  V30 12 O -0.500693 1.358011 0.949728 0
M  V30 13 C 1.792046 2.119541 0.964068 0
M  V30 14 C 2.914216 2.729129 0.448799 0
M  V30 15 C 4.050276 2.903872 1.199561 0
M  V30 16 C 4.140030 2.478395 2.523621 0
M  V30 17 C 3.047886 1.864333 3.084115 0
M  V30 18 C 2.982029 1.299492 4.494469 0 CFG=1
M  V30 19 C 2.123620 2.220335 5.290824 0
M  V30 20 C 0.811059 1.510955 5.529454 0
M  V30 21 C 1.005467 0.114487 5.062688 0
M  V30 22 N 2.201117 0.054655 4.287385 0
M  V30 23 C 2.735266 -0.889609 3.360961 0
M  V30 24 O 3.869472 -0.793745 2.775333 0
M  V30 25 C 1.932061 -2.074502 3.032426 0
M  V30 26 N 0.830991 -2.484176 3.654389 0
M  V30 27 N 0.394945 -3.566443 3.065446 0
M  V30 28 N 1.180828 -3.913082 2.043345 0
M  V30 29 C 0.919313 -5.035963 1.220340 0
M  V30 30 N 1.549460 -5.555847 0.160595 0
M  V30 31 O 0.952536 -6.597273 -0.294862 0
M  V30 32 N -0.115714 -6.857998 0.415172 0
M  V30 33 C -0.156144 -5.886302 1.375884 0
M  V30 34 N -1.212213 -5.891115 2.318037 0
M  V30 35 C 2.155155 -2.990379 2.001918 0
M  V30 36 C 3.226869 -2.955320 1.017774 0
M  V30 37 C 3.564269 -1.901777 0.213153 0
M  V30 38 C 4.623860 -1.935390 -0.665761 0
M  V30 39 C 5.403583 -3.073836 -0.764910 0
M  V30 40 C 5.083743 -4.163777 0.041228 0
M  V30 41 C 4.007484 -4.079504 0.910031 0
M  V30 42 C 1.911984 1.704032 2.296388 0
M  V30 43 S -2.418899 1.070572 -0.800304 0
M  V30 44 C -3.409349 0.918624 -2.226628 0
M  V30 45 C -4.766968 0.539537 -2.603877 0
M  V30 46 H -7.100263 -0.238375 -5.958732 0
M  V30 47 H -5.703315 0.813750 -5.679981 0
M  V30 48 H -7.110155 0.863518 -4.512471 0
M  V30 49 H -7.468406 -2.149230 -3.969245 0
M  V30 50 H -6.426705 -1.662013 -2.522575 0
M  V30 51 H -7.637849 -0.523953 -3.246924 0
M  V30 52 H -4.357326 -1.469553 -3.185832 0
M  V30 53 H -2.734678 -0.804476 -4.601390 0
M  V30 54 H -3.995282 -0.313132 -5.758715 0
M  V30 55 H -2.470512 1.423531 -5.409059 0
M  V30 56 H -3.962888 1.995272 -4.628137 0
M  V30 57 H 1.035416 2.311089 -1.676319 0
M  V30 58 H 2.783335 3.037468 -0.579446 0
M  V30 59 H 4.901084 3.390013 0.742649 0
M  V30 60 H 4.999450 2.595246 3.137465 0
M  V30 61 H 3.967643 1.101000 4.897429 0
M  V30 62 H 1.908910 3.176611 4.803797 0
M  V30 63 H 2.583656 2.459026 6.273833 0
M  V30 64 H 0.518479 1.569446 6.614326 0
M  V30 65 H -0.033110 1.982651 4.980147 0
M  V30 66 H 1.117218 -0.599215 5.904314 0
M  V30 67 H 0.147021 -0.255806 4.431296 0
M  V30 68 H -1.944294 -5.164461 2.099358 0
M  V30 69 H -1.587578 -6.322535 3.166277 0
M  V30 70 H 2.945779 -0.989058 0.268850 0
M  V30 71 H 4.859086 -1.060359 -1.293791 0
M  V30 72 H 6.218402 -3.015466 -1.482255 0
M  V30 73 H 5.761075 -4.988573 -0.123886 0
M  V30 74 H 3.928887 -5.029891 1.452615 0
M  V30 75 H 1.050134 1.213894 2.774038 0
M  V30 76 H -5.420119 1.395475 -2.871475 0
M  V30 77 H -5.207825 0.056015 -1.707921 0
M  V30 END ATOM
M  V30 BEGIN BOND
M  V30 1 1 1 2
M  V30 2 1 2 3
M  V30 3 1 2 4
M  V30 4 1 4 5
M  V30 5 1 5 6
M  V30 6 1 6 7
M  V30 7 1 7 8
M  V30 8 2 8 9
M  V30 9 1 9 10
M  V30 10 1 10 11
M  V30 11 2 11 12
M  V30 12 1 11 13
M  V30 13 2 13 14
M  V30 14 1 14 15
M  V30 15 2 15 16
M  V30 16 1 16 17
M  V30 17 1 17 18
M  V30 18 1 18 19
M  V30 19 1 19 20
M  V30 20 1 20 21
M  V30 21 1 21 22
M  V30 22 1 22 23
M  V30 23 2 23 24
M  V30 24 1 23 25
M  V30 25 1 25 26
M  V30 26 2 26 27
M  V30 27 1 27 28
M  V30 28 1 28 29
M  V30 29 2 29 30
M  V30 30 1 30 31
M  V30 31 1 31 32
M  V30 32 2 32 33
M  V30 33 1 33 34
M  V30 34 1 28 35
M  V30 35 1 35 36
M  V30 36 2 36 37
M  V30 37 1 37 38
M  V30 38 2 38 39
M  V30 39 1 39 40
M  V30 40 2 40 41
M  V30 41 2 17 42
M  V30 42 1 9 43
M  V30 43 1 43 44
M  V30 44 1 44 45
M  V30 45 1 45 4
M  V30 46 2 44 7
M  V30 47 1 42 13
M  V30 48 1 22 18
M  V30 49 2 35 25
M  V30 50 1 41 36
M  V30 51 1 33 29
M  V30 52 1 1 46
M  V30 53 1 1 47
M  V30 54 1 1 48
M  V30 55 1 3 49
M  V30 56 1 3 50
M  V30 57 1 3 51
M  V30 58 1 4 52 CFG=1
M  V30 59 1 5 53
M  V30 60 1 5 54
M  V30 61 1 6 55
M  V30 62 1 6 56
M  V30 63 1 10 57
M  V30 64 1 14 58
M  V30 65 1 15 59
M  V30 66 1 16 60
M  V30 67 1 18 61 CFG=1
M  V30 68 1 19 62
M  V30 69 1 19 63
M  V30 70 1 20 64
M  V30 71 1 20 65
M  V30 72 1 21 66
M  V30 73 1 21 67
M  V30 74 1 34 68
M  V30 75 1 34 69
M  V30 76 1 37 70
M  V30 77 1 38 71
M  V30 78 1 39 72
M  V30 79 1 40 73
M  V30 80 1 41 74
M  V30 81 1 42 75
M  V30 82 1 45 76
M  V30 83 1 45 77
M  V30 END BOND
M  V30 END CTAB
M  END
>  <Dataset>  (100) 
ChEMBL_Kinases

>  <Ligand_Instance>  (100) 
nan

>  <PDB_ID>  (100) 
nan

>  <Standardized_SMILES>  (100) 
CN(C)[C@H]1CCc2nc(NC(=O)c3cccc([C@H]4CCCN4C(=O)c4nnn(-c5nonc5N)c4-c4ccccc4)c3)sc2C1

>  <Name>  (100) 
nan

>  <Pocket>  (100) 
nan

>  <ATP_Site>  (100) 
nan

>  <Peripheral>  (100) 
nan

>  <Num_H_Atoms_ProtBoundConf>  (100) 
nan

>  <Num_Resolved_Atoms>  (100) 
nan

>  <Num_Not_Resolved_Atoms>  (100) 
nan

$$$$
CHEMBL3700940
     RDKit          3D

  0  0  0  0  0  0  0  0  0  0999 V3000
M  V30 BEGIN CTAB
M  V30 COUNTS 72 77 0 0 0
M  V30 BEGIN ATOM
M  V30 1 C 2.402257 -1.478609 1.696464 0
M  V30 2 C 3.024643 -0.547446 0.681762 0
M  V30 3 N 3.611926 0.483985 1.302572 0
M  V30 4 C 4.184776 1.351673 0.464373 0
M  V30 5 C 4.912320 2.594625 0.704154 0
M  V30 6 C 5.412066 3.294699 -0.348316 0
M  V30 7 C 6.082049 4.471719 0.006655 0
M  V30 8 N 6.256605 4.935366 1.256485 0
M  V30 9 C 5.738787 4.202374 2.284420 0
M  V30 10 C 5.056403 3.013166 1.998205 0
M  V30 11 S 3.915141 0.746275 -1.188362 0
M  V30 12 C 2.996594 -0.728453 -0.720568 0
M  V30 13 C 2.362507 -1.821403 -1.318935 0
M  V30 14 O 1.346529 -1.319940 -1.913288 0
M  V30 15 N 2.861228 -3.146598 -1.200846 0
M  V30 16 C 4.088920 -3.536555 -0.476711 0
M  V30 17 C 4.861283 -4.154205 -1.659950 0
M  V30 18 C 3.740106 -4.737562 -2.540447 0
M  V30 19 C 2.556024 -4.531185 -1.605764 0 CFG=2
M  V30 20 C 1.313316 -4.611918 -2.376980 0
M  V30 21 C 1.045760 -5.213484 -3.613966 0
M  V30 22 C -0.250132 -5.137759 -4.119139 0
M  V30 23 C -1.273617 -4.495983 -3.451216 0
M  V30 24 C -1.055404 -3.889020 -2.229909 0
M  V30 25 C -2.132850 -3.193965 -1.538671 0
M  V30 26 O -3.273991 -3.194116 -2.080483 0
M  V30 27 N -1.943520 -2.537513 -0.317579 0
M  V30 28 C -2.929696 -1.818468 0.437548 0
M  V30 29 N -2.973140 -1.217531 1.471795 0
M  V30 30 C -4.017294 -0.611531 1.967170 0
M  V30 31 C -5.203864 -0.653255 1.245575 0
M  V30 32 S -4.695400 -1.600633 -0.142651 0
M  V30 33 C -6.357385 0.122962 1.975895 0
M  V30 34 C -5.834312 1.522745 2.141200 0 CFG=1
M  V30 35 N -6.821029 2.509394 2.475509 0
M  V30 36 C -6.217690 3.810436 2.732026 0
M  V30 37 C -7.714383 2.718228 1.319908 0
M  V30 38 C -4.637777 1.539453 3.027325 0
M  V30 39 C -4.105601 0.149663 3.252131 0
M  V30 40 C 0.232065 -3.978886 -1.751823 0
M  V30 41 H 1.992882 -2.363453 1.159686 0
M  V30 42 H 3.174616 -1.860277 2.411290 0
M  V30 43 H 1.644273 -0.947978 2.298350 0
M  V30 44 H 5.306531 2.979143 -1.356915 0
M  V30 45 H 6.511977 5.088490 -0.795296 0
M  V30 46 H 5.799532 4.451818 3.343807 0
M  V30 47 H 4.640202 2.422984 2.809795 0
M  V30 48 H 3.905213 -4.369979 0.225146 0
M  V30 49 H 4.608179 -2.677554 -0.049150 0
M  V30 50 H 5.522344 -4.974464 -1.333024 0
M  V30 51 H 5.349796 -3.365430 -2.243677 0
M  V30 52 H 3.904236 -5.780363 -2.801250 0
M  V30 53 H 3.559133 -4.058001 -3.403681 0
M  V30 54 H 2.575904 -5.214348 -0.734885 0
M  V30 55 H 1.908808 -5.674353 -4.028003 0
M  V30 56 H -0.386006 -5.621767 -5.074025 0
M  V30 57 H -2.237626 -4.499409 -3.935659 0
M  V30 58 H -1.047416 -2.504856 0.169060 0
M  V30 59 H -6.506011 -0.384636 2.957741 0
M  V30 60 H -7.236585 0.053467 1.328156 0
M  V30 61 H -5.443578 1.802528 1.114361 0
M  V30 62 H -6.120347 3.970974 3.833921 0
M  V30 63 H -6.909828 4.587483 2.363145 0
M  V30 64 H -5.255442 3.888132 2.217225 0
M  V30 65 H -7.280953 3.558166 0.701466 0
M  V30 66 H -8.740906 2.941821 1.652418 0
M  V30 67 H -7.706071 1.852522 0.631167 0
M  V30 68 H -4.879844 1.986616 4.011317 0
M  V30 69 H -3.812191 2.180723 2.617456 0
M  V30 70 H -4.743044 -0.433475 3.946461 0
M  V30 71 H -3.129281 0.247318 3.771544 0
M  V30 72 H 0.349557 -3.510721 -0.782883 0
M  V30 END ATOM
M  V30 BEGIN BOND
M  V30 1 1 1 2
M  V30 2 1 2 3
M  V30 3 2 3 4
M  V30 4 1 4 5
M  V30 5 2 5 6
M  V30 6 1 6 7
M  V30 7 2 7 8
M  V30 8 1 8 9
M  V30 9 2 9 10
M  V30 10 1 4 11
M  V30 11 1 11 12
M  V30 12 1 12 13
M  V30 13 2 13 14
M  V30 14 1 13 15
M  V30 15 1 15 16
M  V30 16 1 16 17
M  V30 17 1 17 18
M  V30 18 1 18 19
M  V30 19 1 19 20
M  V30 20 2 20 21
M  V30 21 1 21 22
M  V30 22 2 22 23
M  V30 23 1 23 24
M  V30 24 1 24 25
M  V30 25 2 25 26
M  V30 26 1 25 27
M  V30 27 1 27 28
M  V30 28 2 28 29
M  V30 29 1 29 30
M  V30 30 2 30 31
M  V30 31 1 31 32
M  V30 32 1 31 33
M  V30 33 1 33 34
M  V30 34 1 34 35
M  V30 35 1 35 36
M  V30 36 1 35 37
M  V30 37 1 34 38
M  V30 38 1 38 39
M  V30 39 2 24 40
M  V30 40 2 12 2
M  V30 41 1 19 15
M  V30 42 1 40 20
M  V30 43 1 10 5
M  V30 44 1 32 28
M  V30 45 1 39 30
M  V30 46 1 1 41
M  V30 47 1 1 42
M  V30 48 1 1 43
M  V30 49 1 6 44
M  V30 50 1 7 45
M  V30 51 1 9 46
M  V30 52 1 10 47
M  V30 53 1 16 48
M  V30 54 1 16 49
M  V30 55 1 17 50
M  V30 56 1 17 51
M  V30 57 1 18 52
M  V30 58 1 18 53
M  V30 59 1 19 54 CFG=1
M  V30 60 1 21 55
M  V30 61 1 22 56
M  V30 62 1 23 57
M  V30 63 1 27 58
M  V30 64 1 33 59
M  V30 65 1 33 60
M  V30 66 1 34 61 CFG=3
M  V30 67 1 36 62
M  V30 68 1 36 63
M  V30 69 1 36 64
M  V30 70 1 37 65
M  V30 71 1 37 66
M  V30 72 1 37 67
M  V30 73 1 38 68
M  V30 74 1 38 69
M  V30 75 1 39 70
M  V30 76 1 39 71
M  V30 77 1 40 72
M  V30 END BOND
M  V30 END CTAB
M  END
>  <Dataset>  (101) 
ChEMBL_Kinases

>  <Ligand_Instance>  (101) 
nan

>  <PDB_ID>  (101) 
nan

>  <Standardized_SMILES>  (101) 
Cc1nc(-c2ccncc2)sc1C(=O)N1CCC[C@@H]1c1cccc(C(=O)Nc2nc3c(s2)C[C@@H](N(C)C)CC3)c1

>  <Name>  (101) 
nan

>  <Pocket>  (101) 
nan

>  <ATP_Site>  (101) 
nan

>  <Peripheral>  (101) 
nan

>  <Num_H_Atoms_ProtBoundConf>  (101) 
nan

>  <Num_Resolved_Atoms>  (101) 
nan

>  <Num_Not_Resolved_Atoms>  (101) 
nan

$$$$
CHEMBL3700939
     RDKit          3D

  0  0  0  0  0  0  0  0  0  0999 V3000
M  V30 BEGIN CTAB
M  V30 COUNTS 62 66 0 0 0
M  V30 BEGIN ATOM
M  V30 1 N 2.568103 -1.279761 6.720754 0
M  V30 2 C 2.838718 -0.891672 5.647025 0
M  V30 3 C 3.179493 -0.426150 4.343966 0
M  V30 4 C 4.003737 -1.063830 3.450906 0
M  V30 5 C 4.287513 -0.547944 2.207065 0
M  V30 6 C 3.739953 0.668275 1.790432 0
M  V30 7 C 2.909548 1.282217 2.726897 0
M  V30 8 N 2.316885 2.543040 2.351353 0
M  V30 9 C 1.071931 2.248513 1.690133 0
M  V30 10 O 0.918429 0.993736 1.660695 0
M  V30 11 N 0.198642 3.244667 1.172091 0
M  V30 12 C 0.246694 4.703155 1.146058 0
M  V30 13 C -0.988328 5.160961 0.459014 0
M  V30 14 C -1.943959 3.990221 0.536130 0
M  V30 15 C -0.994237 2.809932 0.501388 0
M  V30 16 C -1.652555 1.647234 1.144505 0
M  V30 17 C -2.147802 1.839630 2.412601 0
M  V30 18 C -2.756110 0.762057 3.081673 0
M  V30 19 C -2.808135 -0.436720 2.390401 0
M  V30 20 C -2.289954 -0.558726 1.118231 0
M  V30 21 C -2.336683 -1.868669 0.390681 0
M  V30 22 O -1.708864 -1.944453 -0.753906 0
M  V30 23 N -2.942983 -3.186112 0.640618 0
M  V30 24 C -2.399506 -3.711739 -0.600274 0
M  V30 25 C -3.126864 -3.652093 -1.747325 0
M  V30 26 C -2.559284 -4.205894 -2.886173 0
M  V30 27 C -1.285089 -4.777976 -2.748031 0
M  V30 28 C -0.553622 -4.834297 -1.585221 0
M  V30 29 C -1.144694 -4.275495 -0.472569 0
M  V30 30 C 0.789394 -5.479350 -1.664914 0
M  V30 31 N 1.312134 -5.383534 -3.019817 0
M  V30 32 C 0.444723 -6.015672 -3.971734 0
M  V30 33 C -0.861905 -5.313275 -4.070892 0
M  V30 34 C -1.695466 0.469615 0.445304 0
M  V30 35 C 2.616327 0.777870 3.974558 0
M  V30 36 H 4.419989 -1.999056 3.790796 0
M  V30 37 H 4.952124 -1.117677 1.563507 0
M  V30 38 H 3.960357 1.072316 0.813688 0
M  V30 39 H 2.600801 3.562078 2.459287 0
M  V30 40 H 0.427180 5.095882 2.145887 0
M  V30 41 H 1.115429 5.053902 0.517710 0
M  V30 42 H -0.847293 5.408481 -0.602602 0
M  V30 43 H -1.377967 6.034541 1.032128 0
M  V30 44 H -2.542863 4.064744 1.458514 0
M  V30 45 H -2.620505 3.999306 -0.333711 0
M  V30 46 H -0.792093 2.575905 -0.551557 0
M  V30 47 H -2.139861 2.738667 3.004461 0
M  V30 48 H -3.184522 0.780389 4.075239 0
M  V30 49 H -3.270898 -1.277500 2.880445 0
M  V30 50 H -3.300848 -2.767069 1.504522 0
M  V30 51 H -4.093272 -3.180562 -1.692259 0
M  V30 52 H -3.161501 -4.139351 -3.775307 0
M  V30 53 H -0.550452 -4.330013 0.431722 0
M  V30 54 H 0.766803 -6.538834 -1.340462 0
M  V30 55 H 1.501856 -4.965728 -0.997154 0
M  V30 56 H 1.554384 -4.425846 -3.297692 0
M  V30 57 H 0.941344 -5.972405 -4.969965 0
M  V30 58 H 0.338373 -7.100063 -3.761535 0
M  V30 59 H -0.753379 -4.446193 -4.753812 0
M  V30 60 H -1.671734 -5.962784 -4.477309 0
M  V30 61 H -1.285256 0.402525 -0.537237 0
M  V30 62 H 1.966441 1.324344 4.614779 0
M  V30 END ATOM
M  V30 BEGIN BOND
M  V30 1 3 1 2
M  V30 2 1 2 3
M  V30 3 2 3 4
M  V30 4 1 4 5
M  V30 5 2 5 6
M  V30 6 1 6 7
M  V30 7 1 7 8
M  V30 8 1 8 9
M  V30 9 2 9 10
M  V30 10 1 9 11
M  V30 11 1 11 12
M  V30 12 1 12 13
M  V30 13 1 13 14
M  V30 14 1 14 15
M  V30 15 1 15 16
M  V30 16 2 16 17
M  V30 17 1 17 18
M  V30 18 2 18 19
M  V30 19 1 19 20
M  V30 20 1 20 21
M  V30 21 2 21 22
M  V30 22 1 21 23
M  V30 23 1 23 24
M  V30 24 2 24 25
M  V30 25 1 25 26
M  V30 26 2 26 27
M  V30 27 1 27 28
M  V30 28 2 28 29
M  V30 29 1 28 30
M  V30 30 1 30 31
M  V30 31 1 31 32
M  V30 32 1 32 33
M  V30 33 2 20 34
M  V30 34 2 7 35
M  V30 35 1 35 3
M  V30 36 1 15 11
M  V30 37 1 34 16
M  V30 38 1 29 24
M  V30 39 1 33 27
M  V30 40 1 4 36
M  V30 41 1 5 37
M  V30 42 1 6 38
M  V30 43 1 8 39
M  V30 44 1 12 40
M  V30 45 1 12 41
M  V30 46 1 13 42
M  V30 47 1 13 43
M  V30 48 1 14 44
M  V30 49 1 14 45
M  V30 50 1 15 46
M  V30 51 1 17 47
M  V30 52 1 18 48
M  V30 53 1 19 49
M  V30 54 1 23 50
M  V30 55 1 25 51
M  V30 56 1 26 52
M  V30 57 1 29 53
M  V30 58 1 30 54
M  V30 59 1 30 55
M  V30 60 1 31 56
M  V30 61 1 32 57
M  V30 62 1 32 58
M  V30 63 1 33 59
M  V30 64 1 33 60
M  V30 65 1 34 61
M  V30 66 1 35 62
M  V30 END BOND
M  V30 END CTAB
M  END
>  <Dataset>  (102) 
ChEMBL_Kinases

>  <Ligand_Instance>  (102) 
nan

>  <PDB_ID>  (102) 
nan

>  <Standardized_SMILES>  (102) 
N#Cc1cccc(NC(=O)N2CCCC2c2cccc(C(=O)Nc3ccc4c(c3)CNCC4)c2)c1

>  <Name>  (102) 
nan

>  <Pocket>  (102) 
nan

>  <ATP_Site>  (102) 
nan

>  <Peripheral>  (102) 
nan

>  <Num_H_Atoms_ProtBoundConf>  (102) 
nan

>  <Num_Resolved_Atoms>  (102) 
nan

>  <Num_Not_Resolved_Atoms>  (102) 
nan

$$$$
CHEMBL3700938
     RDKit          3D

  0  0  0  0  0  0  0  0  0  0999 V3000
M  V30 BEGIN CTAB
M  V30 COUNTS 64 68 0 0 0
M  V30 BEGIN ATOM
M  V30 1 C 4.406776 2.804130 4.930470 0
M  V30 2 N 5.803279 2.608458 4.680183 0
M  V30 3 C 6.109784 1.255436 4.375362 0
M  V30 4 C 6.369691 0.924769 2.956200 0
M  V30 5 C 5.523039 1.741707 2.045773 0
M  V30 6 N 4.813297 1.411234 0.986951 0
M  V30 7 C 4.181886 2.088447 0.327690 0
M  V30 8 N 3.355317 1.771383 -0.876805 0
M  V30 9 C 2.096177 1.465801 -0.363170 0
M  V30 10 O 2.065344 1.554973 0.917693 0
M  V30 11 C 0.914044 1.084812 -1.127183 0
M  V30 12 C 0.846556 0.940172 -2.497103 0
M  V30 13 C -0.357439 0.577176 -3.098663 0
M  V30 14 C -1.489608 0.359168 -2.343641 0
M  V30 15 C -1.465074 0.491334 -0.990062 0
M  V30 16 C -2.606345 0.305522 -0.078737 0 CFG=1
M  V30 17 C -3.572697 1.484039 -0.179892 0
M  V30 18 C -4.820821 0.847421 0.401555 0
M  V30 19 C -4.860182 -0.483847 -0.294758 0
M  V30 20 N -3.464856 -0.835707 -0.433228 0
M  V30 21 C -3.377095 -2.198644 -0.883604 0
M  V30 22 O -4.629062 -2.428221 -0.925691 0
M  V30 23 N -2.391207 -3.133163 -1.217332 0
M  V30 24 C -3.167693 -4.284105 -1.573107 0
M  V30 25 C -3.628813 -4.474234 -2.878428 0
M  V30 26 C -4.377731 -5.612270 -3.131347 0
M  V30 27 C -4.600498 -6.453063 -2.074360 0
M  V30 28 C -4.160271 -6.290026 -0.786248 0
M  V30 29 C -4.461971 -7.241734 0.257863 0
M  V30 30 N -3.872983 -7.078786 1.533941 0
M  V30 31 O -5.245688 -8.206303 0.013338 0
M  V30 32 C -3.415997 -5.157340 -0.541790 0
M  V30 33 C -0.256348 0.850070 -0.437477 0
M  V30 34 S 4.416017 3.787330 1.139086 0
M  V30 35 C 5.498756 3.080955 2.402779 0
M  V30 36 C 6.316951 3.465159 3.632932 0
M  V30 37 H 3.881866 1.858021 4.663733 0
M  V30 38 H 4.080441 3.623090 4.233836 0
M  V30 39 H 4.167341 3.147710 5.941638 0
M  V30 40 H 7.011771 0.946974 4.974777 0
M  V30 41 H 5.286581 0.626601 4.826840 0
M  V30 42 H 6.220547 -0.168327 2.838027 0
M  V30 43 H 7.441616 1.110655 2.670996 0
M  V30 44 H 3.515003 1.741116 -1.888011 0
M  V30 45 H 1.764580 1.124046 -3.044521 0
M  V30 46 H -0.349701 0.479808 -4.179651 0
M  V30 47 H -2.428298 0.079138 -2.811764 0
M  V30 48 H -2.273869 0.231375 0.966217 0
M  V30 49 H -3.242187 2.363568 0.362272 0
M  V30 50 H -3.776377 1.707197 -1.245751 0
M  V30 51 H -4.655926 0.636109 1.481279 0
M  V30 52 H -5.719108 1.454145 0.223838 0
M  V30 53 H -5.340141 -0.420114 -1.296956 0
M  V30 54 H -5.463310 -1.220963 0.285265 0
M  V30 55 H -1.477714 -2.654262 -1.085405 0
M  V30 56 H -3.377781 -3.720909 -3.629837 0
M  V30 57 H -4.737600 -5.780255 -4.117613 0
M  V30 58 H -5.189193 -7.366882 -2.224814 0
M  V30 59 H -3.938325 -6.751884 2.522496 0
M  V30 60 H -2.914107 -7.492706 1.384121 0
M  V30 61 H -3.040206 -4.979761 0.467274 0
M  V30 62 H -0.217275 0.961034 0.643989 0
M  V30 63 H 6.107313 4.525714 3.861328 0
M  V30 64 H 7.379992 3.332326 3.440924 0
M  V30 END ATOM
M  V30 BEGIN BOND
M  V30 1 1 1 2
M  V30 2 1 2 3
M  V30 3 1 3 4
M  V30 4 1 4 5
M  V30 5 1 5 6
M  V30 6 2 6 7
M  V30 7 1 7 8
M  V30 8 1 8 9
M  V30 9 2 9 10
M  V30 10 1 9 11
M  V30 11 2 11 12
M  V30 12 1 12 13
M  V30 13 2 13 14
M  V30 14 1 14 15
M  V30 15 1 15 16
M  V30 16 1 16 17
M  V30 17 1 17 18
M  V30 18 1 18 19
M  V30 19 1 19 20
M  V30 20 1 20 21
M  V30 21 2 21 22
M  V30 22 1 21 23
M  V30 23 1 23 24
M  V30 24 2 24 25
M  V30 25 1 25 26
M  V30 26 2 26 27
M  V30 27 1 27 28
M  V30 28 1 28 29
M  V30 29 1 29 30
M  V30 30 2 29 31
M  V30 31 2 28 32
M  V30 32 2 15 33
M  V30 33 1 7 34
M  V30 34 1 34 35
M  V30 35 1 35 36
M  V30 36 1 36 2
M  V30 37 2 35 5
M  V30 38 1 33 11
M  V30 39 1 20 16
M  V30 40 1 32 24
M  V30 41 1 1 37
M  V30 42 1 1 38
M  V30 43 1 1 39
M  V30 44 1 3 40
M  V30 45 1 3 41
M  V30 46 1 4 42
M  V30 47 1 4 43
M  V30 48 1 8 44
M  V30 49 1 12 45
M  V30 50 1 13 46
M  V30 51 1 14 47
M  V30 52 1 16 48 CFG=1
M  V30 53 1 17 49
M  V30 54 1 17 50
M  V30 55 1 18 51
M  V30 56 1 18 52
M  V30 57 1 19 53
M  V30 58 1 19 54
M  V30 59 1 23 55
M  V30 60 1 25 56
M  V30 61 1 26 57
M  V30 62 1 27 58
M  V30 63 1 30 59
M  V30 64 1 30 60
M  V30 65 1 32 61
M  V30 66 1 33 62
M  V30 67 1 36 63
M  V30 68 1 36 64
M  V30 END BOND
M  V30 END CTAB
M  END
>  <Dataset>  (103) 
ChEMBL_Kinases

>  <Ligand_Instance>  (103) 
nan

>  <PDB_ID>  (103) 
nan

>  <Standardized_SMILES>  (103) 
CN1CCc2nc(NC(=O)c3cccc([C@H]4CCCN4C(=O)Nc4cccc(C(N)=O)c4)c3)sc2C1

>  <Name>  (103) 
nan

>  <Pocket>  (103) 
nan

>  <ATP_Site>  (103) 
nan

>  <Peripheral>  (103) 
nan

>  <Num_H_Atoms_ProtBoundConf>  (103) 
nan

>  <Num_Resolved_Atoms>  (103) 
nan

>  <Num_Not_Resolved_Atoms>  (103) 
nan

$$$$
CHEMBL3700937
     RDKit          3D

  0  0  0  0  0  0  0  0  0  0999 V3000
M  V30 BEGIN CTAB
M  V30 COUNTS 64 68 0 0 0
M  V30 BEGIN ATOM
M  V30 1 C 4.235924 -1.678056 3.497276 0
M  V30 2 N 5.245383 -0.769155 3.140546 0
M  V30 3 C 5.540142 -0.573988 1.768937 0
M  V30 4 C 5.335222 0.847626 1.297240 0
M  V30 5 C 4.076886 1.399883 1.874681 0
M  V30 6 N 3.055794 2.015967 1.313512 0
M  V30 7 C 2.112631 2.427019 1.768108 0
M  V30 8 N 0.936806 3.133542 1.142469 0
M  V30 9 C -0.012873 2.178415 0.759245 0
M  V30 10 O 0.279284 0.966199 0.998045 0
M  V30 11 C -1.274954 2.534547 0.119223 0
M  V30 12 C -1.614479 3.844938 -0.140746 0
M  V30 13 C -2.819264 4.130085 -0.749370 0
M  V30 14 C -3.666539 3.096522 -1.088655 0
M  V30 15 C -3.395611 1.760534 -0.860831 0
M  V30 16 C -4.312982 0.661065 -1.243613 0 CFG=1
M  V30 17 C -5.115403 1.113706 -2.468754 0
M  V30 18 C -4.939477 -0.011008 -3.476584 0
M  V30 19 C -3.478443 -0.402237 -3.182724 0
M  V30 20 N -3.547549 -0.492413 -1.736829 0
M  V30 21 C -2.929936 -1.579198 -1.085353 0
M  V30 22 O -2.467520 -2.165834 -2.124102 0
M  V30 23 N -2.747906 -2.067039 0.225979 0
M  V30 24 C -2.016255 -3.266755 0.402807 0
M  V30 25 C -2.450296 -4.571904 0.429014 0
M  V30 26 C -1.533621 -5.585129 0.619725 0
M  V30 27 C -0.189222 -5.323920 0.785350 0
M  V30 28 C 0.764639 -6.402924 0.985431 0
M  V30 29 N 0.354175 -7.763463 1.016838 0
M  V30 30 O 1.992252 -6.165780 1.138185 0
M  V30 31 C 0.264760 -4.022677 0.762054 0
M  V30 32 C -0.660235 -2.994197 0.569196 0
M  V30 33 C -2.176836 1.556573 -0.251060 0
M  V30 34 S 2.394668 1.984836 3.598425 0
M  V30 35 C 3.984355 1.227564 3.228332 0
M  V30 36 C 5.220053 0.498792 3.808379 0
M  V30 37 H 4.553490 -2.632513 3.957933 0
M  V30 38 H 3.681579 -1.975412 2.556940 0
M  V30 39 H 3.430282 -1.158511 4.094512 0
M  V30 40 H 5.009862 -1.307195 1.144182 0
M  V30 41 H 6.646971 -0.769325 1.650773 0
M  V30 42 H 5.337021 0.802756 0.189843 0
M  V30 43 H 6.175816 1.508601 1.573134 0
M  V30 44 H 0.799559 4.133534 0.996958 0
M  V30 45 H -0.956637 4.661671 0.121607 0
M  V30 46 H -3.051187 5.170727 -0.937472 0
M  V30 47 H -4.574503 3.418744 -1.546217 0
M  V30 48 H -4.975185 0.355014 -0.413234 0
M  V30 49 H -6.158812 1.345576 -2.237517 0
M  V30 50 H -4.657532 2.020644 -2.948143 0
M  V30 51 H -5.545545 -0.906439 -3.237928 0
M  V30 52 H -5.057671 0.335842 -4.517115 0
M  V30 53 H -2.886578 0.471193 -3.512725 0
M  V30 54 H -3.238987 -1.344443 -3.680375 0
M  V30 55 H -3.244602 -1.362974 0.849656 0
M  V30 56 H -3.514651 -4.662841 0.290116 0
M  V30 57 H -1.935356 -6.586483 0.630606 0
M  V30 58 H 0.661818 -8.364900 1.811218 0
M  V30 59 H -0.188742 -8.501144 0.522538 0
M  V30 60 H 1.326251 -3.848214 0.894799 0
M  V30 61 H -0.184408 -2.011938 0.569574 0
M  V30 62 H -1.861697 0.547524 -0.025569 0
M  V30 63 H 5.082101 0.412907 4.904353 0
M  V30 64 H 6.094235 1.120085 3.590894 0
M  V30 END ATOM
M  V30 BEGIN BOND
M  V30 1 1 1 2
M  V30 2 1 2 3
M  V30 3 1 3 4
M  V30 4 1 4 5
M  V30 5 1 5 6
M  V30 6 2 6 7
M  V30 7 1 7 8
M  V30 8 1 8 9
M  V30 9 2 9 10
M  V30 10 1 9 11
M  V30 11 2 11 12
M  V30 12 1 12 13
M  V30 13 2 13 14
M  V30 14 1 14 15
M  V30 15 1 15 16
M  V30 16 1 16 17
M  V30 17 1 17 18
M  V30 18 1 18 19
M  V30 19 1 19 20
M  V30 20 1 20 21
M  V30 21 2 21 22
M  V30 22 1 21 23
M  V30 23 1 23 24
M  V30 24 2 24 25
M  V30 25 1 25 26
M  V30 26 2 26 27
M  V30 27 1 27 28
M  V30 28 1 28 29
M  V30 29 2 28 30
M  V30 30 1 27 31
M  V30 31 2 31 32
M  V30 32 2 15 33
M  V30 33 1 7 34
M  V30 34 1 34 35
M  V30 35 1 35 36
M  V30 36 1 36 2
M  V30 37 2 35 5
M  V30 38 1 33 11
M  V30 39 1 20 16
M  V30 40 1 32 24
M  V30 41 1 1 37
M  V30 42 1 1 38
M  V30 43 1 1 39
M  V30 44 1 3 40
M  V30 45 1 3 41
M  V30 46 1 4 42
M  V30 47 1 4 43
M  V30 48 1 8 44
M  V30 49 1 12 45
M  V30 50 1 13 46
M  V30 51 1 14 47
M  V30 52 1 16 48 CFG=1
M  V30 53 1 17 49
M  V30 54 1 17 50
M  V30 55 1 18 51
M  V30 56 1 18 52
M  V30 57 1 19 53
M  V30 58 1 19 54
M  V30 59 1 23 55
M  V30 60 1 25 56
M  V30 61 1 26 57
M  V30 62 1 29 58
M  V30 63 1 29 59
M  V30 64 1 31 60
M  V30 65 1 32 61
M  V30 66 1 33 62
M  V30 67 1 36 63
M  V30 68 1 36 64
M  V30 END BOND
M  V30 END CTAB
M  END
>  <Dataset>  (104) 
ChEMBL_Kinases

>  <Ligand_Instance>  (104) 
nan

>  <PDB_ID>  (104) 
nan

>  <Standardized_SMILES>  (104) 
CN1CCc2nc(NC(=O)c3cccc([C@H]4CCCN4C(=O)Nc4ccc(C(N)=O)cc4)c3)sc2C1

>  <Name>  (104) 
nan

>  <Pocket>  (104) 
nan

>  <ATP_Site>  (104) 
nan

>  <Peripheral>  (104) 
nan

>  <Num_H_Atoms_ProtBoundConf>  (104) 
nan

>  <Num_Resolved_Atoms>  (104) 
nan

>  <Num_Not_Resolved_Atoms>  (104) 
nan

$$$$
CHEMBL3700936
     RDKit          3D

  0  0  0  0  0  0  0  0  0  0999 V3000
M  V30 BEGIN CTAB
M  V30 COUNTS 65 70 0 0 0
M  V30 BEGIN ATOM
M  V30 1 C 4.053886 -2.090668 4.268967 0
M  V30 2 N 5.346081 -1.484395 4.020055 0
M  V30 3 C 5.721336 -1.709755 2.666163 0
M  V30 4 C 5.900288 -0.442697 1.864660 0
M  V30 5 C 4.754745 0.505931 2.071347 0
M  V30 6 N 3.998500 1.164494 1.221466 0
M  V30 7 C 3.097080 1.903481 1.512916 0
M  V30 8 N 2.228009 2.661433 0.548879 0
M  V30 9 C 1.128360 1.844149 0.237883 0
M  V30 10 O 1.105199 0.700832 0.805681 0
M  V30 11 C 0.064037 2.245694 -0.671097 0
M  V30 12 C 0.059587 3.478598 -1.291413 0
M  V30 13 C -0.958793 3.843157 -2.148968 0
M  V30 14 C -1.998300 2.973587 -2.402737 0
M  V30 15 C -2.035889 1.732221 -1.806204 0
M  V30 16 C -3.068020 0.665976 -1.950002 0 CFG=1
M  V30 17 C -3.884887 0.813441 -3.210288 0
M  V30 18 C -2.878490 0.350884 -4.251851 0
M  V30 19 C -1.755092 -0.269955 -3.400728 0
M  V30 20 N -2.420691 -0.637695 -2.169260 0
M  V30 21 C -2.264703 -1.922387 -1.636884 0
M  V30 22 O -1.481557 -2.305560 -2.568174 0
M  V30 23 N -2.631942 -2.777443 -0.583479 0
M  V30 24 C -2.067151 -4.134120 -0.464297 0
M  V30 25 C -1.900219 -4.297961 1.043108 0
M  V30 26 C -3.091847 -3.572793 1.570257 0
M  V30 27 C -3.855321 -3.566558 2.736285 0
M  V30 28 C -3.434333 -4.480935 3.771676 0
M  V30 29 N -3.088465 -5.198375 4.607629 0
M  V30 30 C -4.952401 -2.725690 2.878301 0
M  V30 31 C -5.308105 -1.868139 1.846786 0
M  V30 32 C -4.581635 -1.834892 0.665367 0
M  V30 33 C -3.490296 -2.691368 0.561678 0
M  V30 34 C -0.987420 1.396514 -0.943013 0
M  V30 35 S 3.043093 1.883977 3.335052 0
M  V30 36 C 4.463796 0.699463 3.442863 0
M  V30 37 C 5.360734 -0.084424 4.396587 0
M  V30 38 H 3.843274 -2.908742 3.521293 0
M  V30 39 H 3.991849 -2.599892 5.251340 0
M  V30 40 H 3.208993 -1.379808 4.169972 0
M  V30 41 H 6.655350 -2.295424 2.592906 0
M  V30 42 H 4.950599 -2.307183 2.145252 0
M  V30 43 H 6.814221 0.118408 2.171354 0
M  V30 44 H 6.036185 -0.671845 0.787985 0
M  V30 45 H 2.328459 3.589382 0.140132 0
M  V30 46 H 0.849184 4.192384 -1.125367 0
M  V30 47 H -0.981226 4.811572 -2.648147 0
M  V30 48 H -2.833356 3.177004 -3.058092 0
M  V30 49 H -3.761180 0.665147 -1.104858 0
M  V30 50 H -4.703523 0.076092 -3.154890 0
M  V30 51 H -4.294628 1.805123 -3.389159 0
M  V30 52 H -2.482329 1.188537 -4.854010 0
M  V30 53 H -3.351776 -0.414829 -4.886442 0
M  V30 54 H -1.336836 -1.088137 -3.977958 0
M  V30 55 H -0.955726 0.485251 -3.224687 0
M  V30 56 H -2.734358 -4.900307 -0.894353 0
M  V30 57 H -1.088087 -4.209120 -0.946683 0
M  V30 58 H -1.930992 -5.386868 1.238978 0
M  V30 59 H -0.940859 -3.859023 1.366519 0
M  V30 60 H -5.466039 -2.803225 3.812026 0
M  V30 61 H -6.169424 -1.220973 1.982638 0
M  V30 62 H -4.878416 -1.162346 -0.125082 0
M  V30 63 H -0.947985 0.426311 -0.431356 0
M  V30 64 H 6.358620 0.321474 4.255182 0
M  V30 65 H 4.949772 -0.024792 5.415090 0
M  V30 END ATOM
M  V30 BEGIN BOND
M  V30 1 1 1 2
M  V30 2 1 2 3
M  V30 3 1 3 4
M  V30 4 1 4 5
M  V30 5 1 5 6
M  V30 6 2 6 7
M  V30 7 1 7 8
M  V30 8 1 8 9
M  V30 9 2 9 10
M  V30 10 1 9 11
M  V30 11 2 11 12
M  V30 12 1 12 13
M  V30 13 2 13 14
M  V30 14 1 14 15
M  V30 15 1 15 16
M  V30 16 1 16 17
M  V30 17 1 17 18
M  V30 18 1 18 19
M  V30 19 1 19 20
M  V30 20 1 20 21
M  V30 21 2 21 22
M  V30 22 1 21 23
M  V30 23 1 23 24
M  V30 24 1 24 25
M  V30 25 1 25 26
M  V30 26 2 26 27
M  V30 27 1 27 28
M  V30 28 3 28 29
M  V30 29 1 27 30
M  V30 30 2 30 31
M  V30 31 1 31 32
M  V30 32 2 32 33
M  V30 33 2 15 34
M  V30 34 1 7 35
M  V30 35 1 35 36
M  V30 36 1 36 37
M  V30 37 1 37 2
M  V30 38 2 36 5
M  V30 39 1 34 11
M  V30 40 1 20 16
M  V30 41 1 33 23
M  V30 42 1 33 26
M  V30 43 1 1 38
M  V30 44 1 1 39
M  V30 45 1 1 40
M  V30 46 1 3 41
M  V30 47 1 3 42
M  V30 48 1 4 43
M  V30 49 1 4 44
M  V30 50 1 8 45
M  V30 51 1 12 46
M  V30 52 1 13 47
M  V30 53 1 14 48
M  V30 54 1 16 49 CFG=1
M  V30 55 1 17 50
M  V30 56 1 17 51
M  V30 57 1 18 52
M  V30 58 1 18 53
M  V30 59 1 19 54
M  V30 60 1 19 55
M  V30 61 1 24 56
M  V30 62 1 24 57
M  V30 63 1 25 58
M  V30 64 1 25 59
M  V30 65 1 30 60
M  V30 66 1 31 61
M  V30 67 1 32 62
M  V30 68 1 34 63
M  V30 69 1 37 64
M  V30 70 1 37 65
M  V30 END BOND
M  V30 END CTAB
M  END
>  <Dataset>  (105) 
ChEMBL_Kinases

>  <Ligand_Instance>  (105) 
nan

>  <PDB_ID>  (105) 
nan

>  <Standardized_SMILES>  (105) 
CN1CCc2nc(NC(=O)c3cccc([C@H]4CCCN4C(=O)N4CCc5c(C#N)cccc54)c3)sc2C1

>  <Name>  (105) 
nan

>  <Pocket>  (105) 
nan

>  <ATP_Site>  (105) 
nan

>  <Peripheral>  (105) 
nan

>  <Num_H_Atoms_ProtBoundConf>  (105) 
nan

>  <Num_Resolved_Atoms>  (105) 
nan

>  <Num_Not_Resolved_Atoms>  (105) 
nan

$$$$
CHEMBL3700935
     RDKit          3D

  0  0  0  0  0  0  0  0  0  0999 V3000
M  V30 BEGIN CTAB
M  V30 COUNTS 65 70 0 0 0
M  V30 BEGIN ATOM
M  V30 1 C 3.829798 0.065749 3.967010 0
M  V30 2 N 5.223038 -0.311886 3.808016 0
M  V30 3 C 5.398519 -1.370062 2.850739 0
M  V30 4 C 4.735052 -1.148272 1.545600 0
M  V30 5 C 4.550474 0.309425 1.314832 0
M  V30 6 N 3.800308 0.788542 0.323737 0
M  V30 7 C 3.570095 1.875798 0.041320 0
M  V30 8 N 2.679016 2.250223 -1.161163 0
M  V30 9 C 1.402847 2.186119 -0.608632 0
M  V30 10 O 1.433961 1.862536 0.631201 0
M  V30 11 C 0.160415 2.445605 -1.331475 0
M  V30 12 C 0.001990 2.939326 -2.602484 0
M  V30 13 C -1.245477 3.097809 -3.174117 0
M  V30 14 C -2.412511 2.761091 -2.479965 0
M  V30 15 C -2.264898 2.256035 -1.179848 0
M  V30 16 C -3.405563 1.878886 -0.349993 0 CFG=1
M  V30 17 C -4.734814 1.921506 -1.029836 0
M  V30 18 C -5.589268 1.207235 0.035764 0
M  V30 19 C -4.556351 0.649773 1.013278 0
M  V30 20 N -3.387991 0.493691 0.118588 0
M  V30 21 C -2.422750 -0.473396 -0.329793 0
M  V30 22 O -1.440267 -0.465151 -1.152786 0
M  V30 23 C -2.171719 -1.856670 -0.025686 0
M  V30 24 C -1.243162 -2.282915 0.906857 0
M  V30 25 C -0.920292 -3.600410 1.268278 0
M  V30 26 C -1.664115 -4.534081 0.561650 0
M  V30 27 C -1.370337 -5.860145 0.882309 0
M  V30 28 C -2.055473 -6.870716 0.223835 0
M  V30 29 O -1.843205 -8.235332 0.462539 0
M  V30 30 C -3.008727 -6.578392 -0.728902 0
M  V30 31 C -3.302348 -5.258921 -1.048583 0
M  V30 32 C -2.619972 -4.261073 -0.393343 0
M  V30 33 C -2.837279 -2.905934 -0.650833 0
M  V30 34 C -1.007987 2.111539 -0.641623 0
M  V30 35 S 4.465051 2.885315 1.260903 0
M  V30 36 C 5.130607 1.335684 2.113124 0
M  V30 37 C 5.977684 0.827321 3.240378 0
M  V30 38 H 3.147595 -0.680990 3.507416 0
M  V30 39 H 3.635623 0.099334 5.057030 0
M  V30 40 H 3.605979 1.046954 3.490756 0
M  V30 41 H 6.506750 -1.478745 2.660330 0
M  V30 42 H 5.012950 -2.307587 3.350288 0
M  V30 43 H 5.366747 -1.599011 0.725815 0
M  V30 44 H 3.768766 -1.725032 1.451281 0
M  V30 45 H 2.840477 2.495926 -2.132381 0
M  V30 46 H 0.915124 3.186791 -3.105334 0
M  V30 47 H -1.337790 3.486360 -4.171037 0
M  V30 48 H -3.407203 2.866436 -2.885469 0
M  V30 49 H -3.467333 2.536533 0.575011 0
M  V30 50 H -4.739065 1.313642 -1.943953 0
M  V30 51 H -5.128657 2.937640 -1.150052 0
M  V30 52 H -6.186337 0.419148 -0.447342 0
M  V30 53 H -6.279940 1.928667 0.496239 0
M  V30 54 H -4.862515 -0.290300 1.464428 0
M  V30 55 H -4.307374 1.420695 1.770176 0
M  V30 56 H -0.680740 -1.517411 1.441188 0
M  V30 57 H -0.183314 -3.811960 2.003181 0
M  V30 58 H -0.639021 -6.213749 1.613904 0
M  V30 59 H -2.015441 -8.692782 1.329017 0
M  V30 60 H -3.606654 -7.275956 -1.308283 0
M  V30 61 H -4.035247 -4.938394 -1.780088 0
M  V30 62 H -3.584979 -2.708442 -1.397253 0
M  V30 63 H -0.928102 1.719310 0.387735 0
M  V30 64 H 6.946115 0.473420 2.893790 0
M  V30 65 H 6.108173 1.565846 4.027498 0
M  V30 END ATOM
M  V30 BEGIN BOND
M  V30 1 1 1 2
M  V30 2 1 2 3
M  V30 3 1 3 4
M  V30 4 1 4 5
M  V30 5 1 5 6
M  V30 6 2 6 7
M  V30 7 1 7 8
M  V30 8 1 8 9
M  V30 9 2 9 10
M  V30 10 1 9 11
M  V30 11 2 11 12
M  V30 12 1 12 13
M  V30 13 2 13 14
M  V30 14 1 14 15
M  V30 15 1 15 16
M  V30 16 1 16 17
M  V30 17 1 17 18
M  V30 18 1 18 19
M  V30 19 1 19 20
M  V30 20 1 20 21
M  V30 21 2 21 22
M  V30 22 1 21 23
M  V30 23 2 23 24
M  V30 24 1 24 25
M  V30 25 2 25 26
M  V30 26 1 26 27
M  V30 27 2 27 28
M  V30 28 1 28 29
M  V30 29 1 28 30
M  V30 30 2 30 31
M  V30 31 1 31 32
M  V30 32 2 32 33
M  V30 33 2 15 34
M  V30 34 1 7 35
M  V30 35 1 35 36
M  V30 36 1 36 37
M  V30 37 1 37 2
M  V30 38 2 36 5
M  V30 39 1 34 11
M  V30 40 1 20 16
M  V30 41 1 33 23
M  V30 42 1 32 26
M  V30 43 1 1 38
M  V30 44 1 1 39
M  V30 45 1 1 40
M  V30 46 1 3 41
M  V30 47 1 3 42
M  V30 48 1 4 43
M  V30 49 1 4 44
M  V30 50 1 8 45
M  V30 51 1 12 46
M  V30 52 1 13 47
M  V30 53 1 14 48
M  V30 54 1 16 49 CFG=1
M  V30 55 1 17 50
M  V30 56 1 17 51
M  V30 57 1 18 52
M  V30 58 1 18 53
M  V30 59 1 19 54
M  V30 60 1 19 55
M  V30 61 1 24 56
M  V30 62 1 25 57
M  V30 63 1 27 58
M  V30 64 1 29 59
M  V30 65 1 30 60
M  V30 66 1 31 61
M  V30 67 1 33 62
M  V30 68 1 34 63
M  V30 69 1 37 64
M  V30 70 1 37 65
M  V30 END BOND
M  V30 END CTAB
M  END
>  <Dataset>  (106) 
ChEMBL_Kinases

>  <Ligand_Instance>  (106) 
nan

>  <PDB_ID>  (106) 
nan

>  <Standardized_SMILES>  (106) 
CN1CCc2nc(NC(=O)c3cccc([C@H]4CCCN4C(=O)c4ccc5cc(O)ccc5c4)c3)sc2C1

>  <Name>  (106) 
nan

>  <Pocket>  (106) 
nan

>  <ATP_Site>  (106) 
nan

>  <Peripheral>  (106) 
nan

>  <Num_H_Atoms_ProtBoundConf>  (106) 
nan

>  <Num_Resolved_Atoms>  (106) 
nan

>  <Num_Not_Resolved_Atoms>  (106) 
nan

$$$$
CHEMBL3700934
     RDKit          3D

  0  0  0  0  0  0  0  0  0  0999 V3000
M  V30 BEGIN CTAB
M  V30 COUNTS 72 77 0 0 0
M  V30 BEGIN ATOM
M  V30 1 N 1.520167 0.791456 3.732997 0
M  V30 2 C 2.204706 1.330008 2.953215 0
M  V30 3 C 3.032421 2.006273 1.989235 0
M  V30 4 C 4.286180 2.481447 2.312484 0
M  V30 5 C 5.072430 3.127645 1.384882 0
M  V30 6 C 4.580852 3.295019 0.110500 0
M  V30 7 C 3.336439 2.836691 -0.253064 0
M  V30 8 N 2.728668 2.955929 -1.547831 0
M  V30 9 C 3.076497 1.805344 -2.317943 0
M  V30 10 O 3.818273 1.005431 -1.651749 0
M  V30 11 N 2.650875 1.577235 -3.659123 0
M  V30 12 C 1.840463 2.270797 -4.640101 0
M  V30 13 C 2.440020 1.971390 -5.996979 0
M  V30 14 C 3.485433 0.951698 -5.683632 0
M  V30 15 C 3.046398 0.380471 -4.377681 0 CFG=2
M  V30 16 C 1.943561 -0.598323 -4.470140 0
M  V30 17 C 1.570411 -1.303351 -5.592180 0
M  V30 18 C 0.533318 -2.208269 -5.623049 0
M  V30 19 C -0.180920 -2.427991 -4.463001 0
M  V30 20 C 0.146542 -1.750429 -3.306762 0
M  V30 21 C -0.558006 -1.929143 -2.042324 0
M  V30 22 O -0.300345 -1.305112 -0.975330 0
M  V30 23 N -1.630246 -2.852065 -1.898057 0
M  V30 24 C -2.327489 -3.020439 -0.627803 0
M  V30 25 N -2.000401 -3.850978 0.318783 0
M  V30 26 C -2.750967 -3.869439 1.397857 0
M  V30 27 C -3.848585 -3.047296 1.540520 0
M  V30 28 S -3.890416 -2.133382 0.055591 0
M  V30 29 C -4.627098 -3.187014 2.859040 0
M  V30 30 C -3.610579 -2.858781 3.910288 0 CFG=1
M  V30 31 N -4.131673 -2.782787 5.253520 0
M  V30 32 C -5.208260 -1.828914 5.400893 0
M  V30 33 C -4.737894 -0.427907 5.589292 0
M  V30 34 O -3.761374 -0.309216 6.576636 0
M  V30 35 C -2.672644 -1.067260 6.224601 0
M  V30 36 C -3.074995 -2.524747 6.218574 0
M  V30 37 C -2.549566 -3.927115 3.847615 0
M  V30 38 C -2.547867 -4.728536 2.576519 0
M  V30 39 C 1.198513 -0.845143 -3.312552 0
M  V30 40 C 2.544766 2.181102 0.696673 0
M  V30 41 H 4.619073 2.324307 3.314247 0
M  V30 42 H 6.066690 3.510153 1.624225 0
M  V30 43 H 5.128029 3.794790 -0.697599 0
M  V30 44 H 2.121165 3.682867 -1.993613 0
M  V30 45 H 0.770634 1.976971 -4.574720 0
M  V30 46 H 1.947636 3.382919 -4.483728 0
M  V30 47 H 1.619220 1.529896 -6.614646 0
M  V30 48 H 2.853974 2.870162 -6.496479 0
M  V30 49 H 3.661746 0.224401 -6.486820 0
M  V30 50 H 4.434753 1.513237 -5.476971 0
M  V30 51 H 3.930036 -0.126330 -3.922616 0
M  V30 52 H 2.133189 -1.124187 -6.488881 0
M  V30 53 H 0.290647 -2.730292 -6.539061 0
M  V30 54 H -0.989741 -3.124603 -4.461668 0
M  V30 55 H -1.951309 -3.435814 -2.692670 0
M  V30 56 H -4.984373 -4.218463 2.858946 0
M  V30 57 H -5.426409 -2.434563 2.763316 0
M  V30 58 H -3.139316 -1.891668 3.665083 0
M  V30 59 H -5.746920 -2.111647 6.352462 0
M  V30 60 H -5.952696 -1.871999 4.614064 0
M  V30 61 H -5.621154 0.157050 5.974337 0
M  V30 62 H -4.439490 0.079415 4.646139 0
M  V30 63 H -2.200863 -0.755048 5.273414 0
M  V30 64 H -1.910947 -0.939561 7.021295 0
M  V30 65 H -3.415256 -2.807061 7.215299 0
M  V30 66 H -2.217407 -3.166389 5.951882 0
M  V30 67 H -1.571850 -3.451628 4.051736 0
M  V30 68 H -2.743420 -4.636800 4.685145 0
M  V30 69 H -1.643657 -5.337131 2.583562 0
M  V30 70 H -3.398703 -5.467210 2.611406 0
M  V30 71 H 1.456744 -0.311276 -2.401686 0
M  V30 72 H 1.554638 1.793068 0.484813 0
M  V30 END ATOM
M  V30 BEGIN BOND
M  V30 1 3 1 2
M  V30 2 1 2 3
M  V30 3 2 3 4
M  V30 4 1 4 5
M  V30 5 2 5 6
M  V30 6 1 6 7
M  V30 7 1 7 8
M  V30 8 1 8 9
M  V30 9 2 9 10
M  V30 10 1 9 11
M  V30 11 1 11 12
M  V30 12 1 12 13
M  V30 13 1 13 14
M  V30 14 1 14 15
M  V30 15 1 15 16
M  V30 16 2 16 17
M  V30 17 1 17 18
M  V30 18 2 18 19
M  V30 19 1 19 20
M  V30 20 1 20 21
M  V30 21 2 21 22
M  V30 22 1 21 23
M  V30 23 1 23 24
M  V30 24 2 24 25
M  V30 25 1 25 26
M  V30 26 2 26 27
M  V30 27 1 27 28
M  V30 28 1 27 29
M  V30 29 1 29 30
M  V30 30 1 30 31
M  V30 31 1 31 32
M  V30 32 1 32 33
M  V30 33 1 33 34
M  V30 34 1 34 35
M  V30 35 1 35 36
M  V30 36 1 30 37
M  V30 37 1 37 38
M  V30 38 2 20 39
M  V30 39 2 7 40
M  V30 40 1 40 3
M  V30 41 1 15 11
M  V30 42 1 39 16
M  V30 43 1 28 24
M  V30 44 1 36 31
M  V30 45 1 38 26
M  V30 46 1 4 41
M  V30 47 1 5 42
M  V30 48 1 6 43
M  V30 49 1 8 44
M  V30 50 1 12 45
M  V30 51 1 12 46
M  V30 52 1 13 47
M  V30 53 1 13 48
M  V30 54 1 14 49
M  V30 55 1 14 50
M  V30 56 1 15 51 CFG=1
M  V30 57 1 17 52
M  V30 58 1 18 53
M  V30 59 1 19 54
M  V30 60 1 23 55
M  V30 61 1 29 56
M  V30 62 1 29 57
M  V30 63 1 30 58 CFG=3
M  V30 64 1 32 59
M  V30 65 1 32 60
M  V30 66 1 33 61
M  V30 67 1 33 62
M  V30 68 1 35 63
M  V30 69 1 35 64
M  V30 70 1 36 65
M  V30 71 1 36 66
M  V30 72 1 37 67
M  V30 73 1 37 68
M  V30 74 1 38 69
M  V30 75 1 38 70
M  V30 76 1 39 71
M  V30 77 1 40 72
M  V30 END BOND
M  V30 END CTAB
M  END
>  <Dataset>  (107) 
ChEMBL_Kinases

>  <Ligand_Instance>  (107) 
nan

>  <PDB_ID>  (107) 
nan

>  <Standardized_SMILES>  (107) 
N#Cc1cccc(NC(=O)N2CCC[C@@H]2c2cccc(C(=O)Nc3nc4c(s3)C[C@@H](N3CCOCC3)CC4)c2)c1

>  <Name>  (107) 
nan

>  <Pocket>  (107) 
nan

>  <ATP_Site>  (107) 
nan

>  <Peripheral>  (107) 
nan

>  <Num_H_Atoms_ProtBoundConf>  (107) 
nan

>  <Num_Resolved_Atoms>  (107) 
nan

>  <Num_Not_Resolved_Atoms>  (107) 
nan

$$$$
CHEMBL3700933
     RDKit          3D

  0  0  0  0  0  0  0  0  0  0999 V3000
M  V30 BEGIN CTAB
M  V30 COUNTS 61 65 0 0 0
M  V30 BEGIN ATOM
M  V30 1 C 6.377868 -1.171290 6.588645 0
M  V30 2 N 5.448090 -0.987031 5.499683 0
M  V30 3 C 6.082665 -1.246205 4.230084 0
M  V30 4 C 5.116444 -1.383079 3.097862 0
M  V30 5 C 4.212552 -0.188782 3.142492 0
M  V30 6 N 3.453261 0.282463 2.178579 0
M  V30 7 C 2.750002 1.160579 2.119135 0
M  V30 8 N 1.902186 1.662016 0.996006 0
M  V30 9 C 0.633560 1.026221 1.079582 0
M  V30 10 O 0.555463 0.228788 2.049211 0
M  V30 11 C -0.395877 1.344392 0.086734 0
M  V30 12 C -0.278419 2.227999 -0.967634 0
M  V30 13 C -1.371013 2.399597 -1.808042 0
M  V30 14 C -2.541444 1.687116 -1.570983 0
M  V30 15 C -2.680940 0.799583 -0.524304 0
M  V30 16 C -3.942520 0.051646 -0.293166 0 CFG=1
M  V30 17 C -5.002299 0.823339 0.413281 0
M  V30 18 C -6.263711 0.343866 -0.270574 0
M  V30 19 C -5.771255 0.211298 -1.699169 0
M  V30 20 N -4.519019 -0.513131 -1.482625 0
M  V30 21 C -4.004028 -1.558054 -2.298447 0
M  V30 22 O -4.670982 -1.910190 -3.306830 0
M  V30 23 N -2.757022 -2.147800 -1.924379 0
M  V30 24 C -2.136364 -3.200172 -2.656904 0
M  V30 25 C -1.244600 -2.924818 -3.693873 0
M  V30 26 C -0.660804 -3.991468 -4.382673 0
M  V30 27 C -0.954407 -5.306876 -4.051009 0
M  V30 28 C -0.346539 -6.392800 -4.768067 0
M  V30 29 N 0.155348 -7.291407 -5.340118 0
M  V30 30 C -1.843683 -5.536239 -3.016576 0
M  V30 31 C -2.449303 -4.516366 -2.302760 0
M  V30 32 C -1.585303 0.636646 0.306830 0
M  V30 33 S 2.961596 1.825718 3.890386 0
M  V30 34 C 4.104801 0.576291 4.322866 0
M  V30 35 C 4.845584 0.294765 5.601687 0
M  V30 36 H 6.446718 -0.251455 7.174947 0
M  V30 37 H 7.366051 -1.559300 6.256022 0
M  V30 38 H 5.924517 -1.967590 7.247364 0
M  V30 39 H 6.817524 -0.473067 3.987164 0
M  V30 40 H 6.592714 -2.244098 4.347052 0
M  V30 41 H 4.437441 -2.265419 3.221662 0
M  V30 42 H 5.692379 -1.449878 2.164037 0
M  V30 43 H 2.170888 2.343823 0.282170 0
M  V30 44 H 0.678303 2.726452 -1.054956 0
M  V30 45 H -1.239151 3.096571 -2.617399 0
M  V30 46 H -3.339454 1.865409 -2.252116 0
M  V30 47 H -3.697472 -0.817137 0.387398 0
M  V30 48 H -5.123271 0.529547 1.495290 0
M  V30 49 H -4.905583 1.910873 0.398020 0
M  V30 50 H -6.451641 -0.717902 0.061338 0
M  V30 51 H -7.124447 1.005175 -0.154731 0
M  V30 52 H -6.488237 -0.375507 -2.291464 0
M  V30 53 H -5.635800 1.164799 -2.206261 0
M  V30 54 H -2.205412 -1.865066 -1.100675 0
M  V30 55 H -1.015908 -1.892650 -3.952270 0
M  V30 56 H 0.044269 -3.805854 -5.202678 0
M  V30 57 H -2.031430 -6.587665 -2.806035 0
M  V30 58 H -3.140253 -4.746436 -1.498999 0
M  V30 59 H -1.731721 -0.065566 1.114332 0
M  V30 60 H 4.182752 0.335799 6.476376 0
M  V30 61 H 5.568522 1.128911 5.714913 0
M  V30 END ATOM
M  V30 BEGIN BOND
M  V30 1 1 1 2
M  V30 2 1 2 3
M  V30 3 1 3 4
M  V30 4 1 4 5
M  V30 5 1 5 6
M  V30 6 2 6 7
M  V30 7 1 7 8
M  V30 8 1 8 9
M  V30 9 2 9 10
M  V30 10 1 9 11
M  V30 11 2 11 12
M  V30 12 1 12 13
M  V30 13 2 13 14
M  V30 14 1 14 15
M  V30 15 1 15 16
M  V30 16 1 16 17
M  V30 17 1 17 18
M  V30 18 1 18 19
M  V30 19 1 19 20
M  V30 20 1 20 21
M  V30 21 2 21 22
M  V30 22 1 21 23
M  V30 23 1 23 24
M  V30 24 2 24 25
M  V30 25 1 25 26
M  V30 26 2 26 27
M  V30 27 1 27 28
M  V30 28 3 28 29
M  V30 29 1 27 30
M  V30 30 2 30 31
M  V30 31 2 15 32
M  V30 32 1 7 33
M  V30 33 1 33 34
M  V30 34 1 34 35
M  V30 35 1 35 2
M  V30 36 2 34 5
M  V30 37 1 32 11
M  V30 38 1 20 16
M  V30 39 1 31 24
M  V30 40 1 1 36
M  V30 41 1 1 37
M  V30 42 1 1 38
M  V30 43 1 3 39
M  V30 44 1 3 40
M  V30 45 1 4 41
M  V30 46 1 4 42
M  V30 47 1 8 43
M  V30 48 1 12 44
M  V30 49 1 13 45
M  V30 50 1 14 46
M  V30 51 1 16 47 CFG=1
M  V30 52 1 17 48
M  V30 53 1 17 49
M  V30 54 1 18 50
M  V30 55 1 18 51
M  V30 56 1 19 52
M  V30 57 1 19 53
M  V30 58 1 23 54
M  V30 59 1 25 55
M  V30 60 1 26 56
M  V30 61 1 30 57
M  V30 62 1 31 58
M  V30 63 1 32 59
M  V30 64 1 35 60
M  V30 65 1 35 61
M  V30 END BOND
M  V30 END CTAB
M  END
>  <Dataset>  (108) 
ChEMBL_Kinases

>  <Ligand_Instance>  (108) 
nan

>  <PDB_ID>  (108) 
nan

>  <Standardized_SMILES>  (108) 
CN1CCc2nc(NC(=O)c3cccc([C@H]4CCCN4C(=O)Nc4ccc(C#N)cc4)c3)sc2C1

>  <Name>  (108) 
nan

>  <Pocket>  (108) 
nan

>  <ATP_Site>  (108) 
nan

>  <Peripheral>  (108) 
nan

>  <Num_H_Atoms_ProtBoundConf>  (108) 
nan

>  <Num_Resolved_Atoms>  (108) 
nan

>  <Num_Not_Resolved_Atoms>  (108) 
nan

$$$$
CHEMBL3700513
     RDKit          3D

  0  0  0  0  0  0  0  0  0  0999 V3000
M  V30 BEGIN CTAB
M  V30 COUNTS 35 38 0 0 0
M  V30 BEGIN ATOM
M  V30 1 O 0.659058 -6.233316 2.282351 0
M  V30 2 C 0.014021 -5.182222 2.034642 0
M  V30 3 O -1.364868 -5.179152 2.190897 0
M  V30 4 C 0.710805 -3.984706 1.589216 0
M  V30 5 C 2.081862 -4.007722 1.439955 0
M  V30 6 C 2.821567 -2.908101 1.019548 0
M  V30 7 C 2.072611 -1.768225 0.756540 0
M  V30 8 C 0.704438 -1.728111 0.900245 0
M  V30 9 C 0.008759 -2.831662 1.316837 0
M  V30 10 N 0.204626 -0.554898 0.598638 0
M  V30 11 C 0.806035 0.558339 0.189829 0
M  V30 12 N 0.008680 1.700477 -0.068303 0
M  V30 13 C -1.380458 1.917525 0.024094 0
M  V30 14 C -1.948470 3.142165 -0.286066 0
M  V30 15 C -3.293620 3.395902 -0.209899 0
M  V30 16 C -4.145759 2.399791 0.192734 0
M  V30 17 C -3.665496 1.150662 0.520437 0
M  V30 18 F -4.527806 0.186969 0.914290 0
M  V30 19 C -2.304934 0.979198 0.417302 0
M  V30 20 C 2.170111 0.555502 0.035193 0
M  V30 21 C 2.925501 1.594788 -0.368565 0
M  V30 22 C 4.338122 1.325302 -0.447231 0
M  V30 23 S 4.483519 -0.476641 0.086947 0
M  V30 24 C 2.783310 -0.647335 0.332930 0
M  V30 25 H -1.882282 -5.972323 2.577602 0
M  V30 26 H 2.624867 -4.926191 1.658766 0
M  V30 27 H 3.899020 -2.931911 0.903999 0
M  V30 28 H -1.043474 -2.758663 1.414475 0
M  V30 29 H 0.538745 2.554442 -0.390064 0
M  V30 30 H -1.311380 3.966284 -0.611398 0
M  V30 31 H -3.662616 4.377836 -0.468488 0
M  V30 32 H -5.192736 2.652788 0.235008 0
M  V30 33 H -2.009162 -0.017232 0.688707 0
M  V30 34 H 2.628971 2.593917 -0.640148 0
M  V30 35 H 5.142595 2.185071 -0.801730 0
M  V30 END ATOM
M  V30 BEGIN BOND
M  V30 1 2 1 2
M  V30 2 1 2 3
M  V30 3 1 2 4
M  V30 4 2 4 5
M  V30 5 1 5 6
M  V30 6 2 6 7
M  V30 7 1 7 8
M  V30 8 2 8 9
M  V30 9 1 8 10
M  V30 10 2 10 11
M  V30 11 1 11 12
M  V30 12 1 12 13
M  V30 13 2 13 14
M  V30 14 1 14 15
M  V30 15 2 15 16
M  V30 16 1 16 17
M  V30 17 1 17 18
M  V30 18 2 17 19
M  V30 19 1 11 20
M  V30 20 1 20 21
M  V30 21 2 21 22
M  V30 22 1 22 23
M  V30 23 1 23 24
M  V30 24 1 9 4
M  V30 25 1 19 13
M  V30 26 2 24 20
M  V30 27 1 24 7
M  V30 28 1 3 25
M  V30 29 1 5 26
M  V30 30 1 6 27
M  V30 31 1 9 28
M  V30 32 1 12 29
M  V30 33 1 14 30
M  V30 34 1 15 31
M  V30 35 1 16 32
M  V30 36 1 19 33
M  V30 37 1 21 34
M  V30 38 1 22 35
M  V30 END BOND
M  V30 END CTAB
M  END
>  <Dataset>  (109) 
ChEMBL_Kinases

>  <Ligand_Instance>  (109) 
nan

>  <PDB_ID>  (109) 
nan

>  <Standardized_SMILES>  (109) 
O=C(O)c1ccc2c(c1)nc(Nc1cccc(F)c1)c1ccsc12

>  <Name>  (109) 
nan

>  <Pocket>  (109) 
nan

>  <ATP_Site>  (109) 
nan

>  <Peripheral>  (109) 
nan

>  <Num_H_Atoms_ProtBoundConf>  (109) 
nan

>  <Num_Resolved_Atoms>  (109) 
nan

>  <Num_Not_Resolved_Atoms>  (109) 
nan

$$$$
CHEMBL3700916
     RDKit          3D

  0  0  0  0  0  0  0  0  0  0999 V3000
M  V30 BEGIN CTAB
M  V30 COUNTS 56 59 0 0 0
M  V30 BEGIN ATOM
M  V30 1 C 1.321600 -5.789060 2.473105 0
M  V30 2 C 0.890776 -4.785186 1.407710 0 CFG=1
M  V30 3 O 1.391004 -3.584272 1.489260 0
M  V30 4 C 1.875077 -2.401733 1.570347 0
M  V30 5 C 3.259017 -2.233177 1.462735 0
M  V30 6 C 3.843372 -0.963478 1.543797 0
M  V30 7 C 2.983120 0.099766 1.734015 0
M  V30 8 C 1.614079 -0.020046 1.845504 0
M  V30 9 C 0.795283 1.173629 2.044327 0
M  V30 10 O 1.384674 2.281823 2.098208 0
M  V30 11 N -0.599007 1.144948 2.176718 0
M  V30 12 C -1.356616 2.356572 2.371212 0
M  V30 13 N -1.795657 2.969958 1.046759 0
M  V30 14 C -2.464211 4.047600 1.367802 0
M  V30 15 C -2.749159 4.580237 2.699528 0
M  V30 16 S -2.004837 3.465309 3.720528 0
M  V30 17 C -3.541654 5.832801 2.713179 0
M  V30 18 N -4.817090 5.511480 2.049385 0
M  V30 19 C -5.392296 4.421833 2.829281 0
M  V30 20 C -4.578924 5.092816 0.681186 0
M  V30 21 C -3.098803 4.992383 0.378542 0
M  V30 22 C 1.083307 -1.290624 1.759487 0
M  V30 23 C 1.018407 -5.456560 0.046635 0
M  V30 24 O 0.589282 -6.611946 -0.210543 0
M  V30 25 N 1.674753 -4.669639 -0.948298 0
M  V30 26 C 1.960440 -4.986288 -2.314825 0
M  V30 27 C 3.082372 -5.596380 -2.848001 0
M  V30 28 C 3.143107 -5.801741 -4.200830 0
M  V30 29 C 2.138085 -5.430394 -5.068547 0
M  V30 30 C 2.260583 -5.672361 -6.480333 0
M  V30 31 N 2.367650 -5.872943 -7.623066 0
M  V30 32 C 1.023543 -4.822527 -4.524886 0
M  V30 33 C 0.926399 -4.597839 -3.158342 0
M  V30 34 H 1.908918 -5.301008 3.266811 0
M  V30 35 H 0.478158 -6.358981 2.899104 0
M  V30 36 H 1.967114 -6.550724 1.963585 0
M  V30 37 H -0.244063 -4.754382 1.530689 0
M  V30 38 H 3.924097 -3.094774 1.311548 0
M  V30 39 H 4.917356 -0.868022 1.457005 0
M  V30 40 H 3.505579 1.043532 1.785988 0
M  V30 41 H -1.116692 0.237439 2.136321 0
M  V30 42 H -3.816996 5.975871 3.777741 0
M  V30 43 H -3.030600 6.685871 2.273923 0
M  V30 44 H -5.363299 3.462331 2.266404 0
M  V30 45 H -6.445814 4.617176 3.094364 0
M  V30 46 H -4.864121 4.250304 3.791652 0
M  V30 47 H -5.047946 5.725765 -0.071202 0
M  V30 48 H -4.992939 4.072190 0.564910 0
M  V30 49 H -2.588609 5.975787 0.424516 0
M  V30 50 H -2.993012 4.639928 -0.650507 0
M  V30 51 H 0.010118 -1.434104 1.841174 0
M  V30 52 H 2.065364 -3.709050 -0.843322 0
M  V30 53 H 3.818226 -5.854600 -2.107875 0
M  V30 54 H 4.035908 -6.281778 -4.581542 0
M  V30 55 H 0.261382 -4.550037 -5.256520 0
M  V30 56 H 0.007698 -4.119561 -2.883498 0
M  V30 END ATOM
M  V30 BEGIN BOND
M  V30 1 1 1 2
M  V30 2 1 2 3
M  V30 3 1 3 4
M  V30 4 2 4 5
M  V30 5 1 5 6
M  V30 6 2 6 7
M  V30 7 1 7 8
M  V30 8 1 8 9
M  V30 9 2 9 10
M  V30 10 1 9 11
M  V30 11 1 11 12
M  V30 12 2 12 13
M  V30 13 1 13 14
M  V30 14 2 14 15
M  V30 15 1 15 16
M  V30 16 1 15 17
M  V30 17 1 17 18
M  V30 18 1 18 19
M  V30 19 1 18 20
M  V30 20 1 20 21
M  V30 21 2 8 22
M  V30 22 1 2 23
M  V30 23 2 23 24
M  V30 24 1 23 25
M  V30 25 1 25 26
M  V30 26 2 26 27
M  V30 27 1 27 28
M  V30 28 2 28 29
M  V30 29 1 29 30
M  V30 30 3 30 31
M  V30 31 1 29 32
M  V30 32 2 32 33
M  V30 33 1 22 4
M  V30 34 1 33 26
M  V30 35 1 16 12
M  V30 36 1 21 14
M  V30 37 1 1 34
M  V30 38 1 1 35
M  V30 39 1 1 36
M  V30 40 1 2 37 CFG=1
M  V30 41 1 5 38
M  V30 42 1 6 39
M  V30 43 1 7 40
M  V30 44 1 11 41
M  V30 45 1 17 42
M  V30 46 1 17 43
M  V30 47 1 19 44
M  V30 48 1 19 45
M  V30 49 1 19 46
M  V30 50 1 20 47
M  V30 51 1 20 48
M  V30 52 1 21 49
M  V30 53 1 21 50
M  V30 54 1 22 51
M  V30 55 1 25 52
M  V30 56 1 27 53
M  V30 57 1 28 54
M  V30 58 1 32 55
M  V30 59 1 33 56
M  V30 END BOND
M  V30 END CTAB
M  END
>  <Dataset>  (110) 
ChEMBL_Kinases

>  <Ligand_Instance>  (110) 
nan

>  <PDB_ID>  (110) 
nan

>  <Standardized_SMILES>  (110) 
C[C@@H](Oc1cccc(C(=O)Nc2nc3c(s2)CN(C)CC3)c1)C(=O)Nc1ccc(C#N)cc1

>  <Name>  (110) 
nan

>  <Pocket>  (110) 
nan

>  <ATP_Site>  (110) 
nan

>  <Peripheral>  (110) 
nan

>  <Num_H_Atoms_ProtBoundConf>  (110) 
nan

>  <Num_Resolved_Atoms>  (110) 
nan

>  <Num_Not_Resolved_Atoms>  (110) 
nan

$$$$
CHEMBL3700917
     RDKit          3D

  0  0  0  0  0  0  0  0  0  0999 V3000
M  V30 BEGIN CTAB
M  V30 COUNTS 61 65 0 0 0
M  V30 BEGIN ATOM
M  V30 1 N 1.221213 -2.618583 7.984284 0
M  V30 2 C 1.949973 -2.024312 7.327707 0
M  V30 3 C 2.862980 -1.286383 6.500667 0
M  V30 4 C 4.174738 -1.711772 6.314273 0
M  V30 5 C 5.035488 -1.006921 5.528381 0
M  V30 6 C 4.556394 0.145579 4.924003 0
M  V30 7 C 3.246541 0.595384 5.093288 0
M  V30 8 N 2.963432 1.805177 4.379751 0
M  V30 9 C 2.483945 1.522663 3.071477 0
M  V30 10 O 2.407186 0.273619 2.811447 0
M  V30 11 N 2.122033 2.526983 2.134927 0
M  V30 12 C 2.181583 3.944972 2.355875 0
M  V30 13 C 1.575670 4.625892 1.175692 0
M  V30 14 C 1.586800 3.584551 0.093034 0
M  V30 15 C 1.635586 2.248526 0.806662 0 CFG=2
M  V30 16 C 0.278929 1.660085 0.807300 0
M  V30 17 C -0.705272 2.203416 1.610873 0
M  V30 18 C -2.001320 1.708160 1.667505 0
M  V30 19 C -2.305991 0.608480 0.867486 0
M  V30 20 C -1.348013 0.038405 0.051230 0
M  V30 21 C -1.718028 -1.114342 -0.767889 0
M  V30 22 O -2.923619 -1.509161 -0.660932 0
M  V30 23 N -0.831373 -1.770697 -1.628310 0
M  V30 24 C -1.374032 -2.913832 -2.376806 0
M  V30 25 N -1.895529 -2.869318 -3.460103 0
M  V30 26 C -2.374056 -3.925708 -4.104412 0
M  V30 27 C -2.268342 -5.126951 -3.504848 0
M  V30 28 S -1.429253 -4.672982 -1.929460 0
M  V30 29 C -2.802676 -6.351280 -4.209324 0
M  V30 30 C -4.261328 -6.013172 -4.505420 0 CFG=1
M  V30 31 N -4.959217 -5.638169 -3.285815 0
M  V30 32 C -4.243796 -4.849191 -5.428547 0
M  V30 33 C -3.033927 -4.002668 -5.434376 0
M  V30 34 C -0.073183 0.566949 0.029718 0
M  V30 35 C 2.395332 -0.138684 5.895438 0
M  V30 36 H 4.473556 -2.613867 6.814797 0
M  V30 37 H 6.048342 -1.352048 5.395416 0
M  V30 38 H 5.292103 0.667299 4.306640 0
M  V30 39 H 3.059661 2.783607 4.681179 0
M  V30 40 H 1.533852 4.158095 3.249793 0
M  V30 41 H 3.193569 4.340342 2.557881 0
M  V30 42 H 0.545798 5.005216 1.357322 0
M  V30 43 H 2.175444 5.479058 0.798537 0
M  V30 44 H 2.411813 3.684630 -0.632172 0
M  V30 45 H 0.637641 3.672650 -0.468842 0
M  V30 46 H 2.338625 1.603644 0.244870 0
M  V30 47 H -0.534404 3.059763 2.257611 0
M  V30 48 H -2.762148 2.145743 2.303075 0
M  V30 49 H -3.335895 0.247098 0.939298 0
M  V30 50 H 0.138944 -1.460608 -1.721259 0
M  V30 51 H -2.691185 -7.242854 -3.584055 0
M  V30 52 H -2.286922 -6.470100 -5.160567 0
M  V30 53 H -4.801548 -6.845695 -4.952314 0
M  V30 54 H -5.201644 -4.630048 -3.297148 0
M  V30 55 H -4.432369 -5.923852 -2.431980 0
M  V30 56 H -5.153943 -4.204677 -5.270190 0
M  V30 57 H -4.384670 -5.241239 -6.478584 0
M  V30 58 H -2.246471 -4.430122 -6.118524 0
M  V30 59 H -3.282612 -3.020844 -5.872050 0
M  V30 60 H 0.696797 0.146341 -0.595171 0
M  V30 61 H 1.410979 0.267140 5.977090 0
M  V30 END ATOM
M  V30 BEGIN BOND
M  V30 1 3 1 2
M  V30 2 1 2 3
M  V30 3 2 3 4
M  V30 4 1 4 5
M  V30 5 2 5 6
M  V30 6 1 6 7
M  V30 7 1 7 8
M  V30 8 1 8 9
M  V30 9 2 9 10
M  V30 10 1 9 11
M  V30 11 1 11 12
M  V30 12 1 12 13
M  V30 13 1 13 14
M  V30 14 1 14 15
M  V30 15 1 15 16
M  V30 16 2 16 17
M  V30 17 1 17 18
M  V30 18 2 18 19
M  V30 19 1 19 20
M  V30 20 1 20 21
M  V30 21 2 21 22
M  V30 22 1 21 23
M  V30 23 1 23 24
M  V30 24 2 24 25
M  V30 25 1 25 26
M  V30 26 2 26 27
M  V30 27 1 27 28
M  V30 28 1 27 29
M  V30 29 1 29 30
M  V30 30 1 30 31
M  V30 31 1 30 32
M  V30 32 1 32 33
M  V30 33 2 20 34
M  V30 34 2 7 35
M  V30 35 1 35 3
M  V30 36 1 15 11
M  V30 37 1 34 16
M  V30 38 1 28 24
M  V30 39 1 33 26
M  V30 40 1 4 36
M  V30 41 1 5 37
M  V30 42 1 6 38
M  V30 43 1 8 39
M  V30 44 1 12 40
M  V30 45 1 12 41
M  V30 46 1 13 42
M  V30 47 1 13 43
M  V30 48 1 14 44
M  V30 49 1 14 45
M  V30 50 1 15 46 CFG=3
M  V30 51 1 17 47
M  V30 52 1 18 48
M  V30 53 1 19 49
M  V30 54 1 23 50
M  V30 55 1 29 51
M  V30 56 1 29 52
M  V30 57 1 30 53 CFG=3
M  V30 58 1 31 54
M  V30 59 1 31 55
M  V30 60 1 32 56
M  V30 61 1 32 57
M  V30 62 1 33 58
M  V30 63 1 33 59
M  V30 64 1 34 60
M  V30 65 1 35 61
M  V30 END BOND
M  V30 END CTAB
M  END
>  <Dataset>  (111) 
ChEMBL_Kinases

>  <Ligand_Instance>  (111) 
nan

>  <PDB_ID>  (111) 
nan

>  <Standardized_SMILES>  (111) 
N#Cc1cccc(NC(=O)N2CCC[C@@H]2c2cccc(C(=O)Nc3nc4c(s3)C[C@@H](N)CC4)c2)c1

>  <Name>  (111) 
nan

>  <Pocket>  (111) 
nan

>  <ATP_Site>  (111) 
nan

>  <Peripheral>  (111) 
nan

>  <Num_H_Atoms_ProtBoundConf>  (111) 
nan

>  <Num_Resolved_Atoms>  (111) 
nan

>  <Num_Not_Resolved_Atoms>  (111) 
nan

$$$$
CHEMBL3700918
     RDKit          3D

  0  0  0  0  0  0  0  0  0  0999 V3000
M  V30 BEGIN CTAB
M  V30 COUNTS 61 65 0 0 0
M  V30 BEGIN ATOM
M  V30 1 C 6.677907 0.140340 5.488672 0
M  V30 2 N 5.850514 0.241341 4.278625 0
M  V30 3 C 6.691646 0.436838 3.137871 0
M  V30 4 C 5.875582 0.200310 1.879988 0
M  V30 5 C 4.667787 1.088537 2.011584 0
M  V30 6 N 3.887344 1.430235 0.988339 0
M  V30 7 C 2.958510 2.084900 0.991021 0
M  V30 8 N 2.013634 2.531922 -0.083284 0
M  V30 9 C 1.012282 1.527779 -0.210604 0
M  V30 10 O 1.271599 0.616583 0.610964 0
M  V30 11 C -0.029903 1.753578 -1.200864 0
M  V30 12 C -0.194904 2.917886 -1.956910 0
M  V30 13 C -1.256676 2.886557 -2.825807 0
M  V30 14 C -2.175915 1.894065 -3.066688 0
M  V30 15 C -1.973990 0.746589 -2.290704 0
M  V30 16 N -2.870898 -0.345972 -2.454008 0
M  V30 17 C -4.170848 -0.368064 -3.091939 0
M  V30 18 C -4.178040 -1.623280 -3.939747 0
M  V30 19 C -3.209695 -2.519353 -3.215879 0
M  V30 20 C -2.681454 -1.700790 -2.040926 0 CFG=2
M  V30 21 C -3.441218 -2.107552 -0.850117 0
M  V30 22 O -4.227577 -1.410760 -0.167257 0
M  V30 23 N -3.131951 -3.465939 -0.584696 0
M  V30 24 C -3.651976 -4.286854 0.488324 0
M  V30 25 C -4.806907 -4.927734 0.095291 0
M  V30 26 C -5.388238 -5.758148 1.064711 0
M  V30 27 C -4.761483 -5.849148 2.285273 0
M  V30 28 C -3.588277 -5.186086 2.657412 0
M  V30 29 C -3.004052 -5.340290 3.953346 0
M  V30 30 N -2.541035 -5.481910 5.015168 0
M  V30 31 C -2.997164 -4.348729 1.689044 0
M  V30 32 C -0.930338 0.696500 -1.392877 0
M  V30 33 S 2.814462 2.559437 2.828407 0
M  V30 34 C 4.256355 1.630240 3.250269 0
M  V30 35 C 4.979272 1.374303 4.523340 0
M  V30 36 H 7.489645 0.901105 5.361190 0
M  V30 37 H 6.054433 0.321031 6.396972 0
M  V30 38 H 7.164475 -0.847351 5.478824 0
M  V30 39 H 7.030345 1.509504 3.095613 0
M  V30 40 H 7.537759 -0.279448 3.200741 0
M  V30 41 H 5.601293 -0.874116 1.837127 0
M  V30 42 H 6.527444 0.468232 1.039266 0
M  V30 43 H 2.108111 3.427330 -0.621543 0
M  V30 44 H 0.498746 3.717284 -1.801770 0
M  V30 45 H -1.382840 3.794041 -3.414867 0
M  V30 46 H -2.963972 2.018885 -3.788346 0
M  V30 47 H -4.356567 0.552295 -3.639507 0
M  V30 48 H -4.929824 -0.478888 -2.260043 0
M  V30 49 H -3.853370 -1.328864 -4.957547 0
M  V30 50 H -5.219813 -2.010950 -3.899173 0
M  V30 51 H -3.731838 -3.420768 -2.833444 0
M  V30 52 H -2.384546 -2.869214 -3.871560 0
M  V30 53 H -1.588714 -1.927240 -1.986325 0
M  V30 54 H -2.501088 -4.143239 -1.058084 0
M  V30 55 H -5.278181 -4.845262 -0.862269 0
M  V30 56 H -6.290621 -6.315433 0.889503 0
M  V30 57 H -5.230748 -6.510039 3.037679 0
M  V30 58 H -2.094331 -3.808522 1.906172 0
M  V30 59 H -0.823850 -0.234727 -0.813079 0
M  V30 60 H 5.547696 2.303195 4.762044 0
M  V30 61 H 4.298186 1.183213 5.372516 0
M  V30 END ATOM
M  V30 BEGIN BOND
M  V30 1 1 1 2
M  V30 2 1 2 3
M  V30 3 1 3 4
M  V30 4 1 4 5
M  V30 5 1 5 6
M  V30 6 2 6 7
M  V30 7 1 7 8
M  V30 8 1 8 9
M  V30 9 2 9 10
M  V30 10 1 9 11
M  V30 11 2 11 12
M  V30 12 1 12 13
M  V30 13 2 13 14
M  V30 14 1 14 15
M  V30 15 1 15 16
M  V30 16 1 16 17
M  V30 17 1 17 18
M  V30 18 1 18 19
M  V30 19 1 19 20
M  V30 20 1 20 21
M  V30 21 2 21 22
M  V30 22 1 21 23
M  V30 23 1 23 24
M  V30 24 2 24 25
M  V30 25 1 25 26
M  V30 26 2 26 27
M  V30 27 1 27 28
M  V30 28 1 28 29
M  V30 29 3 29 30
M  V30 30 2 28 31
M  V30 31 2 15 32
M  V30 32 1 7 33
M  V30 33 1 33 34
M  V30 34 1 34 35
M  V30 35 1 35 2
M  V30 36 2 34 5
M  V30 37 1 32 11
M  V30 38 1 20 16
M  V30 39 1 31 24
M  V30 40 1 1 36
M  V30 41 1 1 37
M  V30 42 1 1 38
M  V30 43 1 3 39
M  V30 44 1 3 40
M  V30 45 1 4 41
M  V30 46 1 4 42
M  V30 47 1 8 43
M  V30 48 1 12 44
M  V30 49 1 13 45
M  V30 50 1 14 46
M  V30 51 1 17 47
M  V30 52 1 17 48
M  V30 53 1 18 49
M  V30 54 1 18 50
M  V30 55 1 19 51
M  V30 56 1 19 52
M  V30 57 1 20 53 CFG=1
M  V30 58 1 23 54
M  V30 59 1 25 55
M  V30 60 1 26 56
M  V30 61 1 27 57
M  V30 62 1 31 58
M  V30 63 1 32 59
M  V30 64 1 35 60
M  V30 65 1 35 61
M  V30 END BOND
M  V30 END CTAB
M  END
>  <Dataset>  (112) 
ChEMBL_Kinases

>  <Ligand_Instance>  (112) 
nan

>  <PDB_ID>  (112) 
nan

>  <Standardized_SMILES>  (112) 
CN1CCc2nc(NC(=O)c3cccc(N4CCC[C@@H]4C(=O)Nc4cccc(C#N)c4)c3)sc2C1

>  <Name>  (112) 
nan

>  <Pocket>  (112) 
nan

>  <ATP_Site>  (112) 
nan

>  <Peripheral>  (112) 
nan

>  <Num_H_Atoms_ProtBoundConf>  (112) 
nan

>  <Num_Resolved_Atoms>  (112) 
nan

>  <Num_Not_Resolved_Atoms>  (112) 
nan

$$$$
CHEMBL3700919
     RDKit          3D

  0  0  0  0  0  0  0  0  0  0999 V3000
M  V30 BEGIN CTAB
M  V30 COUNTS 61 65 0 0 0
M  V30 BEGIN ATOM
M  V30 1 N 0.970033 -3.058518 7.548333 0
M  V30 2 C 1.750681 -2.381924 6.992983 0
M  V30 3 C 2.687478 -1.542776 6.300815 0
M  V30 4 C 3.994219 -1.894688 6.115332 0
M  V30 5 C 4.882097 -1.063675 5.440365 0
M  V30 6 C 4.372313 0.145951 4.962672 0
M  V30 7 C 3.056045 0.492282 5.153706 0
M  V30 8 N 2.786173 1.781737 4.567933 0
M  V30 9 C 2.374027 1.609833 3.218761 0
M  V30 10 O 2.350163 0.389646 2.884299 0
M  V30 11 N 2.029543 2.672432 2.346397 0
M  V30 12 C 2.031719 4.074006 2.649446 0
M  V30 13 C 1.452355 4.796463 1.480192 0
M  V30 14 C 1.511123 3.824696 0.345780 0
M  V30 15 C 1.613464 2.452573 0.976356 0 CFG=2
M  V30 16 C 0.284323 1.790629 0.972642 0
M  V30 17 C -0.705736 2.259943 1.813280 0
M  V30 18 C -1.976093 1.725479 1.897607 0
M  V30 19 C -2.282324 0.634892 1.076691 0
M  V30 20 C -1.313311 0.142264 0.224891 0
M  V30 21 C -1.652977 -0.997336 -0.622392 0
M  V30 22 O -2.825273 -1.469443 -0.522786 0
M  V30 23 N -0.778621 -1.601285 -1.531700 0
M  V30 24 C -1.242997 -2.743685 -2.325997 0
M  V30 25 N -1.779937 -2.714408 -3.418043 0
M  V30 26 C -2.175450 -3.775940 -4.083241 0
M  V30 27 C -1.953763 -5.025193 -3.473185 0
M  V30 28 S -1.167634 -4.529170 -1.943775 0
M  V30 29 C -2.447865 -6.207185 -4.321036 0
M  V30 30 C -3.932099 -5.917641 -4.572154 0 CFG=2
M  V30 31 N -4.640739 -7.059065 -5.019344 0
M  V30 32 C -4.094777 -4.677720 -5.380318 0
M  V30 33 C -2.841547 -3.861105 -5.424348 0
M  V30 34 C -0.057468 0.713615 0.179007 0
M  V30 35 C 2.191542 -0.346874 5.826291 0
M  V30 36 H 4.321017 -2.853526 6.515790 0
M  V30 37 H 5.896967 -1.414670 5.336145 0
M  V30 38 H 5.143918 0.723396 4.450222 0
M  V30 39 H 2.842080 2.770593 4.955753 0
M  V30 40 H 1.332560 4.217543 3.524296 0
M  V30 41 H 3.016287 4.455683 2.970734 0
M  V30 42 H 2.001731 5.728877 1.224749 0
M  V30 43 H 0.398633 5.141336 1.659360 0
M  V30 44 H 2.398024 3.983463 -0.303973 0
M  V30 45 H 0.568552 3.904476 -0.232245 0
M  V30 46 H 2.389845 1.868118 0.484100 0
M  V30 47 H -0.553942 3.098870 2.481375 0
M  V30 48 H -2.738038 2.106823 2.561868 0
M  V30 49 H -3.295301 0.228157 1.160758 0
M  V30 50 H 0.173431 -1.244095 -1.636080 0
M  V30 51 H -2.339864 -7.129991 -3.734600 0
M  V30 52 H -1.881946 -6.204734 -5.260630 0
M  V30 53 H -4.332534 -5.665989 -3.545948 0
M  V30 54 H -4.935198 -6.904820 -6.016572 0
M  V30 55 H -5.532708 -7.218819 -4.483133 0
M  V30 56 H -4.906010 -4.040915 -5.019382 0
M  V30 57 H -4.302703 -5.009962 -6.439454 0
M  V30 58 H -2.081463 -4.358416 -6.096171 0
M  V30 59 H -2.996176 -2.869592 -5.881743 0
M  V30 60 H 0.719040 0.346129 -0.479950 0
M  V30 61 H 1.197296 0.042638 5.904699 0
M  V30 END ATOM
M  V30 BEGIN BOND
M  V30 1 3 1 2
M  V30 2 1 2 3
M  V30 3 2 3 4
M  V30 4 1 4 5
M  V30 5 2 5 6
M  V30 6 1 6 7
M  V30 7 1 7 8
M  V30 8 1 8 9
M  V30 9 2 9 10
M  V30 10 1 9 11
M  V30 11 1 11 12
M  V30 12 1 12 13
M  V30 13 1 13 14
M  V30 14 1 14 15
M  V30 15 1 15 16
M  V30 16 2 16 17
M  V30 17 1 17 18
M  V30 18 2 18 19
M  V30 19 1 19 20
M  V30 20 1 20 21
M  V30 21 2 21 22
M  V30 22 1 21 23
M  V30 23 1 23 24
M  V30 24 2 24 25
M  V30 25 1 25 26
M  V30 26 2 26 27
M  V30 27 1 27 28
M  V30 28 1 27 29
M  V30 29 1 29 30
M  V30 30 1 30 31
M  V30 31 1 30 32
M  V30 32 1 32 33
M  V30 33 2 20 34
M  V30 34 2 7 35
M  V30 35 1 35 3
M  V30 36 1 15 11
M  V30 37 1 34 16
M  V30 38 1 28 24
M  V30 39 1 33 26
M  V30 40 1 4 36
M  V30 41 1 5 37
M  V30 42 1 6 38
M  V30 43 1 8 39
M  V30 44 1 12 40
M  V30 45 1 12 41
M  V30 46 1 13 42
M  V30 47 1 13 43
M  V30 48 1 14 44
M  V30 49 1 14 45
M  V30 50 1 15 46 CFG=3
M  V30 51 1 17 47
M  V30 52 1 18 48
M  V30 53 1 19 49
M  V30 54 1 23 50
M  V30 55 1 29 51
M  V30 56 1 29 52
M  V30 57 1 30 53 CFG=1
M  V30 58 1 31 54
M  V30 59 1 31 55
M  V30 60 1 32 56
M  V30 61 1 32 57
M  V30 62 1 33 58
M  V30 63 1 33 59
M  V30 64 1 34 60
M  V30 65 1 35 61
M  V30 END BOND
M  V30 END CTAB
M  END
>  <Dataset>  (113) 
ChEMBL_Kinases

>  <Ligand_Instance>  (113) 
nan

>  <PDB_ID>  (113) 
nan

>  <Standardized_SMILES>  (113) 
N#Cc1cccc(NC(=O)N2CCC[C@@H]2c2cccc(C(=O)Nc3nc4c(s3)C[C@H](N)CC4)c2)c1

>  <Name>  (113) 
nan

>  <Pocket>  (113) 
nan

>  <ATP_Site>  (113) 
nan

>  <Peripheral>  (113) 
nan

>  <Num_H_Atoms_ProtBoundConf>  (113) 
nan

>  <Num_Resolved_Atoms>  (113) 
nan

>  <Num_Not_Resolved_Atoms>  (113) 
nan

$$$$
CHEMBL3700920
     RDKit          3D

  0  0  0  0  0  0  0  0  0  0999 V3000
M  V30 BEGIN CTAB
M  V30 COUNTS 55 59 0 0 0
M  V30 BEGIN ATOM
M  V30 1 C 6.923563 -4.513833 2.390234 0
M  V30 2 N 6.046036 -3.465190 1.972651 0
M  V30 3 C 5.351220 -2.800446 3.045148 0
M  V30 4 C 5.801654 -1.373969 3.114989 0
M  V30 5 C 5.315963 -0.696879 1.863626 0
M  V30 6 N 4.546033 0.347717 1.626450 0
M  V30 7 C 4.268556 0.741545 0.501559 0
M  V30 8 N 3.418398 1.895622 0.198806 0
M  V30 9 C 2.103892 1.416029 0.101462 0
M  V30 10 O 1.999396 0.156868 0.293788 0
M  V30 11 C 0.933859 2.274476 -0.195801 0
M  V30 12 C 1.024658 3.635293 -0.407401 0
M  V30 13 C -0.144164 4.350689 -0.680927 0
M  V30 14 C -1.358102 3.698253 -0.735612 0
M  V30 15 C -1.464839 2.337190 -0.526104 0
M  V30 16 O -2.646641 1.605234 -0.563437 0
M  V30 17 C -3.838928 2.296578 -0.836216 0
M  V30 18 C -5.022662 1.409598 -0.848190 0
M  V30 19 O -6.206592 1.772785 -1.065870 0
M  V30 20 N -4.819074 0.027248 -0.593608 0
M  V30 21 C -5.533604 -1.180750 -0.490159 0
M  V30 22 C -5.665691 -1.883402 -1.678643 0
M  V30 23 C -6.355736 -3.094501 -1.690248 0
M  V30 24 C -6.877474 -3.531809 -0.493755 0
M  V30 25 N -7.582790 -4.646234 -0.194509 0
M  V30 26 N -7.877359 -4.651057 1.090961 0
M  V30 27 C -7.386561 -3.549947 1.703060 0
M  V30 28 C -6.759156 -2.847939 0.708030 0
M  V30 29 C -6.076244 -1.658360 0.696923 0
M  V30 30 C -0.293926 1.627287 -0.253195 0
M  V30 31 S 5.142684 -0.421618 -0.592608 0
M  V30 32 C 5.829334 -1.372718 0.783277 0
M  V30 33 C 6.694876 -2.549330 1.065646 0
M  V30 34 H 7.988751 -4.208683 2.401096 0
M  V30 35 H 6.668177 -4.909444 3.371954 0
M  V30 36 H 6.867974 -5.302797 1.585591 0
M  V30 37 H 5.545456 -3.377765 3.961876 0
M  V30 38 H 4.272377 -2.815620 2.838082 0
M  V30 39 H 6.899641 -1.262905 3.205811 0
M  V30 40 H 5.366213 -0.924482 4.023987 0
M  V30 41 H 3.605577 2.907560 0.058125 0
M  V30 42 H 1.996228 4.100974 -0.354382 0
M  V30 43 H -0.074234 5.417020 -0.846931 0
M  V30 44 H -2.296219 4.235300 -0.949142 0
M  V30 45 H -3.708416 2.827425 -1.813905 0
M  V30 46 H -4.058634 3.120276 -0.113584 0
M  V30 47 H -3.854965 -0.329115 -0.406455 0
M  V30 48 H -5.252832 -1.535906 -2.621766 0
M  V30 49 H -6.469775 -3.658778 -2.609234 0
M  V30 50 H -7.889347 -5.433819 -0.828435 0
M  V30 51 H -7.447215 -3.241569 2.747184 0
M  V30 52 H -5.941493 -1.073503 1.577013 0
M  V30 53 H -0.352213 0.557777 -0.085135 0
M  V30 54 H 7.669610 -2.267351 1.513214 0
M  V30 55 H 6.919845 -3.119962 0.141954 0
M  V30 END ATOM
M  V30 BEGIN BOND
M  V30 1 1 1 2
M  V30 2 1 2 3
M  V30 3 1 3 4
M  V30 4 1 4 5
M  V30 5 1 5 6
M  V30 6 2 6 7
M  V30 7 1 7 8
M  V30 8 1 8 9
M  V30 9 2 9 10
M  V30 10 1 9 11
M  V30 11 2 11 12
M  V30 12 1 12 13
M  V30 13 2 13 14
M  V30 14 1 14 15
M  V30 15 1 15 16
M  V30 16 1 16 17
M  V30 17 1 17 18
M  V30 18 2 18 19
M  V30 19 1 18 20
M  V30 20 1 20 21
M  V30 21 2 21 22
M  V30 22 1 22 23
M  V30 23 2 23 24
M  V30 24 1 24 25
M  V30 25 1 25 26
M  V30 26 2 26 27
M  V30 27 1 27 28
M  V30 28 2 28 29
M  V30 29 2 15 30
M  V30 30 1 7 31
M  V30 31 1 31 32
M  V30 32 1 32 33
M  V30 33 1 33 2
M  V30 34 2 32 5
M  V30 35 1 30 11
M  V30 36 1 29 21
M  V30 37 1 28 24
M  V30 38 1 1 34
M  V30 39 1 1 35
M  V30 40 1 1 36
M  V30 41 1 3 37
M  V30 42 1 3 38
M  V30 43 1 4 39
M  V30 44 1 4 40
M  V30 45 1 8 41
M  V30 46 1 12 42
M  V30 47 1 13 43
M  V30 48 1 14 44
M  V30 49 1 17 45
M  V30 50 1 17 46
M  V30 51 1 20 47
M  V30 52 1 22 48
M  V30 53 1 23 49
M  V30 54 1 25 50
M  V30 55 1 27 51
M  V30 56 1 29 52
M  V30 57 1 30 53
M  V30 58 1 33 54
M  V30 59 1 33 55
M  V30 END BOND
M  V30 END CTAB
M  END
>  <Dataset>  (114) 
ChEMBL_Kinases

>  <Ligand_Instance>  (114) 
nan

>  <PDB_ID>  (114) 
nan

>  <Standardized_SMILES>  (114) 
CN1CCc2nc(NC(=O)c3cccc(OCC(=O)Nc4ccc5[nH]ncc5c4)c3)sc2C1

>  <Name>  (114) 
nan

>  <Pocket>  (114) 
nan

>  <ATP_Site>  (114) 
nan

>  <Peripheral>  (114) 
nan

>  <Num_H_Atoms_ProtBoundConf>  (114) 
nan

>  <Num_Resolved_Atoms>  (114) 
nan

>  <Num_Not_Resolved_Atoms>  (114) 
nan

$$$$
CHEMBL3700921
     RDKit          3D

  0  0  0  0  0  0  0  0  0  0999 V3000
M  V30 BEGIN CTAB
M  V30 COUNTS 66 71 0 0 0
M  V30 BEGIN ATOM
M  V30 1 C -0.165242 0.425280 5.363222 0
M  V30 2 C 0.439174 0.025992 4.072962 0
M  V30 3 N 1.700952 0.024277 3.705692 0
M  V30 4 C 2.133239 -0.318854 2.655905 0
M  V30 5 C 3.462284 -0.416786 2.013922 0
M  V30 6 C 4.646686 -0.056337 2.620160 0
M  V30 7 C 5.868261 -0.164487 2.009234 0
M  V30 8 N 5.931430 -0.643135 0.760578 0
M  V30 9 C 4.827305 -1.020703 0.090701 0
M  V30 10 C 3.595305 -0.907045 0.718921 0
M  V30 11 S 0.615676 -0.821407 1.727973 0
M  V30 12 C -0.505093 -0.412169 3.157437 0
M  V30 13 C -1.902830 -0.722778 2.789001 0
M  V30 14 O -2.345634 0.255546 2.082331 0
M  V30 15 N -2.560512 -1.937243 3.188131 0
M  V30 16 C -1.719584 -2.750585 4.103262 0
M  V30 17 C -2.692092 -3.812653 4.551318 0
M  V30 18 C -3.583023 -4.024653 3.319642 0
M  V30 19 C -3.800507 -2.598909 2.898616 0 CFG=2
M  V30 20 C -4.261254 -2.445802 1.495284 0
M  V30 21 C -5.539922 -2.543165 0.994262 0
M  V30 22 C -5.829087 -2.274321 -0.337544 0
M  V30 23 C -4.843801 -1.885375 -1.255576 0
M  V30 24 C -3.593370 -1.806233 -0.696553 0
M  V30 25 C -2.569060 -1.264771 -1.574084 0
M  V30 26 O -1.473340 -0.898024 -0.979614 0
M  V30 27 N -2.433999 -1.006220 -2.933289 0
M  V30 28 C -1.152246 -0.387765 -3.261781 0
M  V30 29 N -0.170410 -0.078942 -2.685880 0
M  V30 30 C 0.882355 0.519629 -3.098682 0
M  V30 31 C 0.899372 0.878317 -4.461862 0
M  V30 32 S -0.728065 0.235861 -4.921769 0
M  V30 33 C 2.144602 1.553398 -4.778725 0
M  V30 34 N 2.487480 2.637774 -3.921353 0
M  V30 35 C 3.863681 3.036409 -3.966758 0
M  V30 36 C 2.129495 2.448703 -2.544809 0
M  V30 37 C 2.120496 0.922210 -2.329921 0
M  V30 38 C -3.239641 -2.063729 0.608264 0
M  V30 39 H -1.220495 0.677525 5.318872 0
M  V30 40 H 0.332618 1.360105 5.772997 0
M  V30 41 H 0.029641 -0.327987 6.170739 0
M  V30 42 H 4.477513 0.322231 3.630261 0
M  V30 43 H 6.728298 0.144652 2.569848 0
M  V30 44 H 4.911205 -1.407967 -0.936229 0
M  V30 45 H 2.718426 -1.230450 0.137423 0
M  V30 46 H -1.589989 -2.088533 5.025664 0
M  V30 47 H -0.798195 -3.094186 3.673537 0
M  V30 48 H -3.352448 -3.443518 5.371711 0
M  V30 49 H -2.195912 -4.746916 4.849358 0
M  V30 50 H -4.561923 -4.490816 3.590751 0
M  V30 51 H -2.986413 -4.611257 2.606266 0
M  V30 52 H -4.623522 -2.217501 3.580750 0
M  V30 53 H -6.239650 -2.847144 1.757417 0
M  V30 54 H -6.865841 -2.396318 -0.587231 0
M  V30 55 H -5.110460 -1.688518 -2.270948 0
M  V30 56 H -3.239851 -1.286672 -3.477852 0
M  V30 57 H 2.974361 0.824487 -4.796983 0
M  V30 58 H 2.093510 1.955333 -5.822023 0
M  V30 59 H 4.390103 2.300199 -4.600265 0
M  V30 60 H 4.039820 4.046509 -4.358472 0
M  V30 61 H 4.347843 3.008979 -2.954057 0
M  V30 62 H 2.786341 2.973160 -1.852641 0
M  V30 63 H 1.059865 2.815378 -2.456060 0
M  V30 64 H 2.975243 0.460456 -2.820158 0
M  V30 65 H 2.041688 0.729501 -1.259098 0
M  V30 66 H -2.204074 -2.016337 0.875045 0
M  V30 END ATOM
M  V30 BEGIN BOND
M  V30 1 1 1 2
M  V30 2 1 2 3
M  V30 3 2 3 4
M  V30 4 1 4 5
M  V30 5 2 5 6
M  V30 6 1 6 7
M  V30 7 2 7 8
M  V30 8 1 8 9
M  V30 9 2 9 10
M  V30 10 1 4 11
M  V30 11 1 11 12
M  V30 12 1 12 13
M  V30 13 2 13 14
M  V30 14 1 13 15
M  V30 15 1 15 16
M  V30 16 1 16 17
M  V30 17 1 17 18
M  V30 18 1 18 19
M  V30 19 1 19 20
M  V30 20 2 20 21
M  V30 21 1 21 22
M  V30 22 2 22 23
M  V30 23 1 23 24
M  V30 24 1 24 25
M  V30 25 2 25 26
M  V30 26 1 25 27
M  V30 27 1 27 28
M  V30 28 2 28 29
M  V30 29 1 29 30
M  V30 30 2 30 31
M  V30 31 1 31 32
M  V30 32 1 31 33
M  V30 33 1 33 34
M  V30 34 1 34 35
M  V30 35 1 34 36
M  V30 36 1 36 37
M  V30 37 2 24 38
M  V30 38 2 12 2
M  V30 39 1 19 15
M  V30 40 1 38 20
M  V30 41 1 10 5
M  V30 42 1 32 28
M  V30 43 1 37 30
M  V30 44 1 1 39
M  V30 45 1 1 40
M  V30 46 1 1 41
M  V30 47 1 6 42
M  V30 48 1 7 43
M  V30 49 1 9 44
M  V30 50 1 10 45
M  V30 51 1 16 46
M  V30 52 1 16 47
M  V30 53 1 17 48
M  V30 54 1 17 49
M  V30 55 1 18 50
M  V30 56 1 18 51
M  V30 57 1 19 52 CFG=1
M  V30 58 1 21 53
M  V30 59 1 22 54
M  V30 60 1 23 55
M  V30 61 1 27 56
M  V30 62 1 33 57
M  V30 63 1 33 58
M  V30 64 1 35 59
M  V30 65 1 35 60
M  V30 66 1 35 61
M  V30 67 1 36 62
M  V30 68 1 36 63
M  V30 69 1 37 64
M  V30 70 1 37 65
M  V30 71 1 38 66
M  V30 END BOND
M  V30 END CTAB
M  END
>  <Dataset>  (115) 
ChEMBL_Kinases

>  <Ligand_Instance>  (115) 
nan

>  <PDB_ID>  (115) 
nan

>  <Standardized_SMILES>  (115) 
Cc1nc(-c2ccncc2)sc1C(=O)N1CCC[C@@H]1c1cccc(C(=O)Nc2nc3c(s2)CN(C)CC3)c1

>  <Name>  (115) 
nan

>  <Pocket>  (115) 
nan

>  <ATP_Site>  (115) 
nan

>  <Peripheral>  (115) 
nan

>  <Num_H_Atoms_ProtBoundConf>  (115) 
nan

>  <Num_Resolved_Atoms>  (115) 
nan

>  <Num_Not_Resolved_Atoms>  (115) 
nan

$$$$
CHEMBL3700922
     RDKit          3D

  0  0  0  0  0  0  0  0  0  0999 V3000
M  V30 BEGIN CTAB
M  V30 COUNTS 67 72 0 0 0
M  V30 BEGIN ATOM
M  V30 1 C 5.336350 -0.318004 5.505106 0
M  V30 2 N 5.090154 -1.710951 5.186698 0
M  V30 3 C 3.694645 -1.969001 5.367872 0
M  V30 4 C 2.904268 -2.311783 4.171636 0
M  V30 5 C 3.361870 -1.534468 2.968311 0
M  V30 6 N 2.657824 -0.941218 2.025262 0
M  V30 7 C 3.228763 -0.339981 1.072410 0
M  V30 8 N 2.373224 0.297095 0.065653 0
M  V30 9 C 1.970715 1.648976 0.132158 0
M  V30 10 O 2.319509 2.429276 1.067528 0
M  V30 11 C 1.114359 2.227366 -0.898251 0
M  V30 12 C 0.868798 3.603328 -0.854339 0
M  V30 13 C 0.057055 4.230817 -1.794124 0
M  V30 14 C -0.532670 3.494036 -2.807070 0
M  V30 15 C -0.300911 2.135101 -2.864449 0
M  V30 16 C -0.880070 1.204405 -3.895528 0 CFG=1
M  V30 17 C 0.159626 0.647419 -4.823611 0
M  V30 18 C -0.196974 -0.819718 -5.008676 0
M  V30 19 C -0.849360 -1.220581 -3.697145 0
M  V30 20 N -1.408450 0.032477 -3.168763 0
M  V30 21 C -2.316118 0.382518 -2.135567 0
M  V30 22 O -2.755420 1.500494 -1.743125 0
M  V30 23 C -3.032250 -0.458272 -1.190454 0
M  V30 24 C -2.197471 -1.148691 -0.320054 0
M  V30 25 C -2.676568 -2.001023 0.672758 0
M  V30 26 C -4.045004 -2.125155 0.747270 0
M  V30 27 C -4.558298 -3.004988 1.787750 0
M  V30 28 C -3.903249 -4.137607 2.245719 0
M  V30 29 C -4.414092 -4.954414 3.244868 0
M  V30 30 N -5.591494 -4.631654 3.787650 0
M  V30 31 C -6.262919 -3.555080 3.385450 0
M  V30 32 C -5.776263 -2.728257 2.395150 0
M  V30 33 C -4.939712 -1.479086 -0.073755 0
M  V30 34 C -4.403948 -0.644428 -1.042531 0
M  V30 35 C 0.512485 1.526670 -1.917675 0
M  V30 36 S 4.967043 -0.550708 1.411261 0
M  V30 37 C 4.781720 -1.483398 2.891317 0
M  V30 38 C 5.596696 -2.108034 3.893664 0
M  V30 39 H 4.596568 -0.035455 6.292110 0
M  V30 40 H 5.081249 0.301225 4.618099 0
M  V30 41 H 6.386949 -0.202459 5.822794 0
M  V30 42 H 3.635725 -2.856370 6.064180 0
M  V30 43 H 3.203092 -1.141035 5.952021 0
M  V30 44 H 1.839878 -2.083891 4.380972 0
M  V30 45 H 2.911448 -3.415213 3.922370 0
M  V30 46 H 2.094308 -0.350775 -0.701604 0
M  V30 47 H 1.279344 4.262012 -0.109079 0
M  V30 48 H -0.155787 5.292279 -1.796852 0
M  V30 49 H -1.176412 3.855412 -3.593236 0
M  V30 50 H -1.699857 1.695284 -4.407634 0
M  V30 51 H 0.147866 1.139313 -5.814519 0
M  V30 52 H 1.171629 0.777511 -4.367527 0
M  V30 53 H -0.868585 -0.961729 -5.878253 0
M  V30 54 H 0.763017 -1.362797 -5.160827 0
M  V30 55 H -1.622264 -1.970073 -3.924979 0
M  V30 56 H -0.111961 -1.662376 -3.012140 0
M  V30 57 H -1.110907 -1.071371 -0.355119 0
M  V30 58 H -2.019652 -2.536218 1.346356 0
M  V30 59 H -2.945875 -4.323775 1.742573 0
M  V30 60 H -3.785792 -5.802234 3.493341 0
M  V30 61 H -7.222358 -3.297899 3.833957 0
M  V30 62 H -6.292445 -1.833666 2.033683 0
M  V30 63 H -6.006580 -1.565812 -0.028304 0
M  V30 64 H -4.964484 -0.061686 -1.769749 0
M  V30 65 H 0.707229 0.463787 -1.943911 0
M  V30 66 H 6.639176 -1.738524 3.854691 0
M  V30 67 H 5.582381 -3.197158 3.820986 0
M  V30 END ATOM
M  V30 BEGIN BOND
M  V30 1 1 1 2
M  V30 2 1 2 3
M  V30 3 1 3 4
M  V30 4 1 4 5
M  V30 5 1 5 6
M  V30 6 2 6 7
M  V30 7 1 7 8
M  V30 8 1 8 9
M  V30 9 2 9 10
M  V30 10 1 9 11
M  V30 11 2 11 12
M  V30 12 1 12 13
M  V30 13 2 13 14
M  V30 14 1 14 15
M  V30 15 1 15 16
M  V30 16 1 16 17
M  V30 17 1 17 18
M  V30 18 1 18 19
M  V30 19 1 19 20
M  V30 20 1 20 21
M  V30 21 2 21 22
M  V30 22 1 21 23
M  V30 23 2 23 24
M  V30 24 1 24 25
M  V30 25 2 25 26
M  V30 26 1 26 27
M  V30 27 2 27 28
M  V30 28 1 28 29
M  V30 29 2 29 30
M  V30 30 1 30 31
M  V30 31 2 31 32
M  V30 32 1 26 33
M  V30 33 2 33 34
M  V30 34 2 15 35
M  V30 35 1 7 36
M  V30 36 1 36 37
M  V30 37 1 37 38
M  V30 38 1 38 2
M  V30 39 2 37 5
M  V30 40 1 35 11
M  V30 41 1 20 16
M  V30 42 1 34 23
M  V30 43 1 32 27
M  V30 44 1 1 39
M  V30 45 1 1 40
M  V30 46 1 1 41
M  V30 47 1 3 42
M  V30 48 1 3 43
M  V30 49 1 4 44
M  V30 50 1 4 45
M  V30 51 1 8 46
M  V30 52 1 12 47
M  V30 53 1 13 48
M  V30 54 1 14 49
M  V30 55 1 16 50 CFG=3
M  V30 56 1 17 51
M  V30 57 1 17 52
M  V30 58 1 18 53
M  V30 59 1 18 54
M  V30 60 1 19 55
M  V30 61 1 19 56
M  V30 62 1 24 57
M  V30 63 1 25 58
M  V30 64 1 28 59
M  V30 65 1 29 60
M  V30 66 1 31 61
M  V30 67 1 32 62
M  V30 68 1 33 63
M  V30 69 1 34 64
M  V30 70 1 35 65
M  V30 71 1 38 66
M  V30 72 1 38 67
M  V30 END BOND
M  V30 END CTAB
M  END
>  <Dataset>  (116) 
ChEMBL_Kinases

>  <Ligand_Instance>  (116) 
nan

>  <PDB_ID>  (116) 
nan

>  <Standardized_SMILES>  (116) 
CN1CCc2nc(NC(=O)c3cccc([C@H]4CCCN4C(=O)c4ccc(-c5ccncc5)cc4)c3)sc2C1

>  <Name>  (116) 
nan

>  <Pocket>  (116) 
nan

>  <ATP_Site>  (116) 
nan

>  <Peripheral>  (116) 
nan

>  <Num_H_Atoms_ProtBoundConf>  (116) 
nan

>  <Num_Resolved_Atoms>  (116) 
nan

>  <Num_Not_Resolved_Atoms>  (116) 
nan

$$$$
CHEMBL3700932
     RDKit          3D

  0  0  0  0  0  0  0  0  0  0999 V3000
M  V30 BEGIN CTAB
M  V30 COUNTS 67 71 0 0 0
M  V30 BEGIN ATOM
M  V30 1 C 5.881264 -2.062905 7.669229 0
M  V30 2 N 6.254082 -2.463801 6.331374 0
M  V30 3 C 5.739771 -3.800983 6.115012 0
M  V30 4 C 5.683449 -1.579491 5.391506 0 CFG=1
M  V30 5 C 6.051413 -0.147009 5.497504 0
M  V30 6 C 6.001384 0.618336 4.230863 0
M  V30 7 C 4.850559 0.319099 3.341804 0
M  V30 8 N 3.807736 0.016564 2.533471 0
M  V30 9 C 3.092624 0.719139 2.058980 0
M  V30 10 N 1.957718 0.562931 1.110281 0
M  V30 11 C 0.665211 0.456110 1.679135 0
M  V30 12 O 0.601963 0.508221 2.943492 0
M  V30 13 C -0.616765 0.290227 0.965978 0
M  V30 14 C -1.770552 0.303674 1.715130 0
M  V30 15 C -2.926451 0.125121 0.938865 0
M  V30 16 C -2.855647 -0.042513 -0.422336 0
M  V30 17 C -1.651736 -0.049791 -1.142774 0
M  V30 18 C -1.935666 -0.256805 -2.578459 0 CFG=1
M  V30 19 C -0.701289 -0.811070 -3.263576 0
M  V30 20 C -0.812163 -2.311893 -3.049078 0
M  V30 21 C -2.128187 -2.373040 -2.262248 0
M  V30 22 N -2.947698 -1.295213 -2.765428 0
M  V30 23 C -4.278690 -1.294489 -3.256182 0
M  V30 24 O -4.900339 -2.374344 -3.274251 0
M  V30 25 N -4.884726 -0.099141 -3.713645 0
M  V30 26 C -6.189000 0.081811 -4.227595 0
M  V30 27 C -7.163057 -0.876236 -4.346187 0
M  V30 28 C -8.419576 -0.664604 -4.862368 0
M  V30 29 C -8.777981 0.580821 -5.306678 0
M  V30 30 C -7.797400 1.575763 -5.194818 0
M  V30 31 C -8.094934 2.903868 -5.641974 0
M  V30 32 N -8.347860 3.975397 -5.995197 0
M  V30 33 C -6.556194 1.319282 -4.673372 0
M  V30 34 C -0.513500 0.126240 -0.387904 0
M  V30 35 S 3.397090 -1.186407 2.114095 0
M  V30 36 C 4.838095 -1.056530 3.210108 0
M  V30 37 C 5.895713 -1.990793 3.949256 0
M  V30 38 H 4.998504 -1.365522 7.601086 0
M  V30 39 H 6.706253 -1.515232 8.178160 0
M  V30 40 H 5.581661 -2.933520 8.245932 0
M  V30 41 H 5.429540 -4.277451 7.082964 0
M  V30 42 H 6.518451 -4.434438 5.607632 0
M  V30 43 H 4.830892 -3.723265 5.488371 0
M  V30 44 H 4.560998 -1.623846 5.526889 0
M  V30 45 H 7.122863 -0.112491 5.857082 0
M  V30 46 H 5.493768 0.349776 6.337954 0
M  V30 47 H 6.027389 1.708012 4.526310 0
M  V30 48 H 6.942514 0.500740 3.618597 0
M  V30 49 H 2.011445 0.526665 0.089765 0
M  V30 50 H -1.797529 0.433209 2.767664 0
M  V30 51 H -3.842553 0.134435 1.539054 0
M  V30 52 H -3.873756 -0.166920 -0.829743 0
M  V30 53 H -2.210599 0.703264 -3.019084 0
M  V30 54 H -0.763189 -0.626279 -4.375356 0
M  V30 55 H 0.237857 -0.391244 -2.905671 0
M  V30 56 H -0.875500 -2.855387 -3.989189 0
M  V30 57 H 0.023865 -2.684283 -2.431873 0
M  V30 58 H -1.881407 -2.224785 -1.170102 0
M  V30 59 H -2.541913 -3.374484 -2.406141 0
M  V30 60 H -4.254336 0.730256 -3.644269 0
M  V30 61 H -6.975220 -1.885488 -4.024114 0
M  V30 62 H -9.158791 -1.461229 -4.937517 0
M  V30 63 H -9.749178 0.790677 -5.717471 0
M  V30 64 H -5.845389 2.144102 -4.618466 0
M  V30 65 H 0.362948 0.111464 -1.002623 0
M  V30 66 H 6.857569 -1.700550 3.540469 0
M  V30 67 H 5.624945 -3.021947 3.736448 0
M  V30 END ATOM
M  V30 BEGIN BOND
M  V30 1 1 1 2
M  V30 2 1 2 3
M  V30 3 1 2 4
M  V30 4 1 4 5
M  V30 5 1 5 6
M  V30 6 1 6 7
M  V30 7 1 7 8
M  V30 8 2 8 9
M  V30 9 1 9 10
M  V30 10 1 10 11
M  V30 11 2 11 12
M  V30 12 1 11 13
M  V30 13 2 13 14
M  V30 14 1 14 15
M  V30 15 2 15 16
M  V30 16 1 16 17
M  V30 17 1 17 18
M  V30 18 1 18 19
M  V30 19 1 19 20
M  V30 20 1 20 21
M  V30 21 1 21 22
M  V30 22 1 22 23
M  V30 23 2 23 24
M  V30 24 1 23 25
M  V30 25 1 25 26
M  V30 26 2 26 27
M  V30 27 1 27 28
M  V30 28 2 28 29
M  V30 29 1 29 30
M  V30 30 1 30 31
M  V30 31 3 31 32
M  V30 32 2 30 33
M  V30 33 2 17 34
M  V30 34 1 9 35
M  V30 35 1 35 36
M  V30 36 1 36 37
M  V30 37 1 37 4
M  V30 38 2 36 7
M  V30 39 1 34 13
M  V30 40 1 22 18
M  V30 41 1 33 26
M  V30 42 1 1 38
M  V30 43 1 1 39
M  V30 44 1 1 40
M  V30 45 1 3 41
M  V30 46 1 3 42
M  V30 47 1 3 43
M  V30 48 1 4 44 CFG=1
M  V30 49 1 5 45
M  V30 50 1 5 46
M  V30 51 1 6 47
M  V30 52 1 6 48
M  V30 53 1 10 49
M  V30 54 1 14 50
M  V30 55 1 15 51
M  V30 56 1 16 52
M  V30 57 1 18 53 CFG=3
M  V30 58 1 19 54
M  V30 59 1 19 55
M  V30 60 1 20 56
M  V30 61 1 20 57
M  V30 62 1 21 58
M  V30 63 1 21 59
M  V30 64 1 25 60
M  V30 65 1 27 61
M  V30 66 1 28 62
M  V30 67 1 29 63
M  V30 68 1 33 64
M  V30 69 1 34 65
M  V30 70 1 37 66
M  V30 71 1 37 67
M  V30 END BOND
M  V30 END CTAB
M  END
>  <Dataset>  (117) 
ChEMBL_Kinases

>  <Ligand_Instance>  (117) 
nan

>  <PDB_ID>  (117) 
nan

>  <Standardized_SMILES>  (117) 
CN(C)[C@H]1CCc2nc(NC(=O)c3cccc([C@H]4CCCN4C(=O)Nc4cccc(C#N)c4)c3)sc2C1

>  <Name>  (117) 
nan

>  <Pocket>  (117) 
nan

>  <ATP_Site>  (117) 
nan

>  <Peripheral>  (117) 
nan

>  <Num_H_Atoms_ProtBoundConf>  (117) 
nan

>  <Num_Resolved_Atoms>  (117) 
nan

>  <Num_Not_Resolved_Atoms>  (117) 
nan

$$$$
CHEMBL3700924
     RDKit          3D

  0  0  0  0  0  0  0  0  0  0999 V3000
M  V30 BEGIN CTAB
M  V30 COUNTS 70 74 0 0 0
M  V30 BEGIN ATOM
M  V30 1 C 5.928181 1.168955 4.708672 0
M  V30 2 C 4.935939 0.097006 4.311071 0
M  V30 3 C 4.784660 0.192811 2.785413 0
M  V30 4 N 6.079503 -0.035734 2.237317 0
M  V30 5 C 6.156293 0.013023 0.790619 0 CFG=1
M  V30 6 C 5.284084 -1.027329 0.123188 0
M  V30 7 C 5.057098 -0.508605 -1.305169 0
M  V30 8 C 4.075773 0.624125 -1.102491 0
M  V30 9 N 2.859567 0.799766 -1.574650 0
M  V30 10 C 2.157709 1.781744 -1.325881 0
M  V30 11 N 0.796721 1.988038 -1.846979 0
M  V30 12 C -0.064683 1.395001 -0.885154 0
M  V30 13 O 0.570444 0.883811 0.097973 0
M  V30 14 C -1.542858 1.393241 -1.047116 0
M  V30 15 C -2.258325 1.930725 -2.101309 0
M  V30 16 C -3.635136 1.823867 -2.059430 0
M  V30 17 C -4.281651 1.205274 -1.008727 0
M  V30 18 C -3.589585 0.660376 0.056266 0
M  V30 19 C -4.284423 0.002432 1.171591 0 CFG=1
M  V30 20 C -5.016532 0.936086 2.098872 0
M  V30 21 C -6.442165 0.924257 1.645469 0
M  V30 22 C -6.677656 -0.467496 1.131110 0
M  V30 23 N -5.334655 -0.910941 0.798681 0
M  V30 24 C -5.137470 -2.165923 0.153497 0
M  V30 25 O -6.173884 -2.829335 -0.094026 0
M  V30 26 N -3.887228 -2.689890 -0.211528 0
M  V30 27 C -3.564831 -3.910102 -0.849247 0
M  V30 28 C -2.245117 -4.201479 -1.102661 0
M  V30 29 C -1.853980 -5.369148 -1.719484 0
M  V30 30 C -2.775077 -6.315159 -2.118418 0
M  V30 31 C -4.109173 -6.059203 -1.881605 0
M  V30 32 C -5.100990 -7.016762 -2.280104 0
M  V30 33 N -5.913274 -7.791743 -2.585317 0
M  V30 34 C -4.445302 -4.875750 -1.261410 0
M  V30 35 C -2.202934 0.770265 0.010165 0
M  V30 36 S 3.229718 2.731782 -0.255742 0
M  V30 37 C 4.592415 1.565609 -0.300557 0
M  V30 38 C 5.973648 1.399061 0.255005 0
M  V30 39 H 5.402938 2.149017 4.829558 0
M  V30 40 H 6.674444 1.309818 3.898266 0
M  V30 41 H 6.433097 0.926309 5.674075 0
M  V30 42 H 5.259667 -0.913664 4.596451 0
M  V30 43 H 3.961328 0.390993 4.770277 0
M  V30 44 H 4.003014 -0.520622 2.527271 0
M  V30 45 H 4.415090 1.236657 2.608085 0
M  V30 46 H 6.337631 -1.029655 2.491603 0
M  V30 47 H 7.219264 -0.286955 0.565798 0
M  V30 48 H 5.840011 -1.966974 0.078124 0
M  V30 49 H 4.295689 -1.147507 0.617906 0
M  V30 50 H 6.005059 -0.055487 -1.650989 0
M  V30 51 H 4.666823 -1.293959 -1.967584 0
M  V30 52 H 0.418244 2.435527 -2.685790 0
M  V30 53 H -1.649760 2.389432 -2.866477 0
M  V30 54 H -4.132355 2.268781 -2.921414 0
M  V30 55 H -5.361682 1.172834 -1.069497 0
M  V30 56 H -3.499697 -0.522767 1.784472 0
M  V30 57 H -4.997202 0.486332 3.134002 0
M  V30 58 H -4.559232 1.921886 2.208592 0
M  V30 59 H -7.152144 1.116388 2.502390 0
M  V30 60 H -6.611286 1.724197 0.902143 0
M  V30 61 H -7.155409 -1.104115 1.909019 0
M  V30 62 H -7.362592 -0.507025 0.267026 0
M  V30 63 H -3.114727 -2.037613 0.051744 0
M  V30 64 H -1.478063 -3.478763 -0.802819 0
M  V30 65 H -0.793127 -5.508546 -1.875700 0
M  V30 66 H -2.419810 -7.216425 -2.599202 0
M  V30 67 H -5.496847 -4.738957 -1.107386 0
M  V30 68 H -1.687999 0.329521 0.866978 0
M  V30 69 H 6.197603 2.176344 1.009541 0
M  V30 70 H 6.678978 1.548021 -0.585865 0
M  V30 END ATOM
M  V30 BEGIN BOND
M  V30 1 1 1 2
M  V30 2 1 2 3
M  V30 3 1 3 4
M  V30 4 1 4 5
M  V30 5 1 5 6
M  V30 6 1 6 7
M  V30 7 1 7 8
M  V30 8 1 8 9
M  V30 9 2 9 10
M  V30 10 1 10 11
M  V30 11 1 11 12
M  V30 12 2 12 13
M  V30 13 1 12 14
M  V30 14 2 14 15
M  V30 15 1 15 16
M  V30 16 2 16 17
M  V30 17 1 17 18
M  V30 18 1 18 19
M  V30 19 1 19 20
M  V30 20 1 20 21
M  V30 21 1 21 22
M  V30 22 1 22 23
M  V30 23 1 23 24
M  V30 24 2 24 25
M  V30 25 1 24 26
M  V30 26 1 26 27
M  V30 27 2 27 28
M  V30 28 1 28 29
M  V30 29 2 29 30
M  V30 30 1 30 31
M  V30 31 1 31 32
M  V30 32 3 32 33
M  V30 33 2 31 34
M  V30 34 2 18 35
M  V30 35 1 10 36
M  V30 36 1 36 37
M  V30 37 1 37 38
M  V30 38 1 38 5
M  V30 39 2 37 8
M  V30 40 1 35 14
M  V30 41 1 23 19
M  V30 42 1 34 27
M  V30 43 1 1 39
M  V30 44 1 1 40
M  V30 45 1 1 41
M  V30 46 1 2 42
M  V30 47 1 2 43
M  V30 48 1 3 44
M  V30 49 1 3 45
M  V30 50 1 4 46
M  V30 51 1 5 47 CFG=1
M  V30 52 1 6 48
M  V30 53 1 6 49
M  V30 54 1 7 50
M  V30 55 1 7 51
M  V30 56 1 11 52
M  V30 57 1 15 53
M  V30 58 1 16 54
M  V30 59 1 17 55
M  V30 60 1 19 56 CFG=1
M  V30 61 1 20 57
M  V30 62 1 20 58
M  V30 63 1 21 59
M  V30 64 1 21 60
M  V30 65 1 22 61
M  V30 66 1 22 62
M  V30 67 1 26 63
M  V30 68 1 28 64
M  V30 69 1 29 65
M  V30 70 1 30 66
M  V30 71 1 34 67
M  V30 72 1 35 68
M  V30 73 1 38 69
M  V30 74 1 38 70
M  V30 END BOND
M  V30 END CTAB
M  END
>  <Dataset>  (118) 
ChEMBL_Kinases

>  <Ligand_Instance>  (118) 
nan

>  <PDB_ID>  (118) 
nan

>  <Standardized_SMILES>  (118) 
CCCN[C@H]1CCc2nc(NC(=O)c3cccc([C@H]4CCCN4C(=O)Nc4cccc(C#N)c4)c3)sc2C1

>  <Name>  (118) 
nan

>  <Pocket>  (118) 
nan

>  <ATP_Site>  (118) 
nan

>  <Peripheral>  (118) 
nan

>  <Num_H_Atoms_ProtBoundConf>  (118) 
nan

>  <Num_Resolved_Atoms>  (118) 
nan

>  <Num_Not_Resolved_Atoms>  (118) 
nan

$$$$
CHEMBL3700925
     RDKit          3D

  0  0  0  0  0  0  0  0  0  0999 V3000
M  V30 BEGIN CTAB
M  V30 COUNTS 64 69 0 0 0
M  V30 BEGIN ATOM
M  V30 1 C 3.650781 -0.201656 0.737401 0
M  V30 2 C 3.677786 1.298344 0.802097 0
M  V30 3 C 2.747167 2.138242 0.248101 0
M  V30 4 C 1.579786 1.660531 -0.503296 0
M  V30 5 O 0.958924 0.839687 0.244649 0
M  V30 6 N 1.191577 2.037582 -1.839630 0
M  V30 7 C 1.815387 2.972024 -2.787888 0
M  V30 8 C 1.024318 2.678935 -4.044479 0
M  V30 9 C -0.325156 2.170327 -3.579517 0
M  V30 10 C -0.016078 1.385593 -2.360285 0 CFG=2
M  V30 11 C -1.056546 1.504392 -1.293873 0
M  V30 12 C -1.360503 2.736747 -0.746048 0
M  V30 13 C -2.302502 2.788843 0.256971 0
M  V30 14 C -2.950784 1.676070 0.735559 0
M  V30 15 C -2.652956 0.445191 0.194234 0
M  V30 16 C -3.185359 -0.890391 0.548400 0
M  V30 17 O -2.891155 -1.990966 -0.029671 0
M  V30 18 N -4.107826 -1.091278 1.604721 0
M  V30 19 C -4.377814 -2.509131 1.640684 0
M  V30 20 N -3.709139 -3.270551 2.293697 0
M  V30 21 C -3.905723 -4.575166 2.363359 0
M  V30 22 C -4.999394 -5.078902 1.595102 0
M  V30 23 S -5.632528 -3.598255 0.847737 0
M  V30 24 C -5.111049 -6.589781 1.758698 0
M  V30 25 N -3.849706 -7.209197 1.405825 0
M  V30 26 C -3.541783 -7.026841 0.000344 0
M  V30 27 C -2.751782 -6.707476 2.193055 0
M  V30 28 C -3.140471 -5.618371 3.141693 0
M  V30 29 C -1.700462 0.382149 -0.823118 0
M  V30 30 N 3.257422 3.323194 0.608666 0
M  V30 31 N 4.367447 3.212120 1.300450 0
M  V30 32 N 4.665598 1.943059 1.443936 0
M  V30 33 C 5.790316 1.448728 2.135600 0
M  V30 34 N 6.242668 0.202909 2.371955 0
M  V30 35 O 7.324931 0.255348 3.056099 0
M  V30 36 N 7.667542 1.467855 3.319064 0
M  V30 37 C 6.727889 2.251666 2.757957 0
M  V30 38 N 6.830884 3.664332 2.881395 0
M  V30 39 H 2.978580 -0.629006 1.500350 0
M  V30 40 H 4.673185 -0.641594 0.812939 0
M  V30 41 H 3.229474 -0.480063 -0.245728 0
M  V30 42 H 1.654440 3.980385 -2.409730 0
M  V30 43 H 2.877665 2.677542 -2.883658 0
M  V30 44 H 1.590527 1.912817 -4.605315 0
M  V30 45 H 0.955787 3.650571 -4.588193 0
M  V30 46 H -1.051749 2.998995 -3.446698 0
M  V30 47 H -0.717611 1.550326 -4.434718 0
M  V30 48 H 0.169857 0.341097 -2.611041 0
M  V30 49 H -0.887768 3.640150 -1.078778 0
M  V30 50 H -2.617235 3.704440 0.756308 0
M  V30 51 H -3.696373 1.612749 1.510925 0
M  V30 52 H -4.453134 -0.295944 2.175309 0
M  V30 53 H -5.455230 -6.859948 2.750620 0
M  V30 54 H -5.859221 -6.912207 1.009393 0
M  V30 55 H -4.331615 -7.357656 -0.670208 0
M  V30 56 H -2.605897 -7.585014 -0.201619 0
M  V30 57 H -3.297609 -5.961868 -0.233177 0
M  V30 58 H -2.312410 -7.581829 2.712303 0
M  V30 59 H -1.972608 -6.286706 1.526319 0
M  V30 60 H -3.794016 -6.044892 3.931256 0
M  V30 61 H -2.224230 -5.195499 3.570640 0
M  V30 62 H -1.406676 -0.561500 -1.308332 0
M  V30 63 H 6.736319 4.522282 2.304068 0
M  V30 64 H 7.076303 4.091086 3.810839 0
M  V30 END ATOM
M  V30 BEGIN BOND
M  V30 1 1 1 2
M  V30 2 2 2 3
M  V30 3 1 3 4
M  V30 4 2 4 5
M  V30 5 1 4 6
M  V30 6 1 6 7
M  V30 7 1 7 8
M  V30 8 1 8 9
M  V30 9 1 9 10
M  V30 10 1 10 11
M  V30 11 2 11 12
M  V30 12 1 12 13
M  V30 13 2 13 14
M  V30 14 1 14 15
M  V30 15 1 15 16
M  V30 16 2 16 17
M  V30 17 1 16 18
M  V30 18 1 18 19
M  V30 19 2 19 20
M  V30 20 1 20 21
M  V30 21 2 21 22
M  V30 22 1 22 23
M  V30 23 1 22 24
M  V30 24 1 24 25
M  V30 25 1 25 26
M  V30 26 1 25 27
M  V30 27 1 27 28
M  V30 28 2 15 29
M  V30 29 1 3 30
M  V30 30 2 30 31
M  V30 31 1 31 32
M  V30 32 1 32 33
M  V30 33 2 33 34
M  V30 34 1 34 35
M  V30 35 1 35 36
M  V30 36 2 36 37
M  V30 37 1 37 38
M  V30 38 1 32 2
M  V30 39 1 37 33
M  V30 40 1 10 6
M  V30 41 1 29 11
M  V30 42 1 23 19
M  V30 43 1 28 21
M  V30 44 1 1 39
M  V30 45 1 1 40
M  V30 46 1 1 41
M  V30 47 1 7 42
M  V30 48 1 7 43
M  V30 49 1 8 44
M  V30 50 1 8 45
M  V30 51 1 9 46
M  V30 52 1 9 47
M  V30 53 1 10 48 CFG=3
M  V30 54 1 12 49
M  V30 55 1 13 50
M  V30 56 1 14 51
M  V30 57 1 18 52
M  V30 58 1 24 53
M  V30 59 1 24 54
M  V30 60 1 26 55
M  V30 61 1 26 56
M  V30 62 1 26 57
M  V30 63 1 27 58
M  V30 64 1 27 59
M  V30 65 1 28 60
M  V30 66 1 28 61
M  V30 67 1 29 62
M  V30 68 1 38 63
M  V30 69 1 38 64
M  V30 END BOND
M  V30 END CTAB
M  END
>  <Dataset>  (119) 
ChEMBL_Kinases

>  <Ligand_Instance>  (119) 
nan

>  <PDB_ID>  (119) 
nan

>  <Standardized_SMILES>  (119) 
Cc1c(C(=O)N2CCC[C@@H]2c2cccc(C(=O)Nc3nc4c(s3)CN(C)CC4)c2)nnn1-c1nonc1N

>  <Name>  (119) 
nan

>  <Pocket>  (119) 
nan

>  <ATP_Site>  (119) 
nan

>  <Peripheral>  (119) 
nan

>  <Num_H_Atoms_ProtBoundConf>  (119) 
nan

>  <Num_Resolved_Atoms>  (119) 
nan

>  <Num_Not_Resolved_Atoms>  (119) 
nan

$$$$
CHEMBL3700926
     RDKit          3D

  0  0  0  0  0  0  0  0  0  0999 V3000
M  V30 BEGIN CTAB
M  V30 COUNTS 71 74 0 0 0
M  V30 BEGIN ATOM
M  V30 1 C 5.740180 -3.248461 5.423692 0
M  V30 2 C 6.268487 -2.826236 4.069490 0
M  V30 3 C 5.172674 -2.770485 3.029098 0
M  V30 4 N 5.631390 -2.375045 1.736886 0
M  V30 5 C 6.072865 -1.007806 1.628397 0 CFG=1
M  V30 6 C 6.532138 -0.808298 0.208382 0
M  V30 7 C 5.436239 -0.872557 -0.803961 0
M  V30 8 C 4.352000 0.105703 -0.535346 0
M  V30 9 N 3.592961 0.573025 -1.513094 0
M  V30 10 C 2.631718 1.507587 -0.924529 0
M  V30 11 N 1.675650 2.150790 -1.855250 0
M  V30 12 C 0.548563 1.309361 -1.931401 0
M  V30 13 O 0.626358 0.266387 -1.224228 0
M  V30 14 C -0.593311 1.680303 -2.788265 0
M  V30 15 C -0.697042 2.842434 -3.561928 0
M  V30 16 C -1.841412 3.029330 -4.308510 0
M  V30 17 C -2.882938 2.124802 -4.325763 0
M  V30 18 C -2.804887 0.967954 -3.569581 0
M  V30 19 C -3.910748 -0.024551 -3.569648 0 CFG=1
M  V30 20 C -3.501871 -1.215090 -4.438415 0
M  V30 21 N -4.159722 -0.436590 -2.202362 0
M  V30 22 C -5.422048 -0.274772 -1.582926 0
M  V30 23 O -6.319931 0.251325 -2.294770 0
M  V30 24 C -5.750987 -0.661867 -0.217880 0
M  V30 25 C -7.042637 -0.438076 0.209054 0
M  V30 26 C -7.393049 -0.793381 1.498778 0
M  V30 27 C -6.430284 -1.357686 2.302008 0
M  V30 28 O -6.821663 -1.697232 3.579289 0
M  V30 29 C -8.103047 -1.508777 4.094044 0
M  V30 30 C -5.125591 -1.595264 1.903371 0
M  V30 31 O -4.282716 -2.170771 2.837008 0
M  V30 32 C -2.937244 -2.495465 2.653385 0
M  V30 33 C -4.810866 -1.229608 0.613797 0
M  V30 34 C -1.665571 0.785430 -2.828265 0
M  V30 35 S 2.878856 1.623471 0.824128 0
M  V30 36 C 4.319203 0.392487 0.845313 0
M  V30 37 C 5.027407 0.002412 2.017115 0
M  V30 38 H 4.822789 -3.854237 5.260195 0
M  V30 39 H 6.461122 -3.831778 6.014101 0
M  V30 40 H 5.422485 -2.331217 5.961642 0
M  V30 41 H 7.039204 -3.574658 3.794713 0
M  V30 42 H 6.780283 -1.848012 4.135366 0
M  V30 43 H 4.269190 -2.250977 3.399462 0
M  V30 44 H 4.834979 -3.843106 2.914832 0
M  V30 45 H 4.812043 -2.472439 1.083667 0
M  V30 46 H 6.952252 -0.862365 2.286751 0
M  V30 47 H 7.236100 -1.631666 -0.026071 0
M  V30 48 H 7.116309 0.130932 0.166863 0
M  V30 49 H 5.930910 -0.730510 -1.796383 0
M  V30 50 H 5.008978 -1.895415 -0.857193 0
M  V30 51 H 1.772650 3.044185 -2.372344 0
M  V30 52 H 0.143772 3.504786 -3.506444 0
M  V30 53 H -1.863940 3.943657 -4.885204 0
M  V30 54 H -3.772928 2.300241 -4.925316 0
M  V30 55 H -4.838676 0.410658 -3.974037 0
M  V30 56 H -4.386841 -1.858687 -4.605323 0
M  V30 57 H -2.694230 -1.790911 -3.985744 0
M  V30 58 H -3.124141 -0.814605 -5.401785 0
M  V30 59 H -3.404402 -0.868289 -1.632601 0
M  V30 60 H -7.786077 0.004115 -0.429054 0
M  V30 61 H -8.406277 -0.616943 1.830602 0
M  V30 62 H -8.864299 -2.004531 3.424921 0
M  V30 63 H -8.415698 -0.449278 4.194207 0
M  V30 64 H -8.242360 -2.038120 5.076641 0
M  V30 65 H -2.785340 -3.597882 2.553150 0
M  V30 66 H -2.533822 -1.988405 1.760917 0
M  V30 67 H -2.339956 -2.173547 3.541410 0
M  V30 68 H -3.796254 -1.410727 0.292137 0
M  V30 69 H -1.610347 -0.120125 -2.240404 0
M  V30 70 H 5.560347 0.901891 2.429944 0
M  V30 71 H 4.330325 -0.316247 2.788869 0
M  V30 END ATOM
M  V30 BEGIN BOND
M  V30 1 1 1 2
M  V30 2 1 2 3
M  V30 3 1 3 4
M  V30 4 1 4 5
M  V30 5 1 5 6
M  V30 6 1 6 7
M  V30 7 1 7 8
M  V30 8 1 8 9
M  V30 9 2 9 10
M  V30 10 1 10 11
M  V30 11 1 11 12
M  V30 12 2 12 13
M  V30 13 1 12 14
M  V30 14 2 14 15
M  V30 15 1 15 16
M  V30 16 2 16 17
M  V30 17 1 17 18
M  V30 18 1 18 19
M  V30 19 1 19 20
M  V30 20 1 19 21
M  V30 21 1 21 22
M  V30 22 2 22 23
M  V30 23 1 22 24
M  V30 24 2 24 25
M  V30 25 1 25 26
M  V30 26 2 26 27
M  V30 27 1 27 28
M  V30 28 1 28 29
M  V30 29 1 27 30
M  V30 30 1 30 31
M  V30 31 1 31 32
M  V30 32 2 30 33
M  V30 33 2 18 34
M  V30 34 1 10 35
M  V30 35 1 35 36
M  V30 36 1 36 37
M  V30 37 1 37 5
M  V30 38 2 36 8
M  V30 39 1 34 14
M  V30 40 1 33 24
M  V30 41 1 1 38
M  V30 42 1 1 39
M  V30 43 1 1 40
M  V30 44 1 2 41
M  V30 45 1 2 42
M  V30 46 1 3 43
M  V30 47 1 3 44
M  V30 48 1 4 45
M  V30 49 1 5 46 CFG=1
M  V30 50 1 6 47
M  V30 51 1 6 48
M  V30 52 1 7 49
M  V30 53 1 7 50
M  V30 54 1 11 51
M  V30 55 1 15 52
M  V30 56 1 16 53
M  V30 57 1 17 54
M  V30 58 1 19 55 CFG=3
M  V30 59 1 20 56
M  V30 60 1 20 57
M  V30 61 1 20 58
M  V30 62 1 21 59
M  V30 63 1 25 60
M  V30 64 1 26 61
M  V30 65 1 29 62
M  V30 66 1 29 63
M  V30 67 1 29 64
M  V30 68 1 32 65
M  V30 69 1 32 66
M  V30 70 1 32 67
M  V30 71 1 33 68
M  V30 72 1 34 69
M  V30 73 1 37 70
M  V30 74 1 37 71
M  V30 END BOND
M  V30 END CTAB
M  END
>  <Dataset>  (120) 
ChEMBL_Kinases

>  <Ligand_Instance>  (120) 
nan

>  <PDB_ID>  (120) 
nan

>  <Standardized_SMILES>  (120) 
CCCN[C@H]1CCc2nc(NC(=O)c3cccc([C@@H](C)NC(=O)c4ccc(OC)c(OC)c4)c3)sc2C1

>  <Name>  (120) 
nan

>  <Pocket>  (120) 
nan

>  <ATP_Site>  (120) 
nan

>  <Peripheral>  (120) 
nan

>  <Num_H_Atoms_ProtBoundConf>  (120) 
nan

>  <Num_Resolved_Atoms>  (120) 
nan

>  <Num_Not_Resolved_Atoms>  (120) 
nan

$$$$
CHEMBL3700927
     RDKit          3D

  0  0  0  0  0  0  0  0  0  0999 V3000
M  V30 BEGIN CTAB
M  V30 COUNTS 66 70 0 0 0
M  V30 BEGIN ATOM
M  V30 1 C 1.793686 -1.655774 4.553895 0
M  V30 2 O 2.389624 -0.442813 4.131404 0
M  V30 3 C 2.261965 -0.034393 2.826959 0
M  V30 4 C 1.560959 -0.790948 1.917259 0
M  V30 5 C 1.401209 -0.427711 0.599868 0
M  V30 6 C 1.966871 0.757325 0.144273 0
M  V30 7 C 1.970762 1.410730 -1.155343 0
M  V30 8 O 3.039936 1.057986 -1.715332 0
M  V30 9 N 1.107941 2.281336 -1.863944 0
M  V30 10 C 1.499430 2.752462 -3.203697 0
M  V30 11 C 1.337207 4.281466 -3.064936 0
M  V30 12 C 0.289198 4.407755 -1.940214 0
M  V30 13 C -0.133191 2.988723 -1.823870 0 CFG=2
M  V30 14 C -1.021195 2.655761 -0.698171 0
M  V30 15 C -1.656489 3.485092 0.219033 0
M  V30 16 C -2.471454 2.938401 1.186883 0
M  V30 17 C -2.703778 1.584147 1.307534 0
M  V30 18 C -2.074227 0.764280 0.398567 0
M  V30 19 C -2.264057 -0.702115 0.440410 0
M  V30 20 O -1.771783 -1.566253 -0.362971 0
M  V30 21 N -3.050655 -1.330340 1.424515 0
M  V30 22 C -2.963411 -2.793725 1.082624 0
M  V30 23 N -2.244132 -3.620195 1.409380 0
M  V30 24 C -2.248273 -4.902881 1.037544 0
M  V30 25 C -3.204978 -5.282947 0.177467 0
M  V30 26 S -4.114050 -3.746761 -0.094431 0
M  V30 27 C -3.342074 -6.668255 -0.341215 0
M  V30 28 N -2.009584 -7.245932 -0.332485 0
M  V30 29 C -1.138792 -6.555768 -1.259340 0
M  V30 30 C -1.518920 -7.209662 1.020482 0
M  V30 31 C -1.216497 -5.866802 1.568532 0
M  V30 32 C -1.245618 1.272936 -0.591123 0
M  V30 33 C 2.681775 1.530023 1.068539 0
M  V30 34 C 2.834531 1.153539 2.388106 0
M  V30 35 O 3.525254 1.873982 3.338213 0
M  V30 36 C 4.126525 3.087716 2.959591 0
M  V30 37 H 2.151818 -2.517949 3.981971 0
M  V30 38 H 0.706008 -1.566097 4.396846 0
M  V30 39 H 1.974866 -1.841731 5.634338 0
M  V30 40 H 1.085131 -1.718013 2.162934 0
M  V30 41 H 0.883138 -0.921017 -0.204641 0
M  V30 42 H 0.785762 2.347664 -3.919154 0
M  V30 43 H 2.542468 2.573632 -3.446537 0
M  V30 44 H 0.915963 4.667356 -4.015973 0
M  V30 45 H 2.285317 4.764067 -2.801818 0
M  V30 46 H -0.528865 5.104301 -2.256511 0
M  V30 47 H 0.747748 4.743338 -1.008491 0
M  V30 48 H -0.688569 2.743599 -2.785373 0
M  V30 49 H -1.425573 4.525251 0.057430 0
M  V30 50 H -2.939135 3.635498 1.869558 0
M  V30 51 H -3.348625 1.191342 2.079684 0
M  V30 52 H -3.534353 -0.831365 2.166610 0
M  V30 53 H -3.712137 -6.711605 -1.374972 0
M  V30 54 H -4.009267 -7.217285 0.344152 0
M  V30 55 H -1.481923 -5.520604 -1.498412 0
M  V30 56 H -1.199078 -7.096951 -2.230422 0
M  V30 57 H -0.087436 -6.609675 -0.925654 0
M  V30 58 H -2.239206 -7.759435 1.655938 0
M  V30 59 H -0.563385 -7.813237 1.038320 0
M  V30 60 H -0.186945 -5.580603 1.288291 0
M  V30 61 H -1.270832 -5.946512 2.683157 0
M  V30 62 H -0.784927 0.536669 -1.272480 0
M  V30 63 H 3.187140 2.484217 0.869803 0
M  V30 64 H 4.765037 3.007850 2.054420 0
M  V30 65 H 3.363242 3.884582 2.824825 0
M  V30 66 H 4.769684 3.428024 3.795395 0
M  V30 END ATOM
M  V30 BEGIN BOND
M  V30 1 1 1 2
M  V30 2 1 2 3
M  V30 3 2 3 4
M  V30 4 1 4 5
M  V30 5 2 5 6
M  V30 6 1 6 7
M  V30 7 2 7 8
M  V30 8 1 7 9
M  V30 9 1 9 10
M  V30 10 1 10 11
M  V30 11 1 11 12
M  V30 12 1 12 13
M  V30 13 1 13 14
M  V30 14 2 14 15
M  V30 15 1 15 16
M  V30 16 2 16 17
M  V30 17 1 17 18
M  V30 18 1 18 19
M  V30 19 2 19 20
M  V30 20 1 19 21
M  V30 21 1 21 22
M  V30 22 2 22 23
M  V30 23 1 23 24
M  V30 24 2 24 25
M  V30 25 1 25 26
M  V30 26 1 25 27
M  V30 27 1 27 28
M  V30 28 1 28 29
M  V30 29 1 28 30
M  V30 30 1 30 31
M  V30 31 2 18 32
M  V30 32 1 6 33
M  V30 33 2 33 34
M  V30 34 1 34 35
M  V30 35 1 35 36
M  V30 36 1 34 3
M  V30 37 1 13 9
M  V30 38 1 32 14
M  V30 39 1 26 22
M  V30 40 1 31 24
M  V30 41 1 1 37
M  V30 42 1 1 38
M  V30 43 1 1 39
M  V30 44 1 4 40
M  V30 45 1 5 41
M  V30 46 1 10 42
M  V30 47 1 10 43
M  V30 48 1 11 44
M  V30 49 1 11 45
M  V30 50 1 12 46
M  V30 51 1 12 47
M  V30 52 1 13 48 CFG=3
M  V30 53 1 15 49
M  V30 54 1 16 50
M  V30 55 1 17 51
M  V30 56 1 21 52
M  V30 57 1 27 53
M  V30 58 1 27 54
M  V30 59 1 29 55
M  V30 60 1 29 56
M  V30 61 1 29 57
M  V30 62 1 30 58
M  V30 63 1 30 59
M  V30 64 1 31 60
M  V30 65 1 31 61
M  V30 66 1 32 62
M  V30 67 1 33 63
M  V30 68 1 36 64
M  V30 69 1 36 65
M  V30 70 1 36 66
M  V30 END BOND
M  V30 END CTAB
M  END
>  <Dataset>  (121) 
ChEMBL_Kinases

>  <Ligand_Instance>  (121) 
nan

>  <PDB_ID>  (121) 
nan

>  <Standardized_SMILES>  (121) 
COc1ccc(C(=O)N2CCC[C@@H]2c2cccc(C(=O)Nc3nc4c(s3)CN(C)CC4)c2)cc1OC

>  <Name>  (121) 
nan

>  <Pocket>  (121) 
nan

>  <ATP_Site>  (121) 
nan

>  <Peripheral>  (121) 
nan

>  <Num_H_Atoms_ProtBoundConf>  (121) 
nan

>  <Num_Resolved_Atoms>  (121) 
nan

>  <Num_Not_Resolved_Atoms>  (121) 
nan

$$$$
CHEMBL3700928
     RDKit          3D

  0  0  0  0  0  0  0  0  0  0999 V3000
M  V30 BEGIN CTAB
M  V30 COUNTS 67 70 0 0 0
M  V30 BEGIN ATOM
M  V30 1 C 1.632327 -1.974660 2.488212 0
M  V30 2 C 2.601480 -2.670908 3.406461 0
M  V30 3 C 3.825673 -3.182550 2.733176 0
M  V30 4 N 4.653894 -2.287409 2.033087 0
M  V30 5 C 5.424100 -1.308366 2.662939 0 CFG=1
M  V30 6 C 6.417192 -0.715843 1.617483 0
M  V30 7 C 5.721355 -0.496891 0.317954 0
M  V30 8 C 4.490723 0.328756 0.642230 0
M  V30 9 N 3.799933 0.911122 -0.346876 0
M  V30 10 C 2.812282 1.591860 -0.133207 0
M  V30 11 N 2.053984 2.247192 -1.264378 0
M  V30 12 C 1.049342 1.253897 -1.482535 0
M  V30 13 O 1.189374 0.261677 -0.666786 0
M  V30 14 C -0.049058 1.262270 -2.479478 0
M  V30 15 C -0.158492 2.263536 -3.421061 0
M  V30 16 C -1.218854 2.183214 -4.299571 0
M  V30 17 C -2.162107 1.170797 -4.287484 0
M  V30 18 C -1.989005 0.207472 -3.320043 0
M  V30 19 C -2.949076 -0.953591 -3.199001 0 CFG=1
M  V30 20 C -2.140041 -2.214696 -3.469201 0
M  V30 21 N -3.330336 -1.017625 -1.782619 0
M  V30 22 C -4.680430 -0.946046 -1.317192 0
M  V30 23 O -5.563687 -0.827743 -2.228936 0
M  V30 24 C -5.056238 -1.000164 0.087997 0
M  V30 25 C -4.168873 -1.102224 1.140930 0
M  V30 26 C -4.588730 -1.141144 2.449336 0
M  V30 27 C -5.918710 -1.081982 2.793410 0
M  V30 28 O -6.470855 -1.109838 4.049163 0
M  V30 29 C -5.713880 -1.208272 5.245134 0
M  V30 30 C -6.820506 -0.978936 1.733033 0
M  V30 31 Cl -8.548069 -0.902573 2.033876 0
M  V30 32 C -6.390468 -0.939281 0.404015 0
M  V30 33 C -0.944889 0.216101 -2.396670 0
M  V30 34 S 2.561411 1.608412 1.572804 0
M  V30 35 C 4.067580 0.506929 1.910653 0
M  V30 36 C 4.683191 -0.059616 3.102525 0
M  V30 37 H 0.609342 -2.372394 2.543288 0
M  V30 38 H 1.977637 -1.918916 1.438772 0
M  V30 39 H 1.567183 -0.912100 2.847710 0
M  V30 40 H 2.806631 -2.151579 4.334955 0
M  V30 41 H 2.038115 -3.619775 3.720360 0
M  V30 42 H 3.500126 -4.047636 2.056753 0
M  V30 43 H 4.402175 -3.741075 3.542985 0
M  V30 44 H 5.132960 -2.810918 1.266435 0
M  V30 45 H 6.043852 -1.704929 3.468398 0
M  V30 46 H 7.220407 -1.460832 1.490396 0
M  V30 47 H 6.834945 0.198463 2.020454 0
M  V30 48 H 5.413129 -1.414245 -0.196020 0
M  V30 49 H 6.412740 0.025398 -0.352536 0
M  V30 50 H 1.883003 2.966323 -1.924086 0
M  V30 51 H 0.551468 3.059361 -3.458935 0
M  V30 52 H -1.275268 2.998462 -5.039563 0
M  V30 53 H -2.973908 1.139654 -4.986417 0
M  V30 54 H -3.830086 -0.844818 -3.829941 0
M  V30 55 H -1.511197 -2.044683 -4.377750 0
M  V30 56 H -2.771984 -3.122185 -3.555895 0
M  V30 57 H -1.477297 -2.387591 -2.575453 0
M  V30 58 H -2.626604 -1.119825 -1.033012 0
M  V30 59 H -3.116767 -1.153135 0.923019 0
M  V30 60 H -3.905849 -1.220254 3.279243 0
M  V30 61 H -4.873673 -1.921858 5.156512 0
M  V30 62 H -6.416451 -1.536030 6.051265 0
M  V30 63 H -5.300016 -0.205213 5.539319 0
M  V30 64 H -7.137572 -0.861807 -0.395660 0
M  V30 65 H -0.812531 -0.540328 -1.647038 0
M  V30 66 H 5.482326 0.623658 3.524563 0
M  V30 67 H 4.042388 -0.292282 3.943273 0
M  V30 END ATOM
M  V30 BEGIN BOND
M  V30 1 1 1 2
M  V30 2 1 2 3
M  V30 3 1 3 4
M  V30 4 1 4 5
M  V30 5 1 5 6
M  V30 6 1 6 7
M  V30 7 1 7 8
M  V30 8 1 8 9
M  V30 9 2 9 10
M  V30 10 1 10 11
M  V30 11 1 11 12
M  V30 12 2 12 13
M  V30 13 1 12 14
M  V30 14 2 14 15
M  V30 15 1 15 16
M  V30 16 2 16 17
M  V30 17 1 17 18
M  V30 18 1 18 19
M  V30 19 1 19 20
M  V30 20 1 19 21
M  V30 21 1 21 22
M  V30 22 2 22 23
M  V30 23 1 22 24
M  V30 24 2 24 25
M  V30 25 1 25 26
M  V30 26 2 26 27
M  V30 27 1 27 28
M  V30 28 1 28 29
M  V30 29 1 27 30
M  V30 30 1 30 31
M  V30 31 2 30 32
M  V30 32 2 18 33
M  V30 33 1 10 34
M  V30 34 1 34 35
M  V30 35 1 35 36
M  V30 36 1 36 5
M  V30 37 2 35 8
M  V30 38 1 33 14
M  V30 39 1 32 24
M  V30 40 1 1 37
M  V30 41 1 1 38
M  V30 42 1 1 39
M  V30 43 1 2 40
M  V30 44 1 2 41
M  V30 45 1 3 42
M  V30 46 1 3 43
M  V30 47 1 4 44
M  V30 48 1 5 45 CFG=1
M  V30 49 1 6 46
M  V30 50 1 6 47
M  V30 51 1 7 48
M  V30 52 1 7 49
M  V30 53 1 11 50
M  V30 54 1 15 51
M  V30 55 1 16 52
M  V30 56 1 17 53
M  V30 57 1 19 54 CFG=3
M  V30 58 1 20 55
M  V30 59 1 20 56
M  V30 60 1 20 57
M  V30 61 1 21 58
M  V30 62 1 25 59
M  V30 63 1 26 60
M  V30 64 1 29 61
M  V30 65 1 29 62
M  V30 66 1 29 63
M  V30 67 1 32 64
M  V30 68 1 33 65
M  V30 69 1 36 66
M  V30 70 1 36 67
M  V30 END BOND
M  V30 END CTAB
M  END
>  <Dataset>  (122) 
ChEMBL_Kinases

>  <Ligand_Instance>  (122) 
nan

>  <PDB_ID>  (122) 
nan

>  <Standardized_SMILES>  (122) 
CCCN[C@H]1CCc2nc(NC(=O)c3cccc([C@@H](C)NC(=O)c4ccc(OC)c(Cl)c4)c3)sc2C1

>  <Name>  (122) 
nan

>  <Pocket>  (122) 
nan

>  <ATP_Site>  (122) 
nan

>  <Peripheral>  (122) 
nan

>  <Num_H_Atoms_ProtBoundConf>  (122) 
nan

>  <Num_Resolved_Atoms>  (122) 
nan

>  <Num_Not_Resolved_Atoms>  (122) 
nan

$$$$
CHEMBL3700929
     RDKit          3D

  0  0  0  0  0  0  0  0  0  0999 V3000
M  V30 BEGIN CTAB
M  V30 COUNTS 65 69 0 0 0
M  V30 BEGIN ATOM
M  V30 1 C 1.878534 -1.507530 5.213812 0
M  V30 2 O 1.797233 -0.169563 4.860120 0
M  V30 3 C 2.124472 0.444742 3.689080 0
M  V30 4 C 2.684322 -0.192226 2.624560 0
M  V30 5 C 2.950715 0.454532 1.412180 0
M  V30 6 C 2.585256 1.765238 1.428206 0
M  V30 7 C 2.297692 2.848362 0.394642 0
M  V30 8 O 2.131302 3.739475 -0.411127 0
M  V30 9 N 0.867569 2.364060 -0.036272 0
M  V30 10 C 0.275286 1.019374 0.279644 0
M  V30 11 C -0.891493 1.366104 1.168237 0
M  V30 12 C -1.251825 2.747137 0.761916 0
M  V30 13 C -0.428994 2.912870 -0.533270 0 CFG=2
M  V30 14 C -0.916068 2.106247 -1.631966 0
M  V30 15 C -0.342681 1.905446 -2.868531 0
M  V30 16 C -0.841964 1.016023 -3.803668 0
M  V30 17 C -1.993566 0.204446 -3.585126 0
M  V30 18 C -2.407693 0.524220 -2.339601 0
M  V30 19 C -3.051458 -0.704202 -1.627542 0
M  V30 20 O -3.117672 -1.831696 -2.238307 0
M  V30 21 N -3.654348 -1.048840 -0.338809 0
M  V30 22 C -3.611054 -2.567847 -0.659501 0
M  V30 23 N -2.435207 -2.714290 -0.219837 0
M  V30 24 C -1.606811 -3.720292 -0.123910 0
M  V30 25 C -2.238779 -4.886724 -0.647111 0
M  V30 26 S -3.828041 -4.196556 -1.110918 0
M  V30 27 C -1.181392 -5.954484 -0.571139 0
M  V30 28 N -0.010395 -5.494692 -1.328154 0
M  V30 29 C -0.534576 -4.891591 -2.560097 0
M  V30 30 C 0.664606 -4.418669 -0.618860 0
M  V30 31 C -0.203375 -3.822016 0.424630 0
M  V30 32 C -2.086218 1.345903 -1.306586 0
M  V30 33 C 2.034371 2.431974 2.501998 0
M  V30 34 C 1.759783 1.816039 3.734829 0
M  V30 35 C 1.138228 2.387328 4.937816 0
M  V30 36 H 1.258083 -2.119163 4.440309 0
M  V30 37 H 1.325455 -1.600628 6.225214 0
M  V30 38 H 2.826319 -1.982730 5.302000 0
M  V30 39 H 3.003138 -1.208838 2.570824 0
M  V30 40 H 3.344063 0.247460 0.474161 0
M  V30 41 H 0.964810 0.343881 0.708621 0
M  V30 42 H -0.091146 0.569398 -0.706347 0
M  V30 43 H -1.669619 0.611257 1.162417 0
M  V30 44 H -0.545146 1.344862 2.240894 0
M  V30 45 H -2.289070 2.964510 0.683413 0
M  V30 46 H -0.802032 3.434228 1.494712 0
M  V30 47 H -0.324561 3.942734 -0.809642 0
M  V30 48 H 0.583530 2.471968 -3.064276 0
M  V30 49 H -0.338141 0.897766 -4.787551 0
M  V30 50 H -2.430146 -0.489486 -4.239271 0
M  V30 51 H -3.844268 -0.236230 0.174590 0
M  V30 52 H -1.547530 -6.836905 -1.140220 0
M  V30 53 H -1.002721 -6.190498 0.461328 0
M  V30 54 H -0.037525 -3.879456 -2.718686 0
M  V30 55 H -1.600736 -4.654268 -2.502837 0
M  V30 56 H -0.230552 -5.452093 -3.466868 0
M  V30 57 H 1.609028 -4.797125 -0.209128 0
M  V30 58 H 0.937354 -3.632042 -1.352965 0
M  V30 59 H -0.210153 -4.301100 1.412366 0
M  V30 60 H 0.170395 -2.762778 0.608476 0
M  V30 61 H -2.727016 1.386367 -0.448161 0
M  V30 62 H 1.712468 3.508434 2.614405 0
M  V30 63 H 1.814008 2.469977 5.763344 0
M  V30 64 H 0.634645 3.369154 4.673685 0
M  V30 65 H 0.270239 1.695237 5.168648 0
M  V30 END ATOM
M  V30 BEGIN BOND
M  V30 1 1 1 2
M  V30 2 1 2 3
M  V30 3 2 3 4
M  V30 4 1 4 5
M  V30 5 2 5 6
M  V30 6 1 6 7
M  V30 7 2 7 8
M  V30 8 1 7 9
M  V30 9 1 9 10
M  V30 10 1 10 11
M  V30 11 1 11 12
M  V30 12 1 12 13
M  V30 13 1 13 14
M  V30 14 2 14 15
M  V30 15 1 15 16
M  V30 16 2 16 17
M  V30 17 1 17 18
M  V30 18 1 18 19
M  V30 19 2 19 20
M  V30 20 1 19 21
M  V30 21 1 21 22
M  V30 22 2 22 23
M  V30 23 1 23 24
M  V30 24 2 24 25
M  V30 25 1 25 26
M  V30 26 1 25 27
M  V30 27 1 27 28
M  V30 28 1 28 29
M  V30 29 1 28 30
M  V30 30 1 30 31
M  V30 31 2 18 32
M  V30 32 1 6 33
M  V30 33 2 33 34
M  V30 34 1 34 35
M  V30 35 1 34 3
M  V30 36 1 13 9
M  V30 37 1 32 14
M  V30 38 1 26 22
M  V30 39 1 31 24
M  V30 40 1 1 36
M  V30 41 1 1 37
M  V30 42 1 1 38
M  V30 43 1 4 39
M  V30 44 1 5 40
M  V30 45 1 10 41
M  V30 46 1 10 42
M  V30 47 1 11 43
M  V30 48 1 11 44
M  V30 49 1 12 45
M  V30 50 1 12 46
M  V30 51 1 13 47 CFG=3
M  V30 52 1 15 48
M  V30 53 1 16 49
M  V30 54 1 17 50
M  V30 55 1 21 51
M  V30 56 1 27 52
M  V30 57 1 27 53
M  V30 58 1 29 54
M  V30 59 1 29 55
M  V30 60 1 29 56
M  V30 61 1 30 57
M  V30 62 1 30 58
M  V30 63 1 31 59
M  V30 64 1 31 60
M  V30 65 1 32 61
M  V30 66 1 33 62
M  V30 67 1 35 63
M  V30 68 1 35 64
M  V30 69 1 35 65
M  V30 END BOND
M  V30 END CTAB
M  END
>  <Dataset>  (123) 
ChEMBL_Kinases

>  <Ligand_Instance>  (123) 
nan

>  <PDB_ID>  (123) 
nan

>  <Standardized_SMILES>  (123) 
COc1ccc(C(=O)N2CCC[C@@H]2c2cccc(C(=O)Nc3nc4c(s3)CN(C)CC4)c2)cc1C

>  <Name>  (123) 
nan

>  <Pocket>  (123) 
nan

>  <ATP_Site>  (123) 
nan

>  <Peripheral>  (123) 
nan

>  <Num_H_Atoms_ProtBoundConf>  (123) 
nan

>  <Num_Resolved_Atoms>  (123) 
nan

>  <Num_Not_Resolved_Atoms>  (123) 
nan

$$$$
CHEMBL3700930
     RDKit          3D

  0  0  0  0  0  0  0  0  0  0999 V3000
M  V30 BEGIN CTAB
M  V30 COUNTS 70 73 0 0 0
M  V30 BEGIN ATOM
M  V30 1 C 3.435524 -2.245943 1.684946 0
M  V30 2 C 4.878916 -1.923529 2.078681 0
M  V30 3 C 4.981846 -0.535623 2.615754 0
M  V30 4 N 4.606220 0.482854 1.734203 0
M  V30 5 C 5.466114 0.763910 0.652385 0 CFG=1
M  V30 6 C 5.474967 -0.232285 -0.456314 0
M  V30 7 C 5.435863 0.504135 -1.831295 0
M  V30 8 C 4.081491 1.118677 -1.870735 0
M  V30 9 N 3.119085 0.928032 -2.736246 0
M  V30 10 C 2.032311 1.537576 -2.609847 0
M  V30 11 N 0.697120 1.716709 -3.222139 0
M  V30 12 C -0.194801 0.769197 -2.685998 0
M  V30 13 O 0.314552 -0.012786 -1.826006 0
M  V30 14 C -1.597479 0.686194 -3.083138 0
M  V30 15 C -2.178739 1.565880 -4.000316 0
M  V30 16 C -3.528275 1.447037 -4.342805 0
M  V30 17 C -4.239788 0.428197 -3.733121 0
M  V30 18 C -3.700937 -0.459531 -2.823849 0
M  V30 19 C -4.580077 -1.526762 -2.220825 0 CFG=1
M  V30 20 C -4.213289 -2.836108 -2.877916 0
M  V30 21 N -4.286780 -1.609843 -0.806053 0
M  V30 22 C -5.125357 -1.369744 0.305868 0
M  V30 23 O -6.329473 -1.026262 0.172465 0
M  V30 24 C -4.638819 -1.506741 1.664506 0
M  V30 25 C -5.480455 -1.229254 2.722289 0
M  V30 26 C -5.089797 -1.336505 4.040783 0
M  V30 27 C -3.812092 -1.735002 4.371659 0
M  V30 28 O -3.269010 -1.890586 5.637185 0
M  V30 29 C -4.069454 -1.625106 6.768915 0
M  V30 30 C -2.933991 -2.024327 3.322996 0
M  V30 31 C -1.516655 -2.468550 3.566425 0
M  V30 32 C -3.368595 -1.902729 2.019084 0
M  V30 33 C -2.369725 -0.303284 -2.518090 0
M  V30 34 S 2.195065 2.551478 -1.150577 0
M  V30 35 C 3.880965 2.039525 -0.766224 0
M  V30 36 C 5.063805 2.157016 0.143899 0
M  V30 37 H 2.883705 -2.472761 2.635087 0
M  V30 38 H 3.428842 -3.099793 0.978344 0
M  V30 39 H 3.009847 -1.341862 1.245718 0
M  V30 40 H 5.576101 -2.100835 1.262358 0
M  V30 41 H 5.143094 -2.643535 2.921669 0
M  V30 42 H 6.080735 -0.349191 2.876602 0
M  V30 43 H 4.423950 -0.466730 3.610350 0
M  V30 44 H 3.593661 0.589076 1.522198 0
M  V30 45 H 6.536125 0.933578 0.987698 0
M  V30 46 H 6.423680 -0.838008 -0.469601 0
M  V30 47 H 4.597969 -0.892856 -0.491642 0
M  V30 48 H 6.241066 1.235033 -1.829288 0
M  V30 49 H 5.562355 -0.307033 -2.559096 0
M  V30 50 H 0.402346 2.395593 -3.924128 0
M  V30 51 H -1.569018 2.341413 -4.441801 0
M  V30 52 H -3.959899 2.133975 -5.051950 0
M  V30 53 H -5.289739 0.357906 -4.018097 0
M  V30 54 H -5.646566 -1.289320 -2.411110 0
M  V30 55 H -3.160190 -3.107381 -2.625965 0
M  V30 56 H -4.334930 -2.750392 -3.998181 0
M  V30 57 H -4.939461 -3.610935 -2.571855 0
M  V30 58 H -3.294452 -1.896950 -0.670529 0
M  V30 59 H -6.513062 -0.905605 2.609235 0
M  V30 60 H -5.735556 -1.121817 4.879288 0
M  V30 61 H -4.430789 -0.591608 6.778399 0
M  V30 62 H -3.486488 -1.808566 7.712235 0
M  V30 63 H -4.907223 -2.356420 6.811533 0
M  V30 64 H -1.272074 -2.386113 4.642464 0
M  V30 65 H -1.420099 -3.561958 3.314211 0
M  V30 66 H -0.806431 -1.895258 2.953362 0
M  V30 67 H -2.669470 -2.131870 1.240622 0
M  V30 68 H -1.910149 -0.975797 -1.814793 0
M  V30 69 H 5.851820 2.642602 -0.425427 0
M  V30 70 H 4.731813 2.743186 1.000040 0
M  V30 END ATOM
M  V30 BEGIN BOND
M  V30 1 1 1 2
M  V30 2 1 2 3
M  V30 3 1 3 4
M  V30 4 1 4 5
M  V30 5 1 5 6
M  V30 6 1 6 7
M  V30 7 1 7 8
M  V30 8 1 8 9
M  V30 9 2 9 10
M  V30 10 1 10 11
M  V30 11 1 11 12
M  V30 12 2 12 13
M  V30 13 1 12 14
M  V30 14 2 14 15
M  V30 15 1 15 16
M  V30 16 2 16 17
M  V30 17 1 17 18
M  V30 18 1 18 19
M  V30 19 1 19 20
M  V30 20 1 19 21
M  V30 21 1 21 22
M  V30 22 2 22 23
M  V30 23 1 22 24
M  V30 24 2 24 25
M  V30 25 1 25 26
M  V30 26 2 26 27
M  V30 27 1 27 28
M  V30 28 1 28 29
M  V30 29 1 27 30
M  V30 30 1 30 31
M  V30 31 2 30 32
M  V30 32 2 18 33
M  V30 33 1 10 34
M  V30 34 1 34 35
M  V30 35 1 35 36
M  V30 36 1 36 5
M  V30 37 2 35 8
M  V30 38 1 33 14
M  V30 39 1 32 24
M  V30 40 1 1 37
M  V30 41 1 1 38
M  V30 42 1 1 39
M  V30 43 1 2 40
M  V30 44 1 2 41
M  V30 45 1 3 42
M  V30 46 1 3 43
M  V30 47 1 4 44
M  V30 48 1 5 45 CFG=1
M  V30 49 1 6 46
M  V30 50 1 6 47
M  V30 51 1 7 48
M  V30 52 1 7 49
M  V30 53 1 11 50
M  V30 54 1 15 51
M  V30 55 1 16 52
M  V30 56 1 17 53
M  V30 57 1 19 54 CFG=1
M  V30 58 1 20 55
M  V30 59 1 20 56
M  V30 60 1 20 57
M  V30 61 1 21 58
M  V30 62 1 25 59
M  V30 63 1 26 60
M  V30 64 1 29 61
M  V30 65 1 29 62
M  V30 66 1 29 63
M  V30 67 1 31 64
M  V30 68 1 31 65
M  V30 69 1 31 66
M  V30 70 1 32 67
M  V30 71 1 33 68
M  V30 72 1 36 69
M  V30 73 1 36 70
M  V30 END BOND
M  V30 END CTAB
M  END
>  <Dataset>  (124) 
ChEMBL_Kinases

>  <Ligand_Instance>  (124) 
nan

>  <PDB_ID>  (124) 
nan

>  <Standardized_SMILES>  (124) 
CCCN[C@H]1CCc2nc(NC(=O)c3cccc([C@@H](C)NC(=O)c4ccc(OC)c(C)c4)c3)sc2C1

>  <Name>  (124) 
nan

>  <Pocket>  (124) 
nan

>  <ATP_Site>  (124) 
nan

>  <Peripheral>  (124) 
nan

>  <Num_H_Atoms_ProtBoundConf>  (124) 
nan

>  <Num_Resolved_Atoms>  (124) 
nan

>  <Num_Not_Resolved_Atoms>  (124) 
nan

$$$$
CHEMBL3700931
     RDKit          3D

  0  0  0  0  0  0  0  0  0  0999 V3000
M  V30 BEGIN CTAB
M  V30 COUNTS 62 66 0 0 0
M  V30 BEGIN ATOM
M  V30 1 C 5.887123 -0.407635 4.483694 0
M  V30 2 O 4.907348 0.462339 5.023503 0
M  V30 3 C 3.923807 1.089237 4.303735 0
M  V30 4 C 3.921950 0.825380 2.942225 0
M  V30 5 C 2.947274 1.435221 2.170105 0
M  V30 6 C 1.973572 2.295014 2.684719 0
M  V30 7 C 0.967152 2.921282 1.862111 0
M  V30 8 O 1.649698 3.640463 1.065334 0
M  V30 9 N -0.458905 2.793613 1.898648 0
M  V30 10 C -1.205168 1.962530 2.823158 0
M  V30 11 C -2.621691 2.340332 2.463206 0
M  V30 12 C -2.598117 3.555736 1.610424 0
M  V30 13 C -1.249403 3.545418 0.945234 0 CFG=2
M  V30 14 C -1.253240 2.854248 -0.385111 0
M  V30 15 C -1.077575 3.638751 -1.521030 0
M  V30 16 C -1.064031 3.092338 -2.786393 0
M  V30 17 C -1.233092 1.714797 -2.900559 0
M  V30 18 C -1.410418 0.915993 -1.765906 0
M  V30 19 C -1.577391 -0.511968 -2.008941 0
M  V30 20 O -1.549527 -0.930799 -3.193908 0
M  V30 21 N -1.761135 -1.340863 -0.893995 0
M  V30 22 C -1.946793 -2.824611 -0.967257 0
M  V30 23 N -1.010180 -3.590325 -0.923436 0
M  V30 24 C -1.114818 -4.901836 -0.983139 0
M  V30 25 C -2.426047 -5.434732 -1.107395 0
M  V30 26 S -3.415415 -3.869479 -1.124029 0
M  V30 27 C -2.619034 -6.897913 -1.184521 0
M  V30 28 N -1.685477 -7.527615 -2.079972 0
M  V30 29 C -2.170653 -7.651905 -3.441401 0
M  V30 30 C -0.395856 -6.896334 -2.120472 0
M  V30 31 C -0.110821 -6.009310 -0.948315 0
M  V30 32 C -1.416874 1.499308 -0.535708 0
M  V30 33 C 2.022654 2.523224 4.052149 0
M  V30 34 C 2.980822 1.933013 4.858585 0
M  V30 35 Cl 3.018698 2.239427 6.583347 0
M  V30 36 H 5.442587 -1.108139 3.726156 0
M  V30 37 H 6.361358 -0.974725 5.297805 0
M  V30 38 H 6.683001 0.157951 3.949418 0
M  V30 39 H 4.603344 0.187482 2.392994 0
M  V30 40 H 2.880309 1.275757 1.083436 0
M  V30 41 H -0.966989 2.176152 3.883274 0
M  V30 42 H -1.020131 0.881745 2.666187 0
M  V30 43 H -3.183812 1.529594 1.951508 0
M  V30 44 H -3.139014 2.588909 3.430384 0
M  V30 45 H -3.435405 3.624641 0.892348 0
M  V30 46 H -2.609713 4.495311 2.237815 0
M  V30 47 H -0.836021 4.577255 0.830894 0
M  V30 48 H -0.947420 4.720705 -1.388345 0
M  V30 49 H -0.923648 3.745568 -3.645299 0
M  V30 50 H -1.207918 1.381568 -3.935143 0
M  V30 51 H -1.798380 -1.096833 0.095379 0
M  V30 52 H -3.638286 -7.070791 -1.586926 0
M  V30 53 H -2.568315 -7.338838 -0.189979 0
M  V30 54 H -1.610787 -6.944109 -4.106721 0
M  V30 55 H -3.231862 -7.309889 -3.440207 0
M  V30 56 H -2.019237 -8.654130 -3.874651 0
M  V30 57 H 0.353179 -7.719662 -2.205468 0
M  V30 58 H -0.299267 -6.291967 -3.046811 0
M  V30 59 H -0.198645 -6.603912 -0.024177 0
M  V30 60 H 0.924846 -5.615093 -1.096738 0
M  V30 61 H -1.549147 0.900224 0.330012 0
M  V30 62 H 1.305756 3.180647 4.557870 0
M  V30 END ATOM
M  V30 BEGIN BOND
M  V30 1 1 1 2
M  V30 2 1 2 3
M  V30 3 2 3 4
M  V30 4 1 4 5
M  V30 5 2 5 6
M  V30 6 1 6 7
M  V30 7 2 7 8
M  V30 8 1 7 9
M  V30 9 1 9 10
M  V30 10 1 10 11
M  V30 11 1 11 12
M  V30 12 1 12 13
M  V30 13 1 13 14
M  V30 14 2 14 15
M  V30 15 1 15 16
M  V30 16 2 16 17
M  V30 17 1 17 18
M  V30 18 1 18 19
M  V30 19 2 19 20
M  V30 20 1 19 21
M  V30 21 1 21 22
M  V30 22 2 22 23
M  V30 23 1 23 24
M  V30 24 2 24 25
M  V30 25 1 25 26
M  V30 26 1 25 27
M  V30 27 1 27 28
M  V30 28 1 28 29
M  V30 29 1 28 30
M  V30 30 1 30 31
M  V30 31 2 18 32
M  V30 32 1 6 33
M  V30 33 2 33 34
M  V30 34 1 34 35
M  V30 35 1 34 3
M  V30 36 1 13 9
M  V30 37 1 32 14
M  V30 38 1 26 22
M  V30 39 1 31 24
M  V30 40 1 1 36
M  V30 41 1 1 37
M  V30 42 1 1 38
M  V30 43 1 4 39
M  V30 44 1 5 40
M  V30 45 1 10 41
M  V30 46 1 10 42
M  V30 47 1 11 43
M  V30 48 1 11 44
M  V30 49 1 12 45
M  V30 50 1 12 46
M  V30 51 1 13 47 CFG=3
M  V30 52 1 15 48
M  V30 53 1 16 49
M  V30 54 1 17 50
M  V30 55 1 21 51
M  V30 56 1 27 52
M  V30 57 1 27 53
M  V30 58 1 29 54
M  V30 59 1 29 55
M  V30 60 1 29 56
M  V30 61 1 30 57
M  V30 62 1 30 58
M  V30 63 1 31 59
M  V30 64 1 31 60
M  V30 65 1 32 61
M  V30 66 1 33 62
M  V30 END BOND
M  V30 END CTAB
M  END
>  <Dataset>  (125) 
ChEMBL_Kinases

>  <Ligand_Instance>  (125) 
nan

>  <PDB_ID>  (125) 
nan

>  <Standardized_SMILES>  (125) 
COc1ccc(C(=O)N2CCC[C@@H]2c2cccc(C(=O)Nc3nc4c(s3)CN(C)CC4)c2)cc1Cl

>  <Name>  (125) 
nan

>  <Pocket>  (125) 
nan

>  <ATP_Site>  (125) 
nan

>  <Peripheral>  (125) 
nan

>  <Num_H_Atoms_ProtBoundConf>  (125) 
nan

>  <Num_Resolved_Atoms>  (125) 
nan

>  <Num_Not_Resolved_Atoms>  (125) 
nan

$$$$
CHEMBL3700923
     RDKit          3D

  0  0  0  0  0  0  0  0  0  0999 V3000
M  V30 BEGIN CTAB
M  V30 COUNTS 71 77 0 0 0
M  V30 BEGIN ATOM
M  V30 1 C 2.976215 -6.449728 4.065688 0
M  V30 2 N 2.697359 -7.074093 2.816322 0
M  V30 3 C 1.364757 -6.862221 2.367634 0
M  V30 4 C 1.236388 -6.390537 0.939104 0
M  V30 5 C 2.170039 -5.278519 0.646935 0
M  V30 6 N 2.542248 -4.186410 0.223529 0
M  V30 7 C 3.006659 -3.264835 -0.095406 0
M  V30 8 N 3.135297 -1.941711 -0.687705 0
M  V30 9 C 1.881824 -1.522800 -1.180033 0
M  V30 10 O 0.877522 -2.280865 -1.057465 0
M  V30 11 C 1.886292 -0.184802 -1.811881 0
M  V30 12 C 2.952500 0.641876 -1.981909 0
M  V30 13 C 2.806897 1.867451 -2.595474 0
M  V30 14 C 1.589043 2.315241 -3.063453 0
M  V30 15 C 0.484910 1.480462 -2.897338 0
M  V30 16 C -0.823397 1.954628 -3.400607 0 CFG=1
M  V30 17 C -1.249044 1.056894 -4.542675 0
M  V30 18 C -2.278165 0.112050 -4.025501 0
M  V30 19 C -2.859111 0.745604 -2.809126 0
M  V30 20 N -1.904027 1.763684 -2.435023 0
M  V30 21 C -1.821376 2.623008 -1.301553 0
M  V30 22 O -0.978900 3.514857 -0.974356 0
M  V30 23 C -2.826093 2.589734 -0.222521 0
M  V30 24 N -4.086633 2.850397 -0.604655 0
M  V30 25 N -4.848253 2.783508 0.465731 0
M  V30 26 N -4.090861 2.487865 1.499940 0
M  V30 27 C -4.537772 2.318563 2.834429 0
M  V30 28 N -3.979006 2.018658 4.011184 0
M  V30 29 O -4.834098 1.975180 4.963976 0
M  V30 30 N -6.008681 2.241667 4.484251 0
M  V30 31 C -5.868593 2.461845 3.160582 0
M  V30 32 N -7.021286 2.779096 2.387344 0
M  V30 33 C -2.818958 2.351938 1.151424 0
M  V30 34 C -1.576267 2.041152 1.801805 0
M  V30 35 C -1.062561 2.594471 2.964678 0
M  V30 36 C 0.159962 2.169409 3.473909 0
M  V30 37 C 0.921316 1.185466 2.858210 0
M  V30 38 C 0.439069 0.616055 1.701031 0
M  V30 39 C -0.775583 1.064396 1.229116 0
M  V30 40 C 0.661583 0.268875 -2.283871 0
M  V30 41 S 4.469850 -4.164044 0.704030 0
M  V30 42 C 3.471229 -5.619875 1.140457 0
M  V30 43 C 3.727646 -6.948912 1.838851 0
M  V30 44 H 2.636435 -5.381600 3.961113 0
M  V30 45 H 4.055400 -6.403679 4.263989 0
M  V30 46 H 2.440702 -6.935103 4.907107 0
M  V30 47 H 0.744814 -7.776441 2.448778 0
M  V30 48 H 0.881986 -6.103123 3.043952 0
M  V30 49 H 1.340497 -7.227541 0.218818 0
M  V30 50 H 0.167790 -6.050483 0.850821 0
M  V30 51 H 4.054257 -1.506379 -0.675944 0
M  V30 52 H 3.899611 0.281263 -1.612089 0
M  V30 53 H 3.683416 2.478234 -2.703197 0
M  V30 54 H 1.523023 3.291457 -3.541478 0
M  V30 55 H -0.766008 3.017815 -3.724307 0
M  V30 56 H -1.663208 1.660343 -5.398816 0
M  V30 57 H -0.399752 0.503234 -4.982408 0
M  V30 58 H -3.096967 -0.083098 -4.782374 0
M  V30 59 H -1.839559 -0.899517 -3.841954 0
M  V30 60 H -3.877501 1.143555 -2.994019 0
M  V30 61 H -2.972275 -0.016464 -1.983077 0
M  V30 62 H -7.858594 2.155738 2.391603 0
M  V30 63 H -7.285121 3.556246 1.743362 0
M  V30 64 H -1.647332 3.360209 3.435570 0
M  V30 65 H 0.473291 2.671448 4.397313 0
M  V30 66 H 1.852991 0.935371 3.343251 0
M  V30 67 H 1.017119 -0.141931 1.219197 0
M  V30 68 H -1.103601 0.578123 0.313714 0
M  V30 69 H -0.219634 -0.348692 -2.172946 0
M  V30 70 H 3.694020 -7.702683 1.048116 0
M  V30 71 H 4.691529 -6.890412 2.335898 0
M  V30 END ATOM
M  V30 BEGIN BOND
M  V30 1 1 1 2
M  V30 2 1 2 3
M  V30 3 1 3 4
M  V30 4 1 4 5
M  V30 5 1 5 6
M  V30 6 2 6 7
M  V30 7 1 7 8
M  V30 8 1 8 9
M  V30 9 2 9 10
M  V30 10 1 9 11
M  V30 11 2 11 12
M  V30 12 1 12 13
M  V30 13 2 13 14
M  V30 14 1 14 15
M  V30 15 1 15 16
M  V30 16 1 16 17
M  V30 17 1 17 18
M  V30 18 1 18 19
M  V30 19 1 19 20
M  V30 20 1 20 21
M  V30 21 2 21 22
M  V30 22 1 21 23
M  V30 23 1 23 24
M  V30 24 2 24 25
M  V30 25 1 25 26
M  V30 26 1 26 27
M  V30 27 2 27 28
M  V30 28 1 28 29
M  V30 29 1 29 30
M  V30 30 2 30 31
M  V30 31 1 31 32
M  V30 32 1 26 33
M  V30 33 1 33 34
M  V30 34 2 34 35
M  V30 35 1 35 36
M  V30 36 2 36 37
M  V30 37 1 37 38
M  V30 38 2 38 39
M  V30 39 2 15 40
M  V30 40 1 7 41
M  V30 41 1 41 42
M  V30 42 1 42 43
M  V30 43 1 43 2
M  V30 44 2 42 5
M  V30 45 1 40 11
M  V30 46 1 20 16
M  V30 47 2 33 23
M  V30 48 1 39 34
M  V30 49 1 31 27
M  V30 50 1 1 44
M  V30 51 1 1 45
M  V30 52 1 1 46
M  V30 53 1 3 47
M  V30 54 1 3 48
M  V30 55 1 4 49
M  V30 56 1 4 50
M  V30 57 1 8 51
M  V30 58 1 12 52
M  V30 59 1 13 53
M  V30 60 1 14 54
M  V30 61 1 16 55 CFG=3
M  V30 62 1 17 56
M  V30 63 1 17 57
M  V30 64 1 18 58
M  V30 65 1 18 59
M  V30 66 1 19 60
M  V30 67 1 19 61
M  V30 68 1 32 62
M  V30 69 1 32 63
M  V30 70 1 35 64
M  V30 71 1 36 65
M  V30 72 1 37 66
M  V30 73 1 38 67
M  V30 74 1 39 68
M  V30 75 1 40 69
M  V30 76 1 43 70
M  V30 77 1 43 71
M  V30 END BOND
M  V30 END CTAB
M  END
>  <Dataset>  (126) 
ChEMBL_Kinases

>  <Ligand_Instance>  (126) 
nan

>  <PDB_ID>  (126) 
nan

>  <Standardized_SMILES>  (126) 
CN1CCc2nc(NC(=O)c3cccc([C@H]4CCCN4C(=O)c4nnn(-c5nonc5N)c4-c4ccccc4)c3)sc2C1

>  <Name>  (126) 
nan

>  <Pocket>  (126) 
nan

>  <ATP_Site>  (126) 
nan

>  <Peripheral>  (126) 
nan

>  <Num_H_Atoms_ProtBoundConf>  (126) 
nan

>  <Num_Resolved_Atoms>  (126) 
nan

>  <Num_Not_Resolved_Atoms>  (126) 
nan

$$$$
CHEMBL3700980
     RDKit          3D

  0  0  0  0  0  0  0  0  0  0999 V3000
M  V30 BEGIN CTAB
M  V30 COUNTS 76 82 0 0 0
M  V30 BEGIN ATOM
M  V30 1 N -3.467564 -2.839976 8.662740 0
M  V30 2 C -3.100901 -2.708276 7.556749 0
M  V30 3 C -2.631545 -2.534669 6.211808 0
M  V30 4 C -1.435203 -3.086311 5.832740 0
M  V30 5 C -0.995325 -2.915837 4.543753 0
M  V30 6 C -1.757258 -2.198984 3.654163 0
M  V30 7 C -2.986206 -1.610100 3.973350 0
M  V30 8 C -3.370248 -1.820760 5.294602 0
M  V30 9 C -4.682000 -1.119956 5.447722 0
M  V30 10 C -4.577469 -0.086566 4.333008 0
M  V30 11 N -3.960100 -0.834662 3.242198 0
M  V30 12 C -4.052165 -0.991654 1.844567 0
M  V30 13 O -3.271254 -1.809974 1.289642 0
M  V30 14 N -4.930121 -0.335108 0.940660 0
M  V30 15 C -6.011404 0.668225 1.008879 0
M  V30 16 C -7.185126 -0.035676 0.290152 0
M  V30 17 C -6.442199 -1.079743 -0.586026 0
M  V30 18 C -5.069945 -0.464459 -0.489225 0 CFG=2
M  V30 19 C -3.988492 -1.223642 -1.122137 0
M  V30 20 C -4.432089 -2.351840 -1.826031 0
M  V30 21 C -3.603166 -3.203192 -2.526860 0
M  V30 22 C -2.245357 -2.953579 -2.554215 0
M  V30 23 C -1.776434 -1.850367 -1.871395 0
M  V30 24 C -0.385690 -1.435282 -1.804375 0
M  V30 25 O 0.169330 -0.484053 -1.201965 0
M  V30 26 N 0.543796 -2.215793 -2.530381 0
M  V30 27 C 1.983320 -1.833446 -2.490777 0
M  V30 28 N 3.034700 -1.894741 -2.080901 0
M  V30 29 C 4.165012 -1.317973 -2.355327 0
M  V30 30 C 4.035657 -0.420961 -3.395471 0
M  V30 31 S 2.365788 -0.517649 -3.829853 0
M  V30 32 C 5.256721 0.340527 -3.851840 0
M  V30 33 C 6.256948 0.387911 -2.730752 0 CFG=1
M  V30 34 N 5.759449 1.160421 -1.642186 0
M  V30 35 C 6.748709 1.234712 -0.548484 0
M  V30 36 C 6.128861 1.991465 0.589536 0
M  V30 37 O 5.741880 3.281125 0.207650 0
M  V30 38 C 4.754520 3.126726 -0.787485 0
M  V30 39 C 5.493664 2.524511 -1.996061 0
M  V30 40 C 6.554816 -1.037481 -2.318526 0
M  V30 41 C 5.395811 -1.662677 -1.577710 0
M  V30 42 C -2.635202 -1.022732 -1.183226 0
M  V30 43 H -0.817894 -3.655614 6.517292 0
M  V30 44 H -0.054730 -3.338482 4.216457 0
M  V30 45 H -1.373105 -2.087289 2.642063 0
M  V30 46 H -4.777979 -0.614918 6.436764 0
M  V30 47 H -5.511583 -1.813388 5.329734 0
M  V30 48 H -3.938202 0.760417 4.640491 0
M  V30 49 H -5.583907 0.264691 4.127402 0
M  V30 50 H -5.641048 1.537019 0.409495 0
M  V30 51 H -6.279311 0.958056 2.015185 0
M  V30 52 H -7.856186 -0.500661 0.998625 0
M  V30 53 H -7.654833 0.731724 -0.356108 0
M  V30 54 H -6.481611 -2.074113 -0.156744 0
M  V30 55 H -6.829898 -0.959765 -1.606543 0
M  V30 56 H -5.084460 0.536252 -0.998297 0
M  V30 57 H -5.483960 -2.647320 -1.883446 0
M  V30 58 H -3.949313 -4.064751 -3.065915 0
M  V30 59 H -1.555334 -3.572326 -3.074747 0
M  V30 60 H 0.383389 -3.043326 -3.108578 0
M  V30 61 H 5.030784 1.280998 -4.338071 0
M  V30 62 H 5.742464 -0.295539 -4.657556 0
M  V30 63 H 7.216389 0.829962 -3.078880 0
M  V30 64 H 7.093175 0.269101 -0.200252 0
M  V30 65 H 7.566523 1.866432 -0.989044 0
M  V30 66 H 6.891099 2.118216 1.378349 0
M  V30 67 H 5.282185 1.397078 1.005778 0
M  V30 68 H 4.277991 4.069287 -1.058379 0
M  V30 69 H 4.044695 2.382421 -0.351141 0
M  V30 70 H 6.484742 3.050602 -2.029929 0
M  V30 71 H 4.946758 2.698253 -2.920095 0
M  V30 72 H 7.502410 -1.136341 -1.798331 0
M  V30 73 H 6.673008 -1.622262 -3.279441 0
M  V30 74 H 5.300978 -1.240589 -0.546182 0
M  V30 75 H 5.597775 -2.757585 -1.529782 0
M  V30 76 H -2.324929 -0.123569 -0.625433 0
M  V30 END ATOM
M  V30 BEGIN BOND
M  V30 1 3 1 2
M  V30 2 1 2 3
M  V30 3 2 3 4
M  V30 4 1 4 5
M  V30 5 2 5 6
M  V30 6 1 6 7
M  V30 7 2 7 8
M  V30 8 1 8 9
M  V30 9 1 9 10
M  V30 10 1 10 11
M  V30 11 1 11 12
M  V30 12 2 12 13
M  V30 13 1 12 14
M  V30 14 1 14 15
M  V30 15 1 15 16
M  V30 16 1 16 17
M  V30 17 1 17 18
M  V30 18 1 18 19
M  V30 19 2 19 20
M  V30 20 1 20 21
M  V30 21 2 21 22
M  V30 22 1 22 23
M  V30 23 1 23 24
M  V30 24 2 24 25
M  V30 25 1 24 26
M  V30 26 1 26 27
M  V30 27 2 27 28
M  V30 28 1 28 29
M  V30 29 2 29 30
M  V30 30 1 30 31
M  V30 31 1 30 32
M  V30 32 1 32 33
M  V30 33 1 33 34
M  V30 34 1 34 35
M  V30 35 1 35 36
M  V30 36 1 36 37
M  V30 37 1 37 38
M  V30 38 1 38 39
M  V30 39 1 33 40
M  V30 40 1 40 41
M  V30 41 2 23 42
M  V30 42 1 8 3
M  V30 43 1 18 14
M  V30 44 1 42 19
M  V30 45 1 11 7
M  V30 46 1 31 27
M  V30 47 1 39 34
M  V30 48 1 41 29
M  V30 49 1 4 43
M  V30 50 1 5 44
M  V30 51 1 6 45
M  V30 52 1 9 46
M  V30 53 1 9 47
M  V30 54 1 10 48
M  V30 55 1 10 49
M  V30 56 1 15 50
M  V30 57 1 15 51
M  V30 58 1 16 52
M  V30 59 1 16 53
M  V30 60 1 17 54
M  V30 61 1 17 55
M  V30 62 1 18 56 CFG=3
M  V30 63 1 20 57
M  V30 64 1 21 58
M  V30 65 1 22 59
M  V30 66 1 26 60
M  V30 67 1 32 61
M  V30 68 1 32 62
M  V30 69 1 33 63 CFG=3
M  V30 70 1 35 64
M  V30 71 1 35 65
M  V30 72 1 36 66
M  V30 73 1 36 67
M  V30 74 1 38 68
M  V30 75 1 38 69
M  V30 76 1 39 70
M  V30 77 1 39 71
M  V30 78 1 40 72
M  V30 79 1 40 73
M  V30 80 1 41 74
M  V30 81 1 41 75
M  V30 82 1 42 76
M  V30 END BOND
M  V30 END CTAB
M  END
>  <Dataset>  (127) 
ChEMBL_Kinases

>  <Ligand_Instance>  (127) 
nan

>  <PDB_ID>  (127) 
nan

>  <Standardized_SMILES>  (127) 
N#Cc1cccc2c1CCN2C(=O)N1CCC[C@@H]1c1cccc(C(=O)Nc2nc3c(s2)C[C@@H](N2CCOCC2)CC3)c1

>  <Name>  (127) 
nan

>  <Pocket>  (127) 
nan

>  <ATP_Site>  (127) 
nan

>  <Peripheral>  (127) 
nan

>  <Num_H_Atoms_ProtBoundConf>  (127) 
nan

>  <Num_Resolved_Atoms>  (127) 
nan

>  <Num_Not_Resolved_Atoms>  (127) 
nan

$$$$
CHEMBL3700979
     RDKit          3D

  0  0  0  0  0  0  0  0  0  0999 V3000
M  V30 BEGIN CTAB
M  V30 COUNTS 65 69 0 0 0
M  V30 BEGIN ATOM
M  V30 1 C 3.552517 -0.063019 4.430000 0
M  V30 2 N 4.672512 0.687388 3.903427 0
M  V30 3 C 5.624839 -0.103012 3.190788 0
M  V30 4 C 5.991173 0.469582 1.841892 0
M  V30 5 C 4.793343 0.905237 1.096610 0
M  V30 6 C 4.507754 0.632718 -0.213422 0
M  V30 7 C 3.345391 1.105306 -0.786890 0
M  V30 8 C 2.462204 1.857026 -0.041359 0
M  V30 9 N 1.231754 2.382312 -0.573475 0
M  V30 10 C 0.159916 1.484357 -0.406226 0
M  V30 11 O 0.424232 0.392655 0.163536 0
M  V30 12 C -1.192839 1.766435 -0.853759 0
M  V30 13 C -1.488910 2.960807 -1.476069 0
M  V30 14 C -2.775946 3.220809 -1.898045 0
M  V30 15 C -3.776850 2.295406 -1.704239 0
M  V30 16 C -3.542178 1.085860 -1.089417 0
M  V30 17 C -4.441773 -0.048525 -0.777047 0 CFG=1
M  V30 18 C -5.640305 -0.167171 -1.663743 0
M  V30 19 C -5.189669 -0.981416 -2.872820 0
M  V30 20 C -3.693474 -1.111544 -2.589101 0
M  V30 21 N -3.706167 -1.278985 -1.147333 0
M  V30 22 C -3.100994 -2.411333 -0.533854 0
M  V30 23 O -2.614120 -3.137638 -1.448077 0
M  V30 24 N -3.047730 -2.685656 0.851954 0
M  V30 25 C -2.345893 -3.930729 1.046719 0
M  V30 26 C -0.997995 -3.701603 1.194855 0
M  V30 27 C -0.135868 -4.781978 1.395248 0
M  V30 28 C -0.644152 -6.063349 1.442256 0
M  V30 29 C -1.990018 -6.251166 1.290805 0
M  V30 30 C -2.573969 -7.554887 1.330306 0
M  V30 31 N -3.044594 -8.621825 1.353338 0
M  V30 32 C -2.864242 -5.204014 1.091777 0
M  V30 33 C -2.216941 0.873828 -0.680631 0
M  V30 34 C 2.726272 2.149694 1.292377 0
M  V30 35 C 3.889468 1.667548 1.838470 0
M  V30 36 C 4.290200 1.914019 3.267603 0
M  V30 37 H 3.445477 -1.038490 3.899192 0
M  V30 38 H 2.614575 0.512696 4.431987 0
M  V30 39 H 3.817455 -0.300920 5.481341 0
M  V30 40 H 5.153924 -1.102478 2.978778 0
M  V30 41 H 6.525544 -0.328755 3.767288 0
M  V30 42 H 6.647942 1.352470 1.965212 0
M  V30 43 H 6.577339 -0.302981 1.298467 0
M  V30 44 H 5.231505 0.037849 -0.760694 0
M  V30 45 H 3.113417 0.893238 -1.823007 0
M  V30 46 H 1.110088 3.297036 -1.027446 0
M  V30 47 H -0.762660 3.738097 -1.665628 0
M  V30 48 H -3.067279 4.139659 -2.391610 0
M  V30 49 H -4.802310 2.434362 -2.006905 0
M  V30 50 H -4.668576 -0.123665 0.302380 0
M  V30 51 H -5.987102 0.832045 -1.953998 0
M  V30 52 H -6.406763 -0.731344 -1.075862 0
M  V30 53 H -5.410441 -0.503613 -3.831814 0
M  V30 54 H -5.590718 -2.029438 -2.786750 0
M  V30 55 H -3.235193 -0.129764 -2.867747 0
M  V30 56 H -3.277195 -1.950843 -3.142696 0
M  V30 57 H -3.507722 -1.965792 1.458025 0
M  V30 58 H -0.462665 -2.769724 1.181179 0
M  V30 59 H 0.954312 -4.726629 1.526322 0
M  V30 60 H -0.052538 -6.971991 1.594215 0
M  V30 61 H -3.937394 -5.240184 0.961237 0
M  V30 62 H -1.907102 -0.056843 -0.177208 0
M  V30 63 H 2.053610 2.737926 1.907487 0
M  V30 64 H 3.384561 2.296522 3.797635 0
M  V30 65 H 5.117898 2.640611 3.298954 0
M  V30 END ATOM
M  V30 BEGIN BOND
M  V30 1 1 1 2
M  V30 2 1 2 3
M  V30 3 1 3 4
M  V30 4 1 4 5
M  V30 5 2 5 6
M  V30 6 1 6 7
M  V30 7 2 7 8
M  V30 8 1 8 9
M  V30 9 1 9 10
M  V30 10 2 10 11
M  V30 11 1 10 12
M  V30 12 2 12 13
M  V30 13 1 13 14
M  V30 14 2 14 15
M  V30 15 1 15 16
M  V30 16 1 16 17
M  V30 17 1 17 18
M  V30 18 1 18 19
M  V30 19 1 19 20
M  V30 20 1 20 21
M  V30 21 1 21 22
M  V30 22 2 22 23
M  V30 23 1 22 24
M  V30 24 1 24 25
M  V30 25 2 25 26
M  V30 26 1 26 27
M  V30 27 2 27 28
M  V30 28 1 28 29
M  V30 29 1 29 30
M  V30 30 3 30 31
M  V30 31 2 29 32
M  V30 32 2 16 33
M  V30 33 1 8 34
M  V30 34 2 34 35
M  V30 35 1 35 36
M  V30 36 1 36 2
M  V30 37 1 35 5
M  V30 38 1 33 12
M  V30 39 1 21 17
M  V30 40 1 32 25
M  V30 41 1 1 37
M  V30 42 1 1 38
M  V30 43 1 1 39
M  V30 44 1 3 40
M  V30 45 1 3 41
M  V30 46 1 4 42
M  V30 47 1 4 43
M  V30 48 1 6 44
M  V30 49 1 7 45
M  V30 50 1 9 46
M  V30 51 1 13 47
M  V30 52 1 14 48
M  V30 53 1 15 49
M  V30 54 1 17 50 CFG=1
M  V30 55 1 18 51
M  V30 56 1 18 52
M  V30 57 1 19 53
M  V30 58 1 19 54
M  V30 59 1 20 55
M  V30 60 1 20 56
M  V30 61 1 24 57
M  V30 62 1 26 58
M  V30 63 1 27 59
M  V30 64 1 28 60
M  V30 65 1 32 61
M  V30 66 1 33 62
M  V30 67 1 34 63
M  V30 68 1 36 64
M  V30 69 1 36 65
M  V30 END BOND
M  V30 END CTAB
M  END
>  <Dataset>  (128) 
ChEMBL_Kinases

>  <Ligand_Instance>  (128) 
nan

>  <PDB_ID>  (128) 
nan

>  <Standardized_SMILES>  (128) 
CN1CCc2ccc(NC(=O)c3cccc([C@H]4CCCN4C(=O)Nc4cccc(C#N)c4)c3)cc2C1

>  <Name>  (128) 
nan

>  <Pocket>  (128) 
nan

>  <ATP_Site>  (128) 
nan

>  <Peripheral>  (128) 
nan

>  <Num_H_Atoms_ProtBoundConf>  (128) 
nan

>  <Num_Resolved_Atoms>  (128) 
nan

>  <Num_Not_Resolved_Atoms>  (128) 
nan

$$$$
CHEMBL3700978
     RDKit          3D

  0  0  0  0  0  0  0  0  0  0999 V3000
M  V30 BEGIN CTAB
M  V30 COUNTS 70 75 0 0 0
M  V30 BEGIN ATOM
M  V30 1 C 2.726649 1.168528 6.511677 0
M  V30 2 N 3.348572 1.564950 5.284676 0
M  V30 3 C 3.518050 3.000616 5.330450 0
M  V30 4 C 4.601074 0.877544 5.086952 0 CFG=1
M  V30 5 C 4.289375 -0.620917 5.048031 0
M  V30 6 C 3.008780 -0.861034 4.329830 0
M  V30 7 C 3.155808 -0.269015 2.948814 0
M  V30 8 N 2.387132 -0.560103 1.890107 0
M  V30 9 C 2.491445 -0.107623 0.818340 0
M  V30 10 N 1.602976 -0.467413 -0.331069 0
M  V30 11 C 0.498832 0.394182 -0.371940 0
M  V30 12 O 0.429916 1.284673 0.510149 0
M  V30 13 C -0.568135 0.325222 -1.364026 0
M  V30 14 C -1.586888 1.252899 -1.281673 0
M  V30 15 C -2.642523 1.271521 -2.169834 0
M  V30 16 C -2.725903 0.346210 -3.196940 0
M  V30 17 C -1.699945 -0.574089 -3.265698 0
M  V30 18 C -1.684859 -1.615296 -4.326358 0 CFG=1
M  V30 19 C -0.594025 -1.333597 -5.331122 0
M  V30 20 C -0.136613 -2.695525 -5.825086 0
M  V30 21 C -0.274810 -3.561432 -4.586786 0
M  V30 22 N -1.357636 -2.913354 -3.827984 0
M  V30 23 C -1.970951 -3.565918 -2.727110 0
M  V30 24 O -1.517041 -4.690310 -2.482428 0
M  V30 25 C -3.052331 -2.902228 -1.981809 0
M  V30 26 C -4.282416 -2.700787 -2.615777 0
M  V30 27 C -5.306903 -2.079108 -1.931692 0
M  V30 28 C -5.159591 -1.640249 -0.619552 0
M  V30 29 N -6.162103 -1.028290 0.059078 0
M  V30 30 C -5.986688 -0.612841 1.334754 0
M  V30 31 O -6.896087 -0.051989 1.966481 0
M  V30 32 C -4.765631 -0.818513 1.948413 0
M  V30 33 C -3.685660 -1.439366 1.318571 0
M  V30 34 C -3.940200 -1.839378 0.009043 0
M  V30 35 C -2.924250 -2.460706 -0.681761 0
M  V30 36 C -0.627920 -0.598750 -2.369879 0
M  V30 37 S 3.911746 1.053029 0.941923 0
M  V30 38 C 4.141193 0.630509 2.756657 0
M  V30 39 C 5.143738 1.164185 3.688781 0
M  V30 40 H 1.612525 1.177798 6.469149 0
M  V30 41 H 2.988736 1.916070 7.318508 0
M  V30 42 H 3.026253 0.199867 6.915704 0
M  V30 43 H 4.521637 3.316921 5.694841 0
M  V30 44 H 2.803713 3.491967 6.048525 0
M  V30 45 H 3.274125 3.485267 4.351483 0
M  V30 46 H 5.336169 1.098698 5.874452 0
M  V30 47 H 5.095502 -1.123674 4.458816 0
M  V30 48 H 4.343758 -1.091186 6.046173 0
M  V30 49 H 2.101953 -0.510922 4.821007 0
M  V30 50 H 2.892229 -1.983898 4.269423 0
M  V30 51 H 1.702528 -1.206204 -1.029207 0
M  V30 52 H -1.603249 2.022847 -0.500163 0
M  V30 53 H -3.463207 1.995641 -2.128717 0
M  V30 54 H -3.534092 0.330799 -3.906961 0
M  V30 55 H -2.698557 -1.705334 -4.808367 0
M  V30 56 H -0.926777 -0.680313 -6.163591 0
M  V30 57 H 0.267903 -0.914040 -4.759357 0
M  V30 58 H 0.927253 -2.642443 -6.138427 0
M  V30 59 H -0.710249 -3.070055 -6.672346 0
M  V30 60 H -0.542458 -4.587505 -4.900953 0
M  V30 61 H 0.676154 -3.509616 -4.028921 0
M  V30 62 H -4.464877 -3.021430 -3.645041 0
M  V30 63 H -6.267779 -1.912143 -2.402187 0
M  V30 64 H -7.083260 -0.874385 -0.407765 0
M  V30 65 H -4.656738 -0.470411 2.982831 0
M  V30 66 H -2.735675 -1.595188 1.804890 0
M  V30 67 H -1.958096 -2.619656 -0.186173 0
M  V30 68 H 0.167068 -1.332255 -2.444144 0
M  V30 69 H 6.111728 0.624029 3.642433 0
M  V30 70 H 5.371372 2.230197 3.548388 0
M  V30 END ATOM
M  V30 BEGIN BOND
M  V30 1 1 1 2
M  V30 2 1 2 3
M  V30 3 1 2 4
M  V30 4 1 4 5
M  V30 5 1 5 6
M  V30 6 1 6 7
M  V30 7 1 7 8
M  V30 8 2 8 9
M  V30 9 1 9 10
M  V30 10 1 10 11
M  V30 11 2 11 12
M  V30 12 1 11 13
M  V30 13 2 13 14
M  V30 14 1 14 15
M  V30 15 2 15 16
M  V30 16 1 16 17
M  V30 17 1 17 18
M  V30 18 1 18 19
M  V30 19 1 19 20
M  V30 20 1 20 21
M  V30 21 1 21 22
M  V30 22 1 22 23
M  V30 23 2 23 24
M  V30 24 1 23 25
M  V30 25 2 25 26
M  V30 26 1 26 27
M  V30 27 2 27 28
M  V30 28 1 28 29
M  V30 29 1 29 30
M  V30 30 2 30 31
M  V30 31 1 30 32
M  V30 32 2 32 33
M  V30 33 1 33 34
M  V30 34 2 34 35
M  V30 35 2 17 36
M  V30 36 1 9 37
M  V30 37 1 37 38
M  V30 38 1 38 39
M  V30 39 1 39 4
M  V30 40 2 38 7
M  V30 41 1 36 13
M  V30 42 1 22 18
M  V30 43 1 35 25
M  V30 44 1 34 28
M  V30 45 1 1 40
M  V30 46 1 1 41
M  V30 47 1 1 42
M  V30 48 1 3 43
M  V30 49 1 3 44
M  V30 50 1 3 45
M  V30 51 1 4 46 CFG=1
M  V30 52 1 5 47
M  V30 53 1 5 48
M  V30 54 1 6 49
M  V30 55 1 6 50
M  V30 56 1 10 51
M  V30 57 1 14 52
M  V30 58 1 15 53
M  V30 59 1 16 54
M  V30 60 1 18 55 CFG=3
M  V30 61 1 19 56
M  V30 62 1 19 57
M  V30 63 1 20 58
M  V30 64 1 20 59
M  V30 65 1 21 60
M  V30 66 1 21 61
M  V30 67 1 26 62
M  V30 68 1 27 63
M  V30 69 1 29 64
M  V30 70 1 32 65
M  V30 71 1 33 66
M  V30 72 1 35 67
M  V30 73 1 36 68
M  V30 74 1 39 69
M  V30 75 1 39 70
M  V30 END BOND
M  V30 END CTAB
M  END
>  <Dataset>  (129) 
ChEMBL_Kinases

>  <Ligand_Instance>  (129) 
nan

>  <PDB_ID>  (129) 
nan

>  <Standardized_SMILES>  (129) 
CN(C)[C@H]1CCc2nc(NC(=O)c3cccc([C@H]4CCCN4C(=O)c4ccc5[nH]c(=O)ccc5c4)c3)sc2C1

>  <Name>  (129) 
nan

>  <Pocket>  (129) 
nan

>  <ATP_Site>  (129) 
nan

>  <Peripheral>  (129) 
nan

>  <Num_H_Atoms_ProtBoundConf>  (129) 
nan

>  <Num_Resolved_Atoms>  (129) 
nan

>  <Num_Not_Resolved_Atoms>  (129) 
nan

$$$$
CHEMBL3700977
     RDKit          3D

  0  0  0  0  0  0  0  0  0  0999 V3000
M  V30 BEGIN CTAB
M  V30 COUNTS 71 76 0 0 0
M  V30 BEGIN ATOM
M  V30 1 C 5.139730 -1.483341 7.632563 0
M  V30 2 N 5.580282 -0.211108 7.158895 0
M  V30 3 C 5.747263 0.772384 8.173631 0
M  V30 4 C 4.772096 0.181871 6.034460 0 CFG=1
M  V30 5 C 3.340189 0.247040 6.488452 0
M  V30 6 C 2.692925 1.484123 6.005550 0
M  V30 7 C 2.946389 1.667676 4.553572 0
M  V30 8 N 2.092604 1.825856 3.534009 0
M  V30 9 C 2.451694 1.976392 2.390055 0
M  V30 10 N 1.385008 2.130708 1.302903 0
M  V30 11 C 1.180802 0.817143 0.853896 0
M  V30 12 O 1.894442 -0.034837 1.442576 0
M  V30 13 C 0.195944 0.548967 -0.220075 0
M  V30 14 C -0.640599 1.484382 -0.804062 0
M  V30 15 C -1.503582 1.042801 -1.811263 0
M  V30 16 C -1.498038 -0.282477 -2.187336 0
M  V30 17 C -0.661623 -1.222094 -1.605229 0
M  V30 18 C -0.825918 -2.580672 -2.166828 0 CFG=1
M  V30 19 C -0.206645 -3.676020 -1.366783 0
M  V30 20 C -1.319465 -4.204754 -0.483092 0
M  V30 21 C -2.497173 -3.332468 -0.873095 0
M  V30 22 N -2.251468 -2.906855 -2.229112 0
M  V30 23 C -3.343151 -2.928197 -3.129041 0
M  V30 24 O -4.281927 -3.357479 -2.375190 0
M  V30 25 C -3.740724 -2.659968 -4.482738 0
M  V30 26 C -3.189906 -3.250404 -5.598930 0
M  V30 27 C -3.674324 -2.895175 -6.841765 0
M  V30 28 C -4.688066 -1.964767 -6.911236 0
M  V30 29 C -5.264445 -1.352398 -5.818325 0
M  V30 30 C -6.329069 -0.386889 -6.055881 0
M  V30 31 C -7.405725 -0.114112 -5.223892 0
M  V30 32 N -8.100078 0.832165 -5.859615 0
M  V30 33 N -7.549294 1.159366 -6.995371 0
M  V30 34 C -6.429126 0.424170 -7.174103 0
M  V30 35 C -4.770060 -1.717682 -4.584080 0
M  V30 36 C 0.184745 -0.775852 -0.613179 0
M  V30 37 S 4.201021 1.944607 2.365920 0
M  V30 38 C 4.304124 1.682571 4.242004 0
M  V30 39 C 5.152575 1.492413 5.442727 0
M  V30 40 H 4.544986 -1.999453 6.856901 0
M  V30 41 H 4.439045 -1.347905 8.502163 0
M  V30 42 H 6.006772 -2.071891 7.990226 0
M  V30 43 H 5.153931 1.684625 8.027872 0
M  V30 44 H 5.419440 0.291582 9.138736 0
M  V30 45 H 6.830985 1.010828 8.364161 0
M  V30 46 H 4.879702 -0.577088 5.210945 0
M  V30 47 H 2.793099 -0.617625 6.003614 0
M  V30 48 H 3.249734 0.097342 7.588173 0
M  V30 49 H 2.994400 2.353331 6.626695 0
M  V30 50 H 1.590085 1.371119 6.190911 0
M  V30 51 H 0.898311 2.952226 0.940570 0
M  V30 52 H -0.547962 2.491976 -0.418849 0
M  V30 53 H -2.136876 1.810260 -2.235824 0
M  V30 54 H -2.206254 -0.492235 -2.969376 0
M  V30 55 H -0.417357 -2.585117 -3.200002 0
M  V30 56 H 0.049886 -4.512888 -2.078631 0
M  V30 57 H 0.719614 -3.448441 -0.847455 0
M  V30 58 H -1.061853 -4.059780 0.581342 0
M  V30 59 H -1.526633 -5.275918 -0.640800 0
M  V30 60 H -3.391552 -3.931751 -0.712347 0
M  V30 61 H -2.516538 -2.477236 -0.167431 0
M  V30 62 H -2.398980 -3.970438 -5.473347 0
M  V30 63 H -3.271037 -3.334633 -7.755796 0
M  V30 64 H -5.041307 -1.709593 -7.896891 0
M  V30 65 H -7.601357 -0.598256 -4.258036 0
M  V30 66 H -7.893757 1.881424 -7.695320 0
M  V30 67 H -5.751172 0.459096 -8.013826 0
M  V30 68 H -5.229433 -1.229059 -3.716588 0
M  V30 69 H 0.809031 -1.539994 -0.194578 0
M  V30 70 H 6.229882 1.531282 5.200639 0
M  V30 71 H 4.929010 2.337696 6.110757 0
M  V30 END ATOM
M  V30 BEGIN BOND
M  V30 1 1 1 2
M  V30 2 1 2 3
M  V30 3 1 2 4
M  V30 4 1 4 5
M  V30 5 1 5 6
M  V30 6 1 6 7
M  V30 7 1 7 8
M  V30 8 2 8 9
M  V30 9 1 9 10
M  V30 10 1 10 11
M  V30 11 2 11 12
M  V30 12 1 11 13
M  V30 13 2 13 14
M  V30 14 1 14 15
M  V30 15 2 15 16
M  V30 16 1 16 17
M  V30 17 1 17 18
M  V30 18 1 18 19
M  V30 19 1 19 20
M  V30 20 1 20 21
M  V30 21 1 21 22
M  V30 22 1 22 23
M  V30 23 2 23 24
M  V30 24 1 23 25
M  V30 25 2 25 26
M  V30 26 1 26 27
M  V30 27 2 27 28
M  V30 28 1 28 29
M  V30 29 1 29 30
M  V30 30 1 30 31
M  V30 31 2 31 32
M  V30 32 1 32 33
M  V30 33 1 33 34
M  V30 34 2 29 35
M  V30 35 2 17 36
M  V30 36 1 9 37
M  V30 37 1 37 38
M  V30 38 1 38 39
M  V30 39 1 39 4
M  V30 40 2 38 7
M  V30 41 1 36 13
M  V30 42 1 22 18
M  V30 43 1 35 25
M  V30 44 2 34 30
M  V30 45 1 1 40
M  V30 46 1 1 41
M  V30 47 1 1 42
M  V30 48 1 3 43
M  V30 49 1 3 44
M  V30 50 1 3 45
M  V30 51 1 4 46 CFG=3
M  V30 52 1 5 47
M  V30 53 1 5 48
M  V30 54 1 6 49
M  V30 55 1 6 50
M  V30 56 1 10 51
M  V30 57 1 14 52
M  V30 58 1 15 53
M  V30 59 1 16 54
M  V30 60 1 18 55 CFG=3
M  V30 61 1 19 56
M  V30 62 1 19 57
M  V30 63 1 20 58
M  V30 64 1 20 59
M  V30 65 1 21 60
M  V30 66 1 21 61
M  V30 67 1 26 62
M  V30 68 1 27 63
M  V30 69 1 28 64
M  V30 70 1 31 65
M  V30 71 1 33 66
M  V30 72 1 34 67
M  V30 73 1 35 68
M  V30 74 1 36 69
M  V30 75 1 39 70
M  V30 76 1 39 71
M  V30 END BOND
M  V30 END CTAB
M  END
>  <Dataset>  (130) 
ChEMBL_Kinases

>  <Ligand_Instance>  (130) 
nan

>  <PDB_ID>  (130) 
nan

>  <Standardized_SMILES>  (130) 
CN(C)[C@H]1CCc2nc(NC(=O)c3cccc([C@H]4CCCN4C(=O)c4cccc(-c5cn[nH]c5)c4)c3)sc2C1

>  <Name>  (130) 
nan

>  <Pocket>  (130) 
nan

>  <ATP_Site>  (130) 
nan

>  <Peripheral>  (130) 
nan

>  <Num_H_Atoms_ProtBoundConf>  (130) 
nan

>  <Num_Resolved_Atoms>  (130) 
nan

>  <Num_Not_Resolved_Atoms>  (130) 
nan

$$$$
CHEMBL3700976
     RDKit          3D

  0  0  0  0  0  0  0  0  0  0999 V3000
M  V30 BEGIN CTAB
M  V30 COUNTS 71 76 0 0 0
M  V30 BEGIN ATOM
M  V30 1 N 3.987553 -1.818128 1.983741 0
M  V30 2 C 4.138557 -1.226913 1.012658 0
M  V30 3 C 4.349615 -0.489663 -0.198241 0
M  V30 4 C 5.624005 -0.023400 -0.444542 0
M  V30 5 C 5.887220 0.697116 -1.601112 0
M  V30 6 C 4.896515 0.959277 -2.516154 0
M  V30 7 C 3.614038 0.501442 -2.288496 0
M  V30 8 N 2.437376 0.639778 -3.068933 0
M  V30 9 C 1.501050 1.702087 -2.965405 0
M  V30 10 O 1.492250 2.708261 -2.206400 0
M  V30 11 N 0.332494 1.801927 -3.768775 0
M  V30 12 C -0.558350 2.949021 -3.564624 0
M  V30 13 C -1.795258 2.680389 -4.358363 0
M  V30 14 C -1.630391 1.324378 -4.995512 0
M  V30 15 C -0.192200 0.953051 -4.808024 0 CFG=2
M  V30 16 C -0.167109 -0.486643 -4.435195 0
M  V30 17 C 0.242385 -1.495628 -5.256996 0
M  V30 18 C 0.221946 -2.802831 -4.795278 0
M  V30 19 C -0.201906 -3.126425 -3.521004 0
M  V30 20 C -0.621824 -2.129017 -2.666838 0
M  V30 21 C -1.101285 -2.306766 -1.282182 0
M  V30 22 O -1.472413 -1.353411 -0.527742 0
M  V30 23 N -1.167152 -3.588621 -0.726478 0
M  V30 24 C -1.676332 -3.468879 0.655685 0
M  V30 25 N -2.658813 -3.463647 1.288699 0
M  V30 26 C -2.756549 -3.324594 2.590957 0
M  V30 27 C -1.608894 -3.168266 3.304478 0
M  V30 28 S -0.370312 -3.229033 2.022691 0
M  V30 29 C -1.503490 -2.996502 4.761974 0
M  V30 30 N -2.790911 -2.557957 5.227027 0
M  V30 31 C -3.054763 -1.152981 5.022173 0
M  V30 32 C -2.088605 -0.266238 5.686952 0
M  V30 33 C -0.957037 0.125386 4.964038 0
M  V30 34 C 0.021225 0.949281 5.467890 0
M  V30 35 C -0.082932 1.434214 6.746198 0
M  V30 36 C -1.192710 1.056329 7.469366 0
M  V30 37 C -2.194140 0.229581 6.992178 0
M  V30 38 C -3.868951 -3.387049 4.747025 0
M  V30 39 C -4.102204 -3.335041 3.275700 0
M  V30 40 C -0.597331 -0.811040 -3.143073 0
M  V30 41 C 3.356490 -0.223580 -1.121249 0
M  V30 42 H 6.441076 -0.192052 0.225341 0
M  V30 43 H 6.864888 1.078784 -1.832407 0
M  V30 44 H 4.975714 1.503161 -3.443766 0
M  V30 45 H 2.292286 -0.110071 -3.748672 0
M  V30 46 H -0.783330 3.099146 -2.488899 0
M  V30 47 H -0.112469 3.900868 -3.926758 0
M  V30 48 H -2.672486 2.689074 -3.659042 0
M  V30 49 H -1.985126 3.444793 -5.148893 0
M  V30 50 H -1.888095 1.335884 -6.079635 0
M  V30 51 H -2.329058 0.613136 -4.504638 0
M  V30 52 H 0.345113 1.023570 -5.772788 0
M  V30 53 H 0.574016 -1.241699 -6.253891 0
M  V30 54 H 0.535014 -3.617198 -5.411492 0
M  V30 55 H -0.234256 -4.130296 -3.120004 0
M  V30 56 H -0.897183 -4.465880 -1.222369 0
M  V30 57 H -1.306388 -3.986452 5.208040 0
M  V30 58 H -0.704124 -2.319517 5.083635 0
M  V30 59 H -4.054524 -0.967456 5.492682 0
M  V30 60 H -3.182464 -0.912149 3.950006 0
M  V30 61 H -0.798625 -0.212863 3.946815 0
M  V30 62 H 0.887928 1.227005 4.862486 0
M  V30 63 H 0.691495 2.079823 7.130788 0
M  V30 64 H -1.269018 1.446414 8.486683 0
M  V30 65 H -3.053336 -0.065653 7.544592 0
M  V30 66 H -4.793140 -3.044522 5.266719 0
M  V30 67 H -3.636748 -4.434955 5.046115 0
M  V30 68 H -4.727474 -2.476634 2.954851 0
M  V30 69 H -4.698762 -4.235838 3.022317 0
M  V30 70 H -0.928947 0.003114 -2.476643 0
M  V30 71 H 2.394441 -0.640233 -0.820393 0
M  V30 END ATOM
M  V30 BEGIN BOND
M  V30 1 3 1 2
M  V30 2 1 2 3
M  V30 3 2 3 4
M  V30 4 1 4 5
M  V30 5 2 5 6
M  V30 6 1 6 7
M  V30 7 1 7 8
M  V30 8 1 8 9
M  V30 9 2 9 10
M  V30 10 1 9 11
M  V30 11 1 11 12
M  V30 12 1 12 13
M  V30 13 1 13 14
M  V30 14 1 14 15
M  V30 15 1 15 16
M  V30 16 2 16 17
M  V30 17 1 17 18
M  V30 18 2 18 19
M  V30 19 1 19 20
M  V30 20 1 20 21
M  V30 21 2 21 22
M  V30 22 1 21 23
M  V30 23 1 23 24
M  V30 24 2 24 25
M  V30 25 1 25 26
M  V30 26 2 26 27
M  V30 27 1 27 28
M  V30 28 1 27 29
M  V30 29 1 29 30
M  V30 30 1 30 31
M  V30 31 1 31 32
M  V30 32 2 32 33
M  V30 33 1 33 34
M  V30 34 2 34 35
M  V30 35 1 35 36
M  V30 36 2 36 37
M  V30 37 1 30 38
M  V30 38 1 38 39
M  V30 39 2 20 40
M  V30 40 2 7 41
M  V30 41 1 41 3
M  V30 42 1 15 11
M  V30 43 1 40 16
M  V30 44 1 28 24
M  V30 45 1 37 32
M  V30 46 1 39 26
M  V30 47 1 4 42
M  V30 48 1 5 43
M  V30 49 1 6 44
M  V30 50 1 8 45
M  V30 51 1 12 46
M  V30 52 1 12 47
M  V30 53 1 13 48
M  V30 54 1 13 49
M  V30 55 1 14 50
M  V30 56 1 14 51
M  V30 57 1 15 52 CFG=3
M  V30 58 1 17 53
M  V30 59 1 18 54
M  V30 60 1 19 55
M  V30 61 1 23 56
M  V30 62 1 29 57
M  V30 63 1 29 58
M  V30 64 1 31 59
M  V30 65 1 31 60
M  V30 66 1 33 61
M  V30 67 1 34 62
M  V30 68 1 35 63
M  V30 69 1 36 64
M  V30 70 1 37 65
M  V30 71 1 38 66
M  V30 72 1 38 67
M  V30 73 1 39 68
M  V30 74 1 39 69
M  V30 75 1 40 70
M  V30 76 1 41 71
M  V30 END BOND
M  V30 END CTAB
M  END
>  <Dataset>  (131) 
ChEMBL_Kinases

>  <Ligand_Instance>  (131) 
nan

>  <PDB_ID>  (131) 
nan

>  <Standardized_SMILES>  (131) 
N#Cc1cccc(NC(=O)N2CCC[C@@H]2c2cccc(C(=O)Nc3nc4c(s3)CN(Cc3ccccc3)CC4)c2)c1

>  <Name>  (131) 
nan

>  <Pocket>  (131) 
nan

>  <ATP_Site>  (131) 
nan

>  <Peripheral>  (131) 
nan

>  <Num_H_Atoms_ProtBoundConf>  (131) 
nan

>  <Num_Resolved_Atoms>  (131) 
nan

>  <Num_Not_Resolved_Atoms>  (131) 
nan

$$$$
CHEMBL3700975
     RDKit          3D

  0  0  0  0  0  0  0  0  0  0999 V3000
M  V30 BEGIN CTAB
M  V30 COUNTS 71 76 0 0 0
M  V30 BEGIN ATOM
M  V30 1 C -0.543509 -7.938580 1.658348 0
M  V30 2 N 0.141013 -6.676211 1.549431 0
M  V30 3 C 1.497971 -6.937625 1.108143 0
M  V30 4 C -0.494083 -5.682104 0.782583 0 CFG=1
M  V30 5 C -0.808624 -5.995372 -0.643472 0
M  V30 6 C -2.235943 -5.564180 -0.996862 0
M  V30 7 C -2.447236 -4.139346 -0.586593 0
M  V30 8 N -2.832363 -3.135966 -1.329311 0
M  V30 9 C -2.977708 -2.026726 -0.991790 0
M  V30 10 N -3.317772 -0.585573 -1.147847 0
M  V30 11 C -2.198956 0.107020 -1.583317 0
M  V30 12 O -1.252609 -0.771336 -1.703690 0
M  V30 13 C -1.874422 1.480833 -1.911190 0
M  V30 14 C -2.747044 2.507186 -1.649201 0
M  V30 15 C -2.404597 3.797793 -1.973537 0
M  V30 16 C -1.202387 4.145974 -2.566654 0
M  V30 17 C -0.360167 3.047145 -2.805530 0
M  V30 18 C 0.955870 3.326276 -3.432314 0 CFG=1
M  V30 19 C 0.789345 3.900297 -4.824378 0
M  V30 20 C 2.135161 4.565442 -5.038016 0
M  V30 21 C 2.234254 5.340830 -3.712413 0
M  V30 22 N 1.723856 4.343595 -2.751788 0
M  V30 23 C 2.108976 4.579418 -1.374079 0
M  V30 24 O 2.800110 5.626618 -1.430579 0
M  V30 25 C 1.663050 3.664494 -0.366461 0
M  V30 26 C 2.449305 2.795795 0.380116 0
M  V30 27 N 1.708038 2.061731 1.247355 0
M  V30 28 C 2.003703 1.124917 2.149083 0
M  V30 29 C 0.955549 0.564538 2.891987 0
M  V30 30 C 1.303756 -0.442753 3.868328 0
M  V30 31 N 2.617722 -0.909820 4.067551 0
M  V30 32 O 0.445372 -0.998652 4.637967 0
M  V30 33 C -0.326587 0.994429 2.670947 0
M  V30 34 C -0.641153 1.970464 1.733468 0
M  V30 35 C 0.456101 2.473471 1.041646 0
M  V30 36 N 0.434961 3.403421 0.102622 0
M  V30 37 C -0.660362 1.740803 -2.497282 0
M  V30 38 S -2.539632 -2.043289 0.814169 0
M  V30 39 C -2.168239 -3.885106 0.791902 0
M  V30 40 C -1.711436 -5.152970 1.526743 0
M  V30 41 H -0.675877 -8.440245 0.688039 0
M  V30 42 H -1.442276 -7.898327 2.270008 0
M  V30 43 H 0.171251 -8.607036 2.223860 0
M  V30 44 H 1.662371 -6.545585 0.078747 0
M  V30 45 H 1.769924 -8.006740 1.106567 0
M  V30 46 H 2.183430 -6.392015 1.793622 0
M  V30 47 H 0.201042 -4.782572 0.754237 0
M  V30 48 H -0.157454 -5.422039 -1.340542 0
M  V30 49 H -0.714779 -7.051896 -0.918553 0
M  V30 50 H -2.451020 -5.749384 -2.054421 0
M  V30 51 H -2.906988 -6.203576 -0.394608 0
M  V30 52 H -4.145943 -0.027882 -1.015076 0
M  V30 53 H -3.708446 2.366444 -1.187279 0
M  V30 54 H -3.069135 4.642078 -1.776934 0
M  V30 55 H -0.883798 5.133646 -2.842134 0
M  V30 56 H 1.573619 2.427253 -3.493461 0
M  V30 57 H 0.010057 4.683565 -4.779779 0
M  V30 58 H 0.635051 3.144625 -5.596689 0
M  V30 59 H 2.955656 3.836050 -5.020305 0
M  V30 60 H 2.167057 5.231467 -5.916621 0
M  V30 61 H 3.275714 5.638308 -3.497107 0
M  V30 62 H 1.541519 6.197679 -3.812244 0
M  V30 63 H 3.524355 2.711183 0.289972 0
M  V30 64 H 3.042841 0.847758 2.255258 0
M  V30 65 H 3.650992 -0.805793 4.077719 0
M  V30 66 H 2.885731 -1.879322 4.380211 0
M  V30 67 H -1.044584 0.489172 3.297964 0
M  V30 68 H -1.662435 2.249874 1.614715 0
M  V30 69 H 0.065034 0.942365 -2.726148 0
M  V30 70 H -1.388666 -4.882333 2.535721 0
M  V30 71 H -2.558951 -5.813151 1.565226 0
M  V30 END ATOM
M  V30 BEGIN BOND
M  V30 1 1 1 2
M  V30 2 1 2 3
M  V30 3 1 2 4
M  V30 4 1 4 5
M  V30 5 1 5 6
M  V30 6 1 6 7
M  V30 7 1 7 8
M  V30 8 2 8 9
M  V30 9 1 9 10
M  V30 10 1 10 11
M  V30 11 2 11 12
M  V30 12 1 11 13
M  V30 13 2 13 14
M  V30 14 1 14 15
M  V30 15 2 15 16
M  V30 16 1 16 17
M  V30 17 1 17 18
M  V30 18 1 18 19
M  V30 19 1 19 20
M  V30 20 1 20 21
M  V30 21 1 21 22
M  V30 22 1 22 23
M  V30 23 2 23 24
M  V30 24 1 23 25
M  V30 25 2 25 26
M  V30 26 1 26 27
M  V30 27 1 27 28
M  V30 28 2 28 29
M  V30 29 1 29 30
M  V30 30 1 30 31
M  V30 31 2 30 32
M  V30 32 1 29 33
M  V30 33 2 33 34
M  V30 34 1 34 35
M  V30 35 2 35 36
M  V30 36 2 17 37
M  V30 37 1 9 38
M  V30 38 1 38 39
M  V30 39 1 39 40
M  V30 40 1 40 4
M  V30 41 2 39 7
M  V30 42 1 37 13
M  V30 43 1 22 18
M  V30 44 1 36 25
M  V30 45 1 35 27
M  V30 46 1 1 41
M  V30 47 1 1 42
M  V30 48 1 1 43
M  V30 49 1 3 44
M  V30 50 1 3 45
M  V30 51 1 3 46
M  V30 52 1 4 47 CFG=3
M  V30 53 1 5 48
M  V30 54 1 5 49
M  V30 55 1 6 50
M  V30 56 1 6 51
M  V30 57 1 10 52
M  V30 58 1 14 53
M  V30 59 1 15 54
M  V30 60 1 16 55
M  V30 61 1 18 56 CFG=3
M  V30 62 1 19 57
M  V30 63 1 19 58
M  V30 64 1 20 59
M  V30 65 1 20 60
M  V30 66 1 21 61
M  V30 67 1 21 62
M  V30 68 1 26 63
M  V30 69 1 28 64
M  V30 70 1 31 65
M  V30 71 1 31 66
M  V30 72 1 33 67
M  V30 73 1 34 68
M  V30 74 1 37 69
M  V30 75 1 40 70
M  V30 76 1 40 71
M  V30 END BOND
M  V30 END CTAB
M  END
>  <Dataset>  (132) 
ChEMBL_Kinases

>  <Ligand_Instance>  (132) 
nan

>  <PDB_ID>  (132) 
nan

>  <Standardized_SMILES>  (132) 
CN(C)[C@H]1CCc2nc(NC(=O)c3cccc([C@H]4CCCN4C(=O)c4cn5cc(C(N)=O)ccc5n4)c3)sc2C1

>  <Name>  (132) 
nan

>  <Pocket>  (132) 
nan

>  <ATP_Site>  (132) 
nan

>  <Peripheral>  (132) 
nan

>  <Num_H_Atoms_ProtBoundConf>  (132) 
nan

>  <Num_Resolved_Atoms>  (132) 
nan

>  <Num_Not_Resolved_Atoms>  (132) 
nan

$$$$
CHEMBL3700974
     RDKit          3D

  0  0  0  0  0  0  0  0  0  0999 V3000
M  V30 BEGIN CTAB
M  V30 COUNTS 71 76 0 0 0
M  V30 BEGIN ATOM
M  V30 1 C 4.985301 -0.292198 7.775830 0
M  V30 2 N 5.317131 0.929635 7.034596 0
M  V30 3 C 6.488047 0.681650 6.249531 0
M  V30 4 C 4.167856 1.284745 6.228534 0 CFG=1
M  V30 5 C 2.908755 1.489313 7.003225 0
M  V30 6 C 2.027297 2.570851 6.448515 0
M  V30 7 C 2.005730 2.595883 4.953996 0
M  V30 8 N 0.998522 2.629157 4.106913 0
M  V30 9 C 1.092466 2.657476 2.932046 0
M  V30 10 N 0.113021 2.676713 1.830878 0
M  V30 11 C -0.070230 1.307373 1.470744 0
M  V30 12 O 0.637403 0.539867 2.184489 0
M  V30 13 C -0.973210 0.906127 0.402743 0
M  V30 14 C -1.834330 1.674100 -0.368418 0
M  V30 15 C -2.594974 1.076218 -1.347574 0
M  V30 16 C -2.501057 -0.282503 -1.561290 0
M  V30 17 C -1.672960 -1.127028 -0.844641 0
M  V30 18 C -1.544108 -2.566747 -1.071586 0 CFG=1
M  V30 19 C -1.144938 -3.328922 0.176600 0
M  V30 20 C -2.145175 -4.482530 0.314387 0
M  V30 21 C -3.392192 -3.767591 -0.244452 0
M  V30 22 N -2.814323 -3.163520 -1.427958 0
M  V30 23 C -3.532128 -3.266799 -2.644298 0
M  V30 24 O -4.528585 -3.908904 -2.232267 0
M  V30 25 C -3.614083 -2.977532 -4.056230 0
M  V30 26 C -4.728891 -2.359752 -4.571580 0
M  V30 27 C -4.702493 -2.135192 -5.919370 0
M  V30 28 C -3.628655 -2.507151 -6.691789 0
M  V30 29 N -3.502893 -2.318521 -8.109759 0
M  V30 30 C -3.131201 -1.164700 -8.678135 0
M  V30 31 C -3.117485 -1.348559 -10.056444 0
M  V30 32 N -3.480283 -2.607820 -10.299464 0
M  V30 33 C -3.714492 -3.199665 -9.128496 0
M  V30 34 C -2.515442 -3.126847 -6.162322 0
M  V30 35 C -2.493680 -3.378965 -4.786199 0
M  V30 36 C -0.937810 -0.463518 0.121254 0
M  V30 37 S 2.981545 2.643390 2.649650 0
M  V30 38 C 3.323753 2.594104 4.378554 0
M  V30 39 C 4.424964 2.540506 5.416158 0
M  V30 40 H 5.144136 -1.140423 7.061141 0
M  V30 41 H 5.583021 -0.385908 8.695813 0
M  V30 42 H 3.890823 -0.272591 7.991638 0
M  V30 43 H 6.284179 0.703641 5.148803 0
M  V30 44 H 6.837159 -0.351887 6.441994 0
M  V30 45 H 7.361446 1.336020 6.514110 0
M  V30 46 H 4.008226 0.462958 5.503279 0
M  V30 47 H 2.292603 0.553908 7.043098 0
M  V30 48 H 3.105057 1.758125 8.074285 0
M  V30 49 H 1.005288 2.411697 6.856648 0
M  V30 50 H 2.415644 3.563759 6.767912 0
M  V30 51 H -0.387448 3.423275 1.355713 0
M  V30 52 H -1.806292 2.718398 -0.093319 0
M  V30 53 H -3.240413 1.735845 -1.905039 0
M  V30 54 H -3.129005 -0.706607 -2.351777 0
M  V30 55 H -0.816553 -2.775234 -1.892418 0
M  V30 56 H -1.269933 -2.748951 1.112386 0
M  V30 57 H -0.098462 -3.684741 0.150357 0
M  V30 58 H -2.289624 -4.772627 1.368835 0
M  V30 59 H -1.873066 -5.341269 -0.319912 0
M  V30 60 H -4.189145 -4.484365 -0.429427 0
M  V30 61 H -3.631934 -2.960680 0.451154 0
M  V30 62 H -5.564752 -2.071596 -3.962489 0
M  V30 63 H -5.518692 -1.661997 -6.415403 0
M  V30 64 H -2.888847 -0.259900 -8.125965 0
M  V30 65 H -2.849011 -0.569183 -10.785661 0
M  V30 66 H -4.029465 -4.230314 -8.968616 0
M  V30 67 H -1.635156 -3.443946 -6.730042 0
M  V30 68 H -1.645506 -3.859057 -4.333194 0
M  V30 69 H -0.263090 -1.105828 0.699105 0
M  V30 70 H 4.310961 3.460987 6.000454 0
M  V30 71 H 5.368951 2.546924 4.869766 0
M  V30 END ATOM
M  V30 BEGIN BOND
M  V30 1 1 1 2
M  V30 2 1 2 3
M  V30 3 1 2 4
M  V30 4 1 4 5
M  V30 5 1 5 6
M  V30 6 1 6 7
M  V30 7 1 7 8
M  V30 8 2 8 9
M  V30 9 1 9 10
M  V30 10 1 10 11
M  V30 11 2 11 12
M  V30 12 1 11 13
M  V30 13 2 13 14
M  V30 14 1 14 15
M  V30 15 2 15 16
M  V30 16 1 16 17
M  V30 17 1 17 18
M  V30 18 1 18 19
M  V30 19 1 19 20
M  V30 20 1 20 21
M  V30 21 1 21 22
M  V30 22 1 22 23
M  V30 23 2 23 24
M  V30 24 1 23 25
M  V30 25 2 25 26
M  V30 26 1 26 27
M  V30 27 2 27 28
M  V30 28 1 28 29
M  V30 29 1 29 30
M  V30 30 2 30 31
M  V30 31 1 31 32
M  V30 32 2 32 33
M  V30 33 1 28 34
M  V30 34 2 34 35
M  V30 35 2 17 36
M  V30 36 1 9 37
M  V30 37 1 37 38
M  V30 38 1 38 39
M  V30 39 1 39 4
M  V30 40 2 38 7
M  V30 41 1 36 13
M  V30 42 1 22 18
M  V30 43 1 35 25
M  V30 44 1 33 29
M  V30 45 1 1 40
M  V30 46 1 1 41
M  V30 47 1 1 42
M  V30 48 1 3 43
M  V30 49 1 3 44
M  V30 50 1 3 45
M  V30 51 1 4 46 CFG=3
M  V30 52 1 5 47
M  V30 53 1 5 48
M  V30 54 1 6 49
M  V30 55 1 6 50
M  V30 56 1 10 51
M  V30 57 1 14 52
M  V30 58 1 15 53
M  V30 59 1 16 54
M  V30 60 1 18 55 CFG=3
M  V30 61 1 19 56
M  V30 62 1 19 57
M  V30 63 1 20 58
M  V30 64 1 20 59
M  V30 65 1 21 60
M  V30 66 1 21 61
M  V30 67 1 26 62
M  V30 68 1 27 63
M  V30 69 1 30 64
M  V30 70 1 31 65
M  V30 71 1 33 66
M  V30 72 1 34 67
M  V30 73 1 35 68
M  V30 74 1 36 69
M  V30 75 1 39 70
M  V30 76 1 39 71
M  V30 END BOND
M  V30 END CTAB
M  END
>  <Dataset>  (133) 
ChEMBL_Kinases

>  <Ligand_Instance>  (133) 
nan

>  <PDB_ID>  (133) 
nan

>  <Standardized_SMILES>  (133) 
CN(C)[C@H]1CCc2nc(NC(=O)c3cccc([C@H]4CCCN4C(=O)c4ccc(-n5ccnc5)cc4)c3)sc2C1

>  <Name>  (133) 
nan

>  <Pocket>  (133) 
nan

>  <ATP_Site>  (133) 
nan

>  <Peripheral>  (133) 
nan

>  <Num_H_Atoms_ProtBoundConf>  (133) 
nan

>  <Num_Resolved_Atoms>  (133) 
nan

>  <Num_Not_Resolved_Atoms>  (133) 
nan

$$$$
CHEMBL3700973
     RDKit          3D

  0  0  0  0  0  0  0  0  0  0999 V3000
M  V30 BEGIN CTAB
M  V30 COUNTS 61 65 0 0 0
M  V30 BEGIN ATOM
M  V30 1 C 5.653971 -2.040009 7.557007 0
M  V30 2 N 4.760380 -1.874124 6.438573 0
M  V30 3 C 5.527043 -1.346115 5.322983 0
M  V30 4 C 4.699350 -1.455279 4.085982 0
M  V30 5 C 3.519103 -0.561903 4.233032 0
M  V30 6 N 2.784368 0.043892 3.318874 0
M  V30 7 C 1.882781 0.725106 3.421990 0
M  V30 8 N 1.103864 1.373314 2.314755 0
M  V30 9 C 0.009346 0.634248 1.800760 0
M  V30 10 O -0.186342 -0.489657 2.334343 0
M  V30 11 C -0.818472 1.171782 0.720519 0
M  V30 12 C -0.651305 2.394487 0.105156 0
M  V30 13 C -1.509598 2.794398 -0.914095 0
M  V30 14 C -2.523356 1.936599 -1.285641 0
M  V30 15 C -2.748273 0.703290 -0.715555 0
M  V30 16 C -3.842889 -0.221834 -1.114128 0 CFG=1
M  V30 17 C -5.146602 0.114948 -0.482969 0
M  V30 18 C -6.143642 0.000690 -1.606675 0
M  V30 19 C -5.281657 0.291933 -2.814020 0
M  V30 20 N -4.025574 -0.369964 -2.515966 0
M  V30 21 C -3.217758 -1.007139 -3.496524 0
M  V30 22 O -3.636953 -0.982655 -4.686316 0
M  V30 23 N -2.009193 -1.620010 -3.074968 0
M  V30 24 C -1.026817 -2.317065 -3.833584 0
M  V30 25 C 0.081284 -1.767838 -4.444809 0
M  V30 26 C 0.950853 -2.602798 -5.155853 0
M  V30 27 C 0.678584 -3.960793 -5.229287 0
M  V30 28 C -0.424241 -4.525259 -4.624277 0
M  V30 29 C -0.699802 -5.948741 -4.707706 0
M  V30 30 N -0.905742 -7.099499 -4.763663 0
M  V30 31 C -1.265938 -3.684455 -3.930041 0
M  V30 32 C -1.860113 0.363025 0.293099 0
M  V30 33 S 1.723961 0.748586 5.340025 0
M  V30 34 C 3.143899 -0.340644 5.500240 0
M  V30 35 C 3.758167 -0.874102 6.756560 0
M  V30 36 H 5.490798 -3.054865 8.017359 0
M  V30 37 H 6.734531 -1.958359 7.281838 0
M  V30 38 H 5.490279 -1.253664 8.334760 0
M  V30 39 H 5.731321 -0.279443 5.494334 0
M  V30 40 H 6.477073 -1.927164 5.262113 0
M  V30 41 H 5.339740 -1.189878 3.218170 0
M  V30 42 H 4.361931 -2.507186 3.878074 0
M  V30 43 H 1.369672 2.297226 1.969987 0
M  V30 44 H 0.174128 2.991714 0.470822 0
M  V30 45 H -1.360054 3.757949 -1.382442 0
M  V30 46 H -3.176746 2.262983 -2.075472 0
M  V30 47 H -3.555217 -1.244439 -0.726803 0
M  V30 48 H -5.454394 -0.609367 0.306600 0
M  V30 49 H -5.183450 1.150533 -0.079643 0
M  V30 50 H -6.557345 -1.018535 -1.716744 0
M  V30 51 H -6.956443 0.752500 -1.508812 0
M  V30 52 H -5.804837 -0.177105 -3.672133 0
M  V30 53 H -5.186878 1.363525 -3.024740 0
M  V30 54 H -1.713723 -1.605913 -2.064663 0
M  V30 55 H 0.206255 -0.701716 -4.330026 0
M  V30 56 H 1.809258 -2.140390 -5.622736 0
M  V30 57 H 1.375524 -4.598026 -5.793167 0
M  V30 58 H -2.131829 -4.175350 -3.463477 0
M  V30 59 H -2.032222 -0.621191 0.754416 0
M  V30 60 H 3.003183 -1.361235 7.421254 0
M  V30 61 H 4.168945 -0.019636 7.338737 0
M  V30 END ATOM
M  V30 BEGIN BOND
M  V30 1 1 1 2
M  V30 2 1 2 3
M  V30 3 1 3 4
M  V30 4 1 4 5
M  V30 5 1 5 6
M  V30 6 2 6 7
M  V30 7 1 7 8
M  V30 8 1 8 9
M  V30 9 2 9 10
M  V30 10 1 9 11
M  V30 11 2 11 12
M  V30 12 1 12 13
M  V30 13 2 13 14
M  V30 14 1 14 15
M  V30 15 1 15 16
M  V30 16 1 16 17
M  V30 17 1 17 18
M  V30 18 1 18 19
M  V30 19 1 19 20
M  V30 20 1 20 21
M  V30 21 2 21 22
M  V30 22 1 21 23
M  V30 23 1 23 24
M  V30 24 2 24 25
M  V30 25 1 25 26
M  V30 26 2 26 27
M  V30 27 1 27 28
M  V30 28 1 28 29
M  V30 29 3 29 30
M  V30 30 2 28 31
M  V30 31 2 15 32
M  V30 32 1 7 33
M  V30 33 1 33 34
M  V30 34 1 34 35
M  V30 35 1 35 2
M  V30 36 2 34 5
M  V30 37 1 32 11
M  V30 38 1 20 16
M  V30 39 1 31 24
M  V30 40 1 1 36
M  V30 41 1 1 37
M  V30 42 1 1 38
M  V30 43 1 3 39
M  V30 44 1 3 40
M  V30 45 1 4 41
M  V30 46 1 4 42
M  V30 47 1 8 43
M  V30 48 1 12 44
M  V30 49 1 13 45
M  V30 50 1 14 46
M  V30 51 1 16 47 CFG=1
M  V30 52 1 17 48
M  V30 53 1 17 49
M  V30 54 1 18 50
M  V30 55 1 18 51
M  V30 56 1 19 52
M  V30 57 1 19 53
M  V30 58 1 23 54
M  V30 59 1 25 55
M  V30 60 1 26 56
M  V30 61 1 27 57
M  V30 62 1 31 58
M  V30 63 1 32 59
M  V30 64 1 35 60
M  V30 65 1 35 61
M  V30 END BOND
M  V30 END CTAB
M  END
>  <Dataset>  (134) 
ChEMBL_Kinases

>  <Ligand_Instance>  (134) 
nan

>  <PDB_ID>  (134) 
nan

>  <Standardized_SMILES>  (134) 
CN1CCc2nc(NC(=O)c3cccc([C@H]4CCCN4C(=O)Nc4cccc(C#N)c4)c3)sc2C1

>  <Name>  (134) 
nan

>  <Pocket>  (134) 
nan

>  <ATP_Site>  (134) 
nan

>  <Peripheral>  (134) 
nan

>  <Num_H_Atoms_ProtBoundConf>  (134) 
nan

>  <Num_Resolved_Atoms>  (134) 
nan

>  <Num_Not_Resolved_Atoms>  (134) 
nan

$$$$
CHEMBL3700972
     RDKit          3D

  0  0  0  0  0  0  0  0  0  0999 V3000
M  V30 BEGIN CTAB
M  V30 COUNTS 71 76 0 0 0
M  V30 BEGIN ATOM
M  V30 1 C 5.119475 -4.084936 6.094468 0
M  V30 2 N 5.341046 -2.676365 6.506037 0
M  V30 3 C 6.475454 -2.235252 5.696700 0
M  V30 4 C 4.143930 -1.974442 6.158607 0 CFG=1
M  V30 5 C 2.949877 -2.507605 6.857282 0
M  V30 6 C 1.905493 -1.460646 7.158944 0
M  V30 7 C 1.751644 -0.498275 6.013249 0
M  V30 8 N 0.641952 -0.121982 5.408586 0
M  V30 9 C 0.646219 0.674294 4.494373 0
M  V30 10 N -0.374386 1.269838 3.623782 0
M  V30 11 C -0.457738 0.447288 2.503003 0
M  V30 12 O 0.375482 -0.525562 2.644457 0
M  V30 13 C -1.301570 0.572798 1.317976 0
M  V30 14 C -2.261668 1.530627 1.066314 0
M  V30 15 C -2.985143 1.537384 -0.133297 0
M  V30 16 C -2.712578 0.554373 -1.065772 0
M  V30 17 C -1.755814 -0.432168 -0.858934 0
M  V30 18 C -1.527366 -1.425285 -1.917870 0 CFG=1
M  V30 19 C -1.073976 -2.780302 -1.393562 0
M  V30 20 C -2.345554 -3.425775 -0.876537 0
M  V30 21 C -3.445316 -2.802044 -1.672303 0
M  V30 22 N -2.836148 -1.788683 -2.510869 0
M  V30 23 C -3.585158 -1.406730 -3.644888 0
M  V30 24 O -4.575821 -2.189290 -3.433321 0
M  V30 25 C -3.552232 -0.522755 -4.789290 0
M  V30 26 C -4.576496 -0.702078 -5.678750 0
M  V30 27 C -4.608990 0.110863 -6.792677 0
M  V30 28 C -3.623868 1.054662 -6.958845 0
M  V30 29 C -3.623535 1.883080 -8.052022 0
M  V30 30 C -2.699081 2.861633 -8.328505 0
M  V30 31 O -2.820337 3.625138 -9.466480 0
M  V30 32 C -1.690597 2.973817 -7.368820 0
M  V30 33 C -1.625124 2.173726 -6.240873 0
M  V30 34 C -2.612796 1.199952 -6.039498 0
M  V30 35 C -2.527660 0.405129 -4.892599 0
M  V30 36 C -1.084244 -0.378787 0.338775 0
M  V30 37 S 2.437816 1.145092 4.235221 0
M  V30 38 C 2.986730 0.034616 5.593587 0
M  V30 39 C 4.210128 -0.471152 6.335562 0
M  V30 40 H 6.045142 -4.512408 5.655693 0
M  V30 41 H 4.732107 -4.630744 6.961406 0
M  V30 42 H 4.348636 -4.138493 5.291882 0
M  V30 43 H 6.161819 -2.110618 4.625749 0
M  V30 44 H 7.201440 -3.071870 5.708213 0
M  V30 45 H 6.956085 -1.345806 6.092676 0
M  V30 46 H 4.029660 -2.116602 5.040940 0
M  V30 47 H 2.511027 -3.366916 6.282312 0
M  V30 48 H 3.261665 -2.925509 7.839749 0
M  V30 49 H 2.159947 -0.875287 8.071318 0
M  V30 50 H 0.969559 -1.999464 7.387420 0
M  V30 51 H -0.989272 2.076795 3.643379 0
M  V30 52 H -2.397823 2.249115 1.860023 0
M  V30 53 H -3.728258 2.319121 -0.271517 0
M  V30 54 H -3.293406 0.583619 -1.997832 0
M  V30 55 H -0.871803 -1.115653 -2.725295 0
M  V30 56 H -0.683889 -3.416398 -2.231120 0
M  V30 57 H -0.345481 -2.766306 -0.601810 0
M  V30 58 H -2.514491 -3.231789 0.205184 0
M  V30 59 H -2.325477 -4.522489 -0.993541 0
M  V30 60 H -4.218697 -2.321049 -1.007906 0
M  V30 61 H -3.945813 -3.610814 -2.266803 0
M  V30 62 H -5.356706 -1.438153 -5.556351 0
M  V30 63 H -5.391117 0.017342 -7.535117 0
M  V30 64 H -4.444613 1.738981 -8.761709 0
M  V30 65 H -2.257102 4.410765 -9.720584 0
M  V30 66 H -0.960684 3.760273 -7.605955 0
M  V30 67 H -0.791525 2.340233 -5.549724 0
M  V30 68 H -1.742393 0.532995 -4.195413 0
M  V30 69 H -0.350504 -1.134960 0.485650 0
M  V30 70 H 5.068481 -0.018742 5.842994 0
M  V30 71 H 4.098708 -0.132798 7.364475 0
M  V30 END ATOM
M  V30 BEGIN BOND
M  V30 1 1 1 2
M  V30 2 1 2 3
M  V30 3 1 2 4
M  V30 4 1 4 5
M  V30 5 1 5 6
M  V30 6 1 6 7
M  V30 7 1 7 8
M  V30 8 2 8 9
M  V30 9 1 9 10
M  V30 10 1 10 11
M  V30 11 2 11 12
M  V30 12 1 11 13
M  V30 13 2 13 14
M  V30 14 1 14 15
M  V30 15 2 15 16
M  V30 16 1 16 17
M  V30 17 1 17 18
M  V30 18 1 18 19
M  V30 19 1 19 20
M  V30 20 1 20 21
M  V30 21 1 21 22
M  V30 22 1 22 23
M  V30 23 2 23 24
M  V30 24 1 23 25
M  V30 25 2 25 26
M  V30 26 1 26 27
M  V30 27 2 27 28
M  V30 28 1 28 29
M  V30 29 2 29 30
M  V30 30 1 30 31
M  V30 31 1 30 32
M  V30 32 2 32 33
M  V30 33 1 33 34
M  V30 34 2 34 35
M  V30 35 2 17 36
M  V30 36 1 9 37
M  V30 37 1 37 38
M  V30 38 1 38 39
M  V30 39 1 39 4
M  V30 40 2 38 7
M  V30 41 1 36 13
M  V30 42 1 22 18
M  V30 43 1 35 25
M  V30 44 1 34 28
M  V30 45 1 1 40
M  V30 46 1 1 41
M  V30 47 1 1 42
M  V30 48 1 3 43
M  V30 49 1 3 44
M  V30 50 1 3 45
M  V30 51 1 4 46 CFG=3
M  V30 52 1 5 47
M  V30 53 1 5 48
M  V30 54 1 6 49
M  V30 55 1 6 50
M  V30 56 1 10 51
M  V30 57 1 14 52
M  V30 58 1 15 53
M  V30 59 1 16 54
M  V30 60 1 18 55 CFG=3
M  V30 61 1 19 56
M  V30 62 1 19 57
M  V30 63 1 20 58
M  V30 64 1 20 59
M  V30 65 1 21 60
M  V30 66 1 21 61
M  V30 67 1 26 62
M  V30 68 1 27 63
M  V30 69 1 29 64
M  V30 70 1 31 65
M  V30 71 1 32 66
M  V30 72 1 33 67
M  V30 73 1 35 68
M  V30 74 1 36 69
M  V30 75 1 39 70
M  V30 76 1 39 71
M  V30 END BOND
M  V30 END CTAB
M  END
>  <Dataset>  (135) 
ChEMBL_Kinases

>  <Ligand_Instance>  (135) 
nan

>  <PDB_ID>  (135) 
nan

>  <Standardized_SMILES>  (135) 
CN(C)[C@H]1CCc2nc(NC(=O)c3cccc([C@H]4CCCN4C(=O)c4ccc5cc(O)ccc5c4)c3)sc2C1

>  <Name>  (135) 
nan

>  <Pocket>  (135) 
nan

>  <ATP_Site>  (135) 
nan

>  <Peripheral>  (135) 
nan

>  <Num_H_Atoms_ProtBoundConf>  (135) 
nan

>  <Num_Resolved_Atoms>  (135) 
nan

>  <Num_Not_Resolved_Atoms>  (135) 
nan

$$$$
CHEMBL3700971
     RDKit          3D

  0  0  0  0  0  0  0  0  0  0999 V3000
M  V30 BEGIN CTAB
M  V30 COUNTS 71 74 0 0 0
M  V30 BEGIN ATOM
M  V30 1 C 6.401823 -1.923125 2.898103 0
M  V30 2 C 5.348243 -2.992846 2.630572 0
M  V30 3 C 4.306322 -3.015062 3.685612 0
M  V30 4 C 3.480323 -1.869907 3.979179 0
M  V30 5 C 2.436446 -1.236479 3.156583 0 CFG=1
M  V30 6 N 2.792461 -0.716693 1.893638 0
M  V30 7 C 3.456376 -0.268093 0.680719 0
M  V30 8 O 4.650907 -0.532178 0.708854 0
M  V30 9 C 2.766474 0.404948 -0.408057 0
M  V30 10 C 2.211939 1.580419 0.143657 0
M  V30 11 C 1.427431 2.531618 -0.533691 0
M  V30 12 C 1.201901 2.245734 -1.888353 0
M  V30 13 O 0.438891 3.135790 -2.619750 0
M  V30 14 C -0.162242 4.309626 -2.186940 0
M  V30 15 C 1.741136 1.081537 -2.461002 0
M  V30 16 O 1.398348 0.990583 -3.757912 0
M  V30 17 C 1.713342 -0.032913 -4.622708 0
M  V30 18 C 2.488995 0.217011 -1.720553 0
M  V30 19 C 1.170112 -2.019012 3.138817 0
M  V30 20 C 1.109902 -3.124441 3.946860 0
M  V30 21 C -0.038503 -3.934462 3.988890 0
M  V30 22 C -1.161045 -3.673071 3.230783 0
M  V30 23 C -1.078090 -2.563032 2.433674 0
M  V30 24 C -2.231150 -2.223623 1.577273 0
M  V30 25 O -2.204480 -1.212835 0.830478 0
M  V30 26 N -3.403108 -2.971677 1.522249 0
M  V30 27 C -4.289664 -2.300021 0.547540 0
M  V30 28 N -4.478160 -2.364612 -0.655460 0
M  V30 29 C -5.355940 -1.632000 -1.300435 0
M  V30 30 C -6.134988 -0.704029 -0.542437 0
M  V30 31 S -5.454667 -1.027035 1.144890 0
M  V30 32 C -7.169981 0.155190 -1.316778 0
M  V30 33 N -6.617423 0.703808 -2.485927 0
M  V30 34 C -6.394842 2.101486 -2.513309 0
M  V30 35 C -5.700890 -0.100100 -3.210486 0
M  V30 36 C -5.753451 -1.533447 -2.730039 0
M  V30 37 C 0.045636 -1.778297 2.398956 0
M  V30 38 H 5.956617 -0.924693 3.020490 0
M  V30 39 H 6.826158 -2.186966 3.919459 0
M  V30 40 H 7.205673 -2.029948 2.194628 0
M  V30 41 H 5.914047 -3.997615 2.744978 0
M  V30 42 H 4.937073 -3.014636 1.639371 0
M  V30 43 H 4.902274 -3.224190 4.661342 0
M  V30 44 H 3.775641 -4.009090 3.551866 0
M  V30 45 H 4.231331 -0.994709 4.186584 0
M  V30 46 H 3.007798 -1.963274 5.034304 0
M  V30 47 H 2.180860 -0.310022 3.858577 0
M  V30 48 H 1.799219 -0.369736 1.638286 0
M  V30 49 H 2.310527 1.915583 1.192783 0
M  V30 50 H 1.015632 3.414512 -0.063136 0
M  V30 51 H -0.338176 4.415607 -1.115271 0
M  V30 52 H 0.507526 5.144453 -2.503658 0
M  V30 53 H -1.173446 4.393862 -2.680715 0
M  V30 54 H 1.506262 0.234667 -5.701267 0
M  V30 55 H 1.037696 -0.934332 -4.473918 0
M  V30 56 H 2.724721 -0.417382 -4.450350 0
M  V30 57 H 2.928720 -0.692375 -2.084301 0
M  V30 58 H 1.837197 -3.499293 4.607483 0
M  V30 59 H -0.117191 -4.826864 4.630856 0
M  V30 60 H -2.016300 -4.315679 3.293725 0
M  V30 61 H -3.550599 -3.806259 2.085587 0
M  V30 62 H -7.487598 0.969853 -0.634200 0
M  V30 63 H -7.978692 -0.562223 -1.519722 0
M  V30 64 H -7.091962 2.726653 -3.063058 0
M  V30 65 H -6.262610 2.421309 -1.433759 0
M  V30 66 H -5.368060 2.288855 -2.938961 0
M  V30 67 H -4.678848 0.327279 -3.086513 0
M  V30 68 H -5.963052 -0.043325 -4.277990 0
M  V30 69 H -6.786750 -1.892856 -2.892060 0
M  V30 70 H -5.089948 -2.137721 -3.394600 0
M  V30 71 H -0.022846 -0.937633 1.739266 0
M  V30 END ATOM
M  V30 BEGIN BOND
M  V30 1 1 1 2
M  V30 2 1 2 3
M  V30 3 1 3 4
M  V30 4 1 4 5
M  V30 5 1 5 6
M  V30 6 1 6 7
M  V30 7 2 7 8
M  V30 8 1 7 9
M  V30 9 2 9 10
M  V30 10 1 10 11
M  V30 11 2 11 12
M  V30 12 1 12 13
M  V30 13 1 13 14
M  V30 14 1 12 15
M  V30 15 1 15 16
M  V30 16 1 16 17
M  V30 17 2 15 18
M  V30 18 1 5 19
M  V30 19 2 19 20
M  V30 20 1 20 21
M  V30 21 2 21 22
M  V30 22 1 22 23
M  V30 23 1 23 24
M  V30 24 2 24 25
M  V30 25 1 24 26
M  V30 26 1 26 27
M  V30 27 2 27 28
M  V30 28 1 28 29
M  V30 29 2 29 30
M  V30 30 1 30 31
M  V30 31 1 30 32
M  V30 32 1 32 33
M  V30 33 1 33 34
M  V30 34 1 33 35
M  V30 35 1 35 36
M  V30 36 2 23 37
M  V30 37 1 18 9
M  V30 38 1 37 19
M  V30 39 1 31 27
M  V30 40 1 36 29
M  V30 41 1 1 38
M  V30 42 1 1 39
M  V30 43 1 1 40
M  V30 44 1 2 41
M  V30 45 1 2 42
M  V30 46 1 3 43
M  V30 47 1 3 44
M  V30 48 1 4 45
M  V30 49 1 4 46
M  V30 50 1 5 47 CFG=1
M  V30 51 1 6 48
M  V30 52 1 10 49
M  V30 53 1 11 50
M  V30 54 1 14 51
M  V30 55 1 14 52
M  V30 56 1 14 53
M  V30 57 1 17 54
M  V30 58 1 17 55
M  V30 59 1 17 56
M  V30 60 1 18 57
M  V30 61 1 20 58
M  V30 62 1 21 59
M  V30 63 1 22 60
M  V30 64 1 26 61
M  V30 65 1 32 62
M  V30 66 1 32 63
M  V30 67 1 34 64
M  V30 68 1 34 65
M  V30 69 1 34 66
M  V30 70 1 35 67
M  V30 71 1 35 68
M  V30 72 1 36 69
M  V30 73 1 36 70
M  V30 74 1 37 71
M  V30 END BOND
M  V30 END CTAB
M  END
>  <Dataset>  (136) 
ChEMBL_Kinases

>  <Ligand_Instance>  (136) 
nan

>  <PDB_ID>  (136) 
nan

>  <Standardized_SMILES>  (136) 
CCCC[C@@H](NC(=O)c1ccc(OC)c(OC)c1)c1cccc(C(=O)Nc2nc3c(s2)CN(C)CC3)c1

>  <Name>  (136) 
nan

>  <Pocket>  (136) 
nan

>  <ATP_Site>  (136) 
nan

>  <Peripheral>  (136) 
nan

>  <Num_H_Atoms_ProtBoundConf>  (136) 
nan

>  <Num_Resolved_Atoms>  (136) 
nan

>  <Num_Not_Resolved_Atoms>  (136) 
nan

$$$$
CHEMBL3700970
     RDKit          3D

  0  0  0  0  0  0  0  0  0  0999 V3000
M  V30 BEGIN CTAB
M  V30 COUNTS 62 65 0 0 0
M  V30 BEGIN ATOM
M  V30 1 C 5.353364 -2.063992 5.165362 0
M  V30 2 O 4.148576 -1.350021 5.373104 0
M  V30 3 C 3.671009 -0.473880 4.416634 0
M  V30 4 C 4.412311 -0.326982 3.264430 0
M  V30 5 C 4.028063 0.527346 2.232925 0
M  V30 6 C 2.841084 1.235480 2.426230 0
M  V30 7 C 2.428363 2.130177 1.354572 0
M  V30 8 O 3.159548 2.215725 0.333929 0
M  V30 9 N 1.255512 2.903874 1.398543 0
M  V30 10 C 0.955084 3.753646 0.266816 0 CFG=2
M  V30 11 C 0.800906 5.193775 0.648430 0
M  V30 12 C -0.307108 3.237044 -0.358476 0
M  V30 13 C -1.292532 4.130835 -0.746887 0
M  V30 14 C -2.483884 3.733938 -1.325493 0
M  V30 15 C -2.684591 2.382274 -1.518068 0
M  V30 16 C -1.705810 1.477338 -1.133466 0
M  V30 17 C -1.990759 0.059964 -1.365453 0
M  V30 18 O -3.091930 -0.261624 -1.881238 0
M  V30 19 N -1.110696 -0.987615 -1.049571 0
M  V30 20 C -1.773059 -2.241512 -1.435628 0
M  V30 21 N -1.696523 -2.860893 -2.651628 0
M  V30 22 C -2.391402 -3.969897 -2.719951 0
M  V30 23 C -3.158790 -4.518774 -1.680316 0
M  V30 24 S -2.804086 -3.184269 -0.376555 0
M  V30 25 C -3.947810 -5.691447 -1.612099 0
M  V30 26 N -3.333843 -6.755824 -2.370179 0
M  V30 27 C -4.370021 -7.574286 -2.922191 0
M  V30 28 C -2.362631 -6.313679 -3.307333 0
M  V30 29 C -2.566448 -4.930762 -3.854487 0
M  V30 30 C -0.523636 1.896438 -0.557331 0
M  V30 31 C 2.105257 1.081629 3.583997 0
M  V30 32 C 2.505464 0.232112 4.587945 0
M  V30 33 O 1.843938 0.008224 5.777828 0
M  V30 34 C 0.638200 0.611243 6.175050 0
M  V30 35 H 5.215762 -2.611003 4.194369 0
M  V30 36 H 5.508133 -2.845562 5.923599 0
M  V30 37 H 6.252759 -1.409067 5.124260 0
M  V30 38 H 5.347033 -0.886539 3.115476 0
M  V30 39 H 4.621657 0.620186 1.354967 0
M  V30 40 H 0.618394 2.868499 2.221216 0
M  V30 41 H 1.730224 3.674202 -0.521662 0
M  V30 42 H 1.641548 5.474971 1.326162 0
M  V30 43 H 0.941649 5.838087 -0.252046 0
M  V30 44 H -0.161488 5.437409 1.112045 0
M  V30 45 H -1.198870 5.200302 -0.625043 0
M  V30 46 H -3.266422 4.409281 -1.635897 0
M  V30 47 H -3.620712 2.061954 -1.973979 0
M  V30 48 H -0.201617 -0.782345 -0.629702 0
M  V30 49 H -5.011849 -5.574854 -1.910020 0
M  V30 50 H -4.012808 -6.025223 -0.531951 0
M  V30 51 H -5.378622 -7.221786 -2.616278 0
M  V30 52 H -4.318149 -7.635604 -4.018472 0
M  V30 53 H -4.207021 -8.621356 -2.533677 0
M  V30 54 H -1.353652 -6.438398 -2.851131 0
M  V30 55 H -2.379958 -7.016962 -4.165510 0
M  V30 56 H -3.541187 -4.852661 -4.329913 0
M  V30 57 H -1.806962 -4.783598 -4.658371 0
M  V30 58 H 0.233947 1.188469 -0.260623 0
M  V30 59 H 1.200758 1.624652 3.727209 0
M  V30 60 H -0.058512 -0.202980 6.527387 0
M  V30 61 H 0.092760 1.113859 5.360865 0
M  V30 62 H 0.760902 1.268224 7.070981 0
M  V30 END ATOM
M  V30 BEGIN BOND
M  V30 1 1 1 2
M  V30 2 1 2 3
M  V30 3 2 3 4
M  V30 4 1 4 5
M  V30 5 2 5 6
M  V30 6 1 6 7
M  V30 7 2 7 8
M  V30 8 1 7 9
M  V30 9 1 9 10
M  V30 10 1 10 11
M  V30 11 1 10 12
M  V30 12 2 12 13
M  V30 13 1 13 14
M  V30 14 2 14 15
M  V30 15 1 15 16
M  V30 16 1 16 17
M  V30 17 2 17 18
M  V30 18 1 17 19
M  V30 19 1 19 20
M  V30 20 2 20 21
M  V30 21 1 21 22
M  V30 22 2 22 23
M  V30 23 1 23 24
M  V30 24 1 23 25
M  V30 25 1 25 26
M  V30 26 1 26 27
M  V30 27 1 26 28
M  V30 28 1 28 29
M  V30 29 2 16 30
M  V30 30 1 6 31
M  V30 31 2 31 32
M  V30 32 1 32 33
M  V30 33 1 33 34
M  V30 34 1 32 3
M  V30 35 1 30 12
M  V30 36 1 24 20
M  V30 37 1 29 22
M  V30 38 1 1 35
M  V30 39 1 1 36
M  V30 40 1 1 37
M  V30 41 1 4 38
M  V30 42 1 5 39
M  V30 43 1 9 40
M  V30 44 1 10 41 CFG=3
M  V30 45 1 11 42
M  V30 46 1 11 43
M  V30 47 1 11 44
M  V30 48 1 13 45
M  V30 49 1 14 46
M  V30 50 1 15 47
M  V30 51 1 19 48
M  V30 52 1 25 49
M  V30 53 1 25 50
M  V30 54 1 27 51
M  V30 55 1 27 52
M  V30 56 1 27 53
M  V30 57 1 28 54
M  V30 58 1 28 55
M  V30 59 1 29 56
M  V30 60 1 29 57
M  V30 61 1 30 58
M  V30 62 1 31 59
M  V30 63 1 34 60
M  V30 64 1 34 61
M  V30 65 1 34 62
M  V30 END BOND
M  V30 END CTAB
M  END
>  <Dataset>  (137) 
ChEMBL_Kinases

>  <Ligand_Instance>  (137) 
nan

>  <PDB_ID>  (137) 
nan

>  <Standardized_SMILES>  (137) 
COc1ccc(C(=O)N[C@H](C)c2cccc(C(=O)Nc3nc4c(s3)CN(C)CC4)c2)cc1OC

>  <Name>  (137) 
nan

>  <Pocket>  (137) 
nan

>  <ATP_Site>  (137) 
nan

>  <Peripheral>  (137) 
nan

>  <Num_H_Atoms_ProtBoundConf>  (137) 
nan

>  <Num_Resolved_Atoms>  (137) 
nan

>  <Num_Not_Resolved_Atoms>  (137) 
nan

$$$$
CHEMBL3700969
     RDKit          3D

  0  0  0  0  0  0  0  0  0  0999 V3000
M  V30 BEGIN CTAB
M  V30 COUNTS 70 75 0 0 0
M  V30 BEGIN ATOM
M  V30 1 C 4.713986 -1.403338 6.897584 0
M  V30 2 N 4.947413 -0.381809 5.895774 0
M  V30 3 C 4.726331 0.922966 6.487639 0
M  V30 4 C 4.142514 -0.569944 4.721131 0 CFG=1
M  V30 5 C 2.655742 -0.529124 4.973217 0
M  V30 6 C 1.969878 -1.226317 3.845811 0
M  V30 7 C 2.302458 -0.464799 2.582163 0
M  V30 8 N 1.639636 -0.411181 1.422110 0
M  V30 9 C 1.942273 0.195407 0.466911 0
M  V30 10 N 1.002607 0.082756 -0.728230 0
M  V30 11 C -0.047461 0.988954 -0.887242 0
M  V30 12 O -0.269854 1.925884 -0.081215 0
M  V30 13 C -0.935328 0.855356 -2.033212 0
M  V30 14 C -1.953941 1.798811 -2.182327 0
M  V30 15 C -2.880227 1.801839 -3.204390 0
M  V30 16 C -2.796997 0.801006 -4.149607 0
M  V30 17 C -1.813304 -0.143654 -4.040618 0
M  V30 18 C -1.569666 -1.295573 -4.947643 0 CFG=1
M  V30 19 C -0.228094 -1.163358 -5.632491 0
M  V30 20 C 0.154116 -2.584581 -5.911442 0
M  V30 21 C -0.697431 -3.480492 -5.033167 0
M  V30 22 N -1.352990 -2.523787 -4.161348 0
M  V30 23 C -1.633278 -2.955949 -2.808652 0
M  V30 24 O -1.153325 -4.122968 -2.902129 0
M  V30 25 C -2.252433 -2.313586 -1.681811 0
M  V30 26 C -3.459992 -1.717108 -1.417091 0
M  V30 27 C -3.446936 -1.282782 -0.122451 0
M  V30 28 C -4.499463 -0.597183 0.603325 0
M  V30 29 C -4.311116 -0.229643 1.932047 0
M  V30 30 C -5.290202 0.415191 2.631821 0
M  V30 31 N -6.478178 0.735644 2.106622 0
M  V30 32 C -6.713144 0.399780 0.814363 0
M  V30 33 C -5.732364 -0.249352 0.104194 0
M  V30 34 N -2.254653 -1.609157 0.388670 0
M  V30 35 N -1.540369 -2.222795 -0.535585 0
M  V30 36 C -0.878046 -0.131441 -2.993911 0
M  V30 37 S 3.496641 1.019791 0.951255 0
M  V30 38 C 3.482777 0.303997 2.614291 0
M  V30 39 C 4.460099 0.489989 3.707500 0
M  V30 40 H 5.628715 -1.749518 7.402543 0
M  V30 41 H 4.040376 -0.966484 7.661662 0
M  V30 42 H 4.177703 -2.286884 6.500177 0
M  V30 43 H 5.489178 1.666121 6.201663 0
M  V30 44 H 4.655340 0.811037 7.601817 0
M  V30 45 H 3.727586 1.277989 6.168207 0
M  V30 46 H 4.405438 -1.546830 4.266152 0
M  V30 47 H 2.367342 -1.062005 5.910897 0
M  V30 48 H 2.231928 0.486100 5.037287 0
M  V30 49 H 2.270893 -2.288880 3.726819 0
M  V30 50 H 0.881132 -1.223947 4.056060 0
M  V30 51 H 1.250791 -0.697316 -1.336419 0
M  V30 52 H -2.077516 2.611365 -1.477413 0
M  V30 53 H -3.650588 2.523380 -3.310148 0
M  V30 54 H -3.460045 0.676043 -5.012208 0
M  V30 55 H -2.417423 -1.416394 -5.635580 0
M  V30 56 H 0.488282 -0.725996 -4.901026 0
M  V30 57 H -0.292254 -0.545849 -6.553184 0
M  V30 58 H 0.033219 -2.777130 -6.991059 0
M  V30 59 H 1.246688 -2.719559 -5.655032 0
M  V30 60 H -1.489215 -3.917255 -5.675670 0
M  V30 61 H -0.102119 -4.239401 -4.516109 0
M  V30 62 H -4.219867 -1.650132 -2.157681 0
M  V30 63 H -3.377711 -0.442283 2.460938 0
M  V30 64 H -5.196212 0.727551 3.679426 0
M  V30 65 H -7.665439 0.647076 0.364586 0
M  V30 66 H -5.937852 -0.513710 -0.936132 0
M  V30 67 H -1.942425 -1.403957 1.376786 0
M  V30 68 H -0.076397 -0.842069 -2.853468 0
M  V30 69 H 5.478198 0.364792 3.282790 0
M  V30 70 H 4.366346 1.462375 4.239960 0
M  V30 END ATOM
M  V30 BEGIN BOND
M  V30 1 1 1 2
M  V30 2 1 2 3
M  V30 3 1 2 4
M  V30 4 1 4 5
M  V30 5 1 5 6
M  V30 6 1 6 7
M  V30 7 1 7 8
M  V30 8 2 8 9
M  V30 9 1 9 10
M  V30 10 1 10 11
M  V30 11 2 11 12
M  V30 12 1 11 13
M  V30 13 2 13 14
M  V30 14 1 14 15
M  V30 15 2 15 16
M  V30 16 1 16 17
M  V30 17 1 17 18
M  V30 18 1 18 19
M  V30 19 1 19 20
M  V30 20 1 20 21
M  V30 21 1 21 22
M  V30 22 1 22 23
M  V30 23 2 23 24
M  V30 24 1 23 25
M  V30 25 1 25 26
M  V30 26 2 26 27
M  V30 27 1 27 28
M  V30 28 2 28 29
M  V30 29 1 29 30
M  V30 30 2 30 31
M  V30 31 1 31 32
M  V30 32 2 32 33
M  V30 33 1 27 34
M  V30 34 1 34 35
M  V30 35 2 17 36
M  V30 36 1 9 37
M  V30 37 1 37 38
M  V30 38 1 38 39
M  V30 39 1 39 4
M  V30 40 2 38 7
M  V30 41 1 36 13
M  V30 42 1 22 18
M  V30 43 2 35 25
M  V30 44 1 33 28
M  V30 45 1 1 40
M  V30 46 1 1 41
M  V30 47 1 1 42
M  V30 48 1 3 43
M  V30 49 1 3 44
M  V30 50 1 3 45
M  V30 51 1 4 46 CFG=3
M  V30 52 1 5 47
M  V30 53 1 5 48
M  V30 54 1 6 49
M  V30 55 1 6 50
M  V30 56 1 10 51
M  V30 57 1 14 52
M  V30 58 1 15 53
M  V30 59 1 16 54
M  V30 60 1 18 55 CFG=3
M  V30 61 1 19 56
M  V30 62 1 19 57
M  V30 63 1 20 58
M  V30 64 1 20 59
M  V30 65 1 21 60
M  V30 66 1 21 61
M  V30 67 1 26 62
M  V30 68 1 29 63
M  V30 69 1 30 64
M  V30 70 1 32 65
M  V30 71 1 33 66
M  V30 72 1 34 67
M  V30 73 1 36 68
M  V30 74 1 39 69
M  V30 75 1 39 70
M  V30 END BOND
M  V30 END CTAB
M  END
>  <Dataset>  (138) 
ChEMBL_Kinases

>  <Ligand_Instance>  (138) 
nan

>  <PDB_ID>  (138) 
nan

>  <Standardized_SMILES>  (138) 
CN(C)[C@H]1CCc2nc(NC(=O)c3cccc([C@H]4CCCN4C(=O)c4cc(-c5ccncc5)[nH]n4)c3)sc2C1

>  <Name>  (138) 
nan

>  <Pocket>  (138) 
nan

>  <ATP_Site>  (138) 
nan

>  <Peripheral>  (138) 
nan

>  <Num_H_Atoms_ProtBoundConf>  (138) 
nan

>  <Num_Resolved_Atoms>  (138) 
nan

>  <Num_Not_Resolved_Atoms>  (138) 
nan

$$$$
CHEMBL3700968
     RDKit          3D

  0  0  0  0  0  0  0  0  0  0999 V3000
M  V30 BEGIN CTAB
M  V30 COUNTS 69 74 0 0 0
M  V30 BEGIN ATOM
M  V30 1 C 2.397016 0.554079 6.373966 0
M  V30 2 N 3.425712 0.714308 5.383803 0
M  V30 3 C 3.030193 1.599718 4.333304 0
M  V30 4 C 4.039408 -0.508135 4.965996 0 CFG=1
M  V30 5 C 3.060304 -1.489409 4.379054 0
M  V30 6 C 3.745729 -2.400641 3.357725 0
M  V30 7 C 4.068879 -1.459439 2.219984 0
M  V30 8 N 3.716313 -1.588951 0.939814 0
M  V30 9 C 4.028729 -0.767106 0.129523 0
M  V30 10 N 3.604549 -0.889223 -1.322093 0
M  V30 11 C 2.431123 -0.139301 -1.395264 0
M  V30 12 O 1.899828 0.484159 -0.441259 0
M  V30 13 C 1.551753 0.106266 -2.553489 0
M  V30 14 C 1.557677 1.239753 -3.336689 0
M  V30 15 C 0.639081 1.314452 -4.363451 0
M  V30 16 C -0.225922 0.258379 -4.546366 0
M  V30 17 C -0.257693 -0.894951 -3.774874 0
M  V30 18 C -1.277060 -1.914902 -4.142892 0 CFG=1
M  V30 19 C -0.660140 -3.305145 -4.153280 0
M  V30 20 C -1.880247 -4.194434 -3.935559 0
M  V30 21 C -2.958251 -3.341137 -3.339632 0
M  V30 22 N -2.280050 -2.088948 -3.079536 0
M  V30 23 C -2.444192 -1.115017 -2.058742 0
M  V30 24 O -1.748056 -0.041353 -1.979133 0
M  V30 25 C -3.385401 -1.109646 -0.936924 0
M  V30 26 C -3.342068 -2.286282 -0.101109 0
M  V30 27 S -4.662727 -1.916908 1.203871 0
M  V30 28 C -5.005681 -0.280747 0.379605 0
M  V30 29 C -6.051019 0.615213 0.968627 0
M  V30 30 C -6.216257 1.809018 0.290479 0
M  V30 31 C -7.191430 2.654350 0.848425 0
M  V30 32 N -7.877134 2.299186 1.940062 0
M  V30 33 C -7.691594 1.140720 2.568482 0
M  V30 34 C -6.747312 0.239961 2.088007 0
M  V30 35 N -4.274595 -0.253972 -0.517090 0
M  V30 36 C 0.670492 -0.968345 -2.739700 0
M  V30 37 S 4.982571 0.533660 0.965719 0
M  V30 38 C 4.822571 -0.339022 2.625867 0
M  V30 39 C 5.191869 -0.211660 4.040715 0
M  V30 40 H 2.046215 -0.481091 6.459099 0
M  V30 41 H 2.845413 0.858844 7.364320 0
M  V30 42 H 1.498292 1.195173 6.201288 0
M  V30 43 H 1.995173 1.376334 3.946274 0
M  V30 44 H 3.759728 1.727821 3.537506 0
M  V30 45 H 2.932619 2.614570 4.818965 0
M  V30 46 H 4.468740 -0.999596 5.873644 0
M  V30 47 H 2.238604 -0.993272 3.796385 0
M  V30 48 H 2.564937 -2.095858 5.145923 0
M  V30 49 H 4.709676 -2.727813 3.790603 0
M  V30 50 H 3.048092 -3.186013 3.083456 0
M  V30 51 H 3.934308 -1.334577 -2.173163 0
M  V30 52 H 2.300396 1.991703 -3.073463 0
M  V30 53 H 0.645737 2.205582 -4.968888 0
M  V30 54 H -0.916931 0.416580 -5.387927 0
M  V30 55 H -1.772545 -1.664531 -5.070421 0
M  V30 56 H -0.154484 -3.531146 -5.093394 0
M  V30 57 H -0.051266 -3.425388 -3.235573 0
M  V30 58 H -2.193565 -4.564168 -4.933995 0
M  V30 59 H -1.612989 -5.056549 -3.267470 0
M  V30 60 H -3.711088 -3.099872 -4.149766 0
M  V30 61 H -3.450414 -3.775508 -2.443573 0
M  V30 62 H -2.609074 -3.243069 -0.257771 0
M  V30 63 H -5.629111 2.047525 -0.596478 0
M  V30 64 H -7.365059 3.605386 0.355060 0
M  V30 65 H -8.266245 0.876221 3.455544 0
M  V30 66 H -6.566571 -0.723260 2.580025 0
M  V30 67 H 0.640490 -1.870351 -2.146701 0
M  V30 68 H 6.077761 -0.847166 4.221732 0
M  V30 69 H 5.515031 0.839162 4.187140 0
M  V30 END ATOM
M  V30 BEGIN BOND
M  V30 1 1 1 2
M  V30 2 1 2 3
M  V30 3 1 2 4
M  V30 4 1 4 5
M  V30 5 1 5 6
M  V30 6 1 6 7
M  V30 7 1 7 8
M  V30 8 2 8 9
M  V30 9 1 9 10
M  V30 10 1 10 11
M  V30 11 2 11 12
M  V30 12 1 11 13
M  V30 13 2 13 14
M  V30 14 1 14 15
M  V30 15 2 15 16
M  V30 16 1 16 17
M  V30 17 1 17 18
M  V30 18 1 18 19
M  V30 19 1 19 20
M  V30 20 1 20 21
M  V30 21 1 21 22
M  V30 22 1 22 23
M  V30 23 2 23 24
M  V30 24 1 23 25
M  V30 25 2 25 26
M  V30 26 1 26 27
M  V30 27 1 27 28
M  V30 28 1 28 29
M  V30 29 2 29 30
M  V30 30 1 30 31
M  V30 31 2 31 32
M  V30 32 1 32 33
M  V30 33 2 33 34
M  V30 34 2 28 35
M  V30 35 2 17 36
M  V30 36 1 9 37
M  V30 37 1 37 38
M  V30 38 1 38 39
M  V30 39 1 39 4
M  V30 40 2 38 7
M  V30 41 1 36 13
M  V30 42 1 22 18
M  V30 43 1 35 25
M  V30 44 1 34 29
M  V30 45 1 1 40
M  V30 46 1 1 41
M  V30 47 1 1 42
M  V30 48 1 3 43
M  V30 49 1 3 44
M  V30 50 1 3 45
M  V30 51 1 4 46 CFG=1
M  V30 52 1 5 47
M  V30 53 1 5 48
M  V30 54 1 6 49
M  V30 55 1 6 50
M  V30 56 1 10 51
M  V30 57 1 14 52
M  V30 58 1 15 53
M  V30 59 1 16 54
M  V30 60 1 18 55 CFG=3
M  V30 61 1 19 56
M  V30 62 1 19 57
M  V30 63 1 20 58
M  V30 64 1 20 59
M  V30 65 1 21 60
M  V30 66 1 21 61
M  V30 67 1 26 62
M  V30 68 1 30 63
M  V30 69 1 31 64
M  V30 70 1 33 65
M  V30 71 1 34 66
M  V30 72 1 36 67
M  V30 73 1 39 68
M  V30 74 1 39 69
M  V30 END BOND
M  V30 END CTAB
M  END
>  <Dataset>  (139) 
ChEMBL_Kinases

>  <Ligand_Instance>  (139) 
nan

>  <PDB_ID>  (139) 
nan

>  <Standardized_SMILES>  (139) 
CN(C)[C@H]1CCc2nc(NC(=O)c3cccc([C@H]4CCCN4C(=O)c4csc(-c5ccncc5)n4)c3)sc2C1

>  <Name>  (139) 
nan

>  <Pocket>  (139) 
nan

>  <ATP_Site>  (139) 
nan

>  <Peripheral>  (139) 
nan

>  <Num_H_Atoms_ProtBoundConf>  (139) 
nan

>  <Num_Resolved_Atoms>  (139) 
nan

>  <Num_Not_Resolved_Atoms>  (139) 
nan

$$$$
CHEMBL3700967
     RDKit          3D

  0  0  0  0  0  0  0  0  0  0999 V3000
M  V30 BEGIN CTAB
M  V30 COUNTS 61 64 0 0 0
M  V30 BEGIN ATOM
M  V30 1 C 2.565141 -6.138803 2.703491 0
M  V30 2 O 2.707465 -4.913735 3.399031 0
M  V30 3 C 2.727945 -3.746018 2.640757 0
M  V30 4 C 2.629610 -3.632640 1.283773 0
M  V30 5 C 2.657243 -2.439346 0.593411 0
M  V30 6 C 2.795122 -1.267266 1.329630 0
M  V30 7 C 2.819783 -0.022354 0.588908 0
M  V30 8 O 2.772542 -0.072357 -0.679078 0
M  V30 9 N 2.891333 1.256566 1.164134 0
M  V30 10 C 2.924613 2.588924 0.597557 0 CFG=2
M  V30 11 C 4.114432 3.389345 0.998894 0
M  V30 12 C 1.619996 3.268402 0.896474 0
M  V30 13 C 1.389969 4.534901 1.377982 0
M  V30 14 C 0.091097 4.939016 1.585028 0
M  V30 15 C -0.992737 4.100051 1.319964 0
M  V30 16 C -0.775400 2.851446 0.844120 0
M  V30 17 C -1.988150 2.089089 0.619539 0
M  V30 18 O -3.105133 2.515736 1.004576 0
M  V30 19 N -1.888099 0.867505 -0.035787 0
M  V30 20 C -2.812063 -0.226008 -0.472305 0
M  V30 21 N -3.375915 -0.221322 -1.515506 0
M  V30 22 C -4.193732 -1.151906 -1.971357 0
M  V30 23 C -4.412335 -2.250451 -1.135471 0
M  V30 24 S -3.327206 -1.764666 0.318616 0
M  V30 25 C -5.289507 -3.343493 -1.564937 0
M  V30 26 N -5.000500 -3.785086 -2.913061 0
M  V30 27 C -3.957157 -4.798275 -2.898970 0
M  V30 28 C -4.565508 -2.704469 -3.767654 0
M  V30 29 C -5.017056 -1.372267 -3.215914 0
M  V30 30 C 0.518574 2.434638 0.633655 0
M  V30 31 C 2.898764 -1.327518 2.704072 0
M  V30 32 C 2.865484 -2.561031 3.361658 0
M  V30 33 C 2.982870 -2.464471 4.831796 0
M  V30 34 H 1.610551 -6.112801 2.142265 0
M  V30 35 H 3.344487 -6.306303 1.942711 0
M  V30 36 H 2.563503 -6.978456 3.407850 0
M  V30 37 H 2.523524 -4.560244 0.736067 0
M  V30 38 H 2.572828 -2.446915 -0.470282 0
M  V30 39 H 2.928424 1.367203 2.191665 0
M  V30 40 H 2.926789 2.450234 -0.518049 0
M  V30 41 H 4.364202 4.137929 0.249389 0
M  V30 42 H 4.970287 2.659821 1.120540 0
M  V30 43 H 3.894516 3.854262 1.994795 0
M  V30 44 H 2.307574 5.055672 1.531920 0
M  V30 45 H -0.006951 5.933377 1.957913 0
M  V30 46 H -1.961130 4.540508 1.527960 0
M  V30 47 H -0.993980 0.481497 -0.375200 0
M  V30 48 H -6.335784 -2.995147 -1.536390 0
M  V30 49 H -5.211011 -4.226215 -0.899885 0
M  V30 50 H -3.146313 -4.590387 -2.182034 0
M  V30 51 H -4.431753 -5.769688 -2.647136 0
M  V30 52 H -3.501424 -4.855718 -3.908539 0
M  V30 53 H -3.454666 -2.620341 -3.854637 0
M  V30 54 H -4.992535 -2.896075 -4.787244 0
M  V30 55 H -4.870284 -0.556118 -3.935163 0
M  V30 56 H -6.086193 -1.510068 -2.910438 0
M  V30 57 H 0.645661 1.430155 0.252257 0
M  V30 58 H 3.001718 -0.390001 3.211022 0
M  V30 59 H 2.817942 -3.480867 5.261919 0
M  V30 60 H 4.007782 -2.152805 5.111056 0
M  V30 61 H 2.212938 -1.755263 5.194076 0
M  V30 END ATOM
M  V30 BEGIN BOND
M  V30 1 1 1 2
M  V30 2 1 2 3
M  V30 3 2 3 4
M  V30 4 1 4 5
M  V30 5 2 5 6
M  V30 6 1 6 7
M  V30 7 2 7 8
M  V30 8 1 7 9
M  V30 9 1 9 10
M  V30 10 1 10 11
M  V30 11 1 10 12
M  V30 12 2 12 13
M  V30 13 1 13 14
M  V30 14 2 14 15
M  V30 15 1 15 16
M  V30 16 1 16 17
M  V30 17 2 17 18
M  V30 18 1 17 19
M  V30 19 1 19 20
M  V30 20 2 20 21
M  V30 21 1 21 22
M  V30 22 2 22 23
M  V30 23 1 23 24
M  V30 24 1 23 25
M  V30 25 1 25 26
M  V30 26 1 26 27
M  V30 27 1 26 28
M  V30 28 1 28 29
M  V30 29 2 16 30
M  V30 30 1 6 31
M  V30 31 2 31 32
M  V30 32 1 32 33
M  V30 33 1 32 3
M  V30 34 1 30 12
M  V30 35 1 24 20
M  V30 36 1 29 22
M  V30 37 1 1 34
M  V30 38 1 1 35
M  V30 39 1 1 36
M  V30 40 1 4 37
M  V30 41 1 5 38
M  V30 42 1 9 39
M  V30 43 1 10 40 CFG=3
M  V30 44 1 11 41
M  V30 45 1 11 42
M  V30 46 1 11 43
M  V30 47 1 13 44
M  V30 48 1 14 45
M  V30 49 1 15 46
M  V30 50 1 19 47
M  V30 51 1 25 48
M  V30 52 1 25 49
M  V30 53 1 27 50
M  V30 54 1 27 51
M  V30 55 1 27 52
M  V30 56 1 28 53
M  V30 57 1 28 54
M  V30 58 1 29 55
M  V30 59 1 29 56
M  V30 60 1 30 57
M  V30 61 1 31 58
M  V30 62 1 33 59
M  V30 63 1 33 60
M  V30 64 1 33 61
M  V30 END BOND
M  V30 END CTAB
M  END
>  <Dataset>  (140) 
ChEMBL_Kinases

>  <Ligand_Instance>  (140) 
nan

>  <PDB_ID>  (140) 
nan

>  <Standardized_SMILES>  (140) 
COc1ccc(C(=O)N[C@H](C)c2cccc(C(=O)Nc3nc4c(s3)CN(C)CC4)c2)cc1C

>  <Name>  (140) 
nan

>  <Pocket>  (140) 
nan

>  <ATP_Site>  (140) 
nan

>  <Peripheral>  (140) 
nan

>  <Num_H_Atoms_ProtBoundConf>  (140) 
nan

>  <Num_Resolved_Atoms>  (140) 
nan

>  <Num_Not_Resolved_Atoms>  (140) 
nan

$$$$
CHEMBL3700966
     RDKit          3D

  0  0  0  0  0  0  0  0  0  0999 V3000
M  V30 BEGIN CTAB
M  V30 COUNTS 69 74 0 0 0
M  V30 BEGIN ATOM
M  V30 1 C 2.213340 -0.211159 6.202998 0
M  V30 2 N 2.150343 -1.182296 5.105501 0
M  V30 3 C 1.177516 -2.159029 5.496211 0
M  V30 4 C 3.442436 -1.713621 4.754878 0 CFG=1
M  V30 5 C 3.221324 -2.683021 3.578509 0
M  V30 6 C 4.301616 -2.441947 2.496126 0
M  V30 7 C 3.881233 -1.101051 1.940992 0
M  V30 8 N 3.507600 -0.748019 0.738698 0
M  V30 9 C 3.148821 0.263313 0.377979 0
M  V30 10 N 2.710738 0.974269 -0.908902 0
M  V30 11 C 1.463999 0.428530 -1.184308 0
M  V30 12 O 1.101501 -0.466244 -0.334901 0
M  V30 13 C 0.523060 0.692339 -2.253044 0
M  V30 14 C 0.301466 1.885344 -2.930272 0
M  V30 15 C -0.606784 2.002935 -3.961951 0
M  V30 16 C -1.348314 0.904565 -4.369680 0
M  V30 17 C -1.168349 -0.322166 -3.729946 0
M  V30 18 C -1.925709 -1.529981 -4.154489 0 CFG=1
M  V30 19 C -1.202429 -2.281099 -5.233374 0
M  V30 20 C -1.659710 -3.705176 -5.062916 0
M  V30 21 C -1.770788 -3.848540 -3.529411 0
M  V30 22 N -2.171419 -2.487776 -3.125869 0
M  V30 23 C -2.693476 -2.458909 -1.811337 0
M  V30 24 O -2.564014 -3.700282 -1.534195 0
M  V30 25 C -3.230106 -1.447360 -0.942870 0
M  V30 26 C -4.440363 -2.118979 -0.567757 0
M  V30 27 S -5.213341 -0.838884 0.602812 0
M  V30 28 C -3.806267 0.280460 0.349796 0
M  V30 29 C -3.788743 1.602925 1.060671 0
M  V30 30 C -4.851429 1.905736 1.909605 0
M  V30 31 C -4.847157 3.138400 2.575728 0
M  V30 32 C -3.757507 3.923209 2.299325 0
M  V30 33 N -2.738465 3.600817 1.468227 0
M  V30 34 C -2.724940 2.419333 0.818653 0
M  V30 35 N -3.091861 -0.277141 -0.391244 0
M  V30 36 C -0.256771 -0.350199 -2.724199 0
M  V30 37 S 3.211128 1.347855 1.917861 0
M  V30 38 C 3.837803 -0.089095 2.925839 0
M  V30 39 C 4.295630 -0.549988 4.305824 0
M  V30 40 H 2.479783 0.801405 5.876158 0
M  V30 41 H 1.157270 -0.091781 6.601631 0
M  V30 42 H 2.837677 -0.661868 6.975214 0
M  V30 43 H 1.494216 -3.205725 5.303730 0
M  V30 44 H 0.990491 -2.112534 6.591202 0
M  V30 45 H 0.243827 -1.986753 4.910960 0
M  V30 46 H 3.937455 -2.212637 5.583357 0
M  V30 47 H 3.169914 -3.723909 3.891762 0
M  V30 48 H 2.266021 -2.444230 3.060318 0
M  V30 49 H 5.299833 -2.363747 2.907353 0
M  V30 50 H 4.133151 -3.263761 1.772474 0
M  V30 51 H 3.093345 1.675999 -1.527063 0
M  V30 52 H 0.914598 2.727714 -2.570809 0
M  V30 53 H -0.731736 2.968595 -4.443975 0
M  V30 54 H -2.073735 0.979488 -5.178673 0
M  V30 55 H -2.920204 -1.261541 -4.578067 0
M  V30 56 H -0.108576 -2.264432 -5.034578 0
M  V30 57 H -1.436640 -1.886220 -6.248839 0
M  V30 58 H -0.932908 -4.452441 -5.451593 0
M  V30 59 H -2.675884 -3.793071 -5.480746 0
M  V30 60 H -0.841630 -4.180711 -3.072928 0
M  V30 61 H -2.605578 -4.532123 -3.295287 0
M  V30 62 H -5.219924 -3.030319 -0.589321 0
M  V30 63 H -5.693345 1.248122 2.100434 0
M  V30 64 H -5.626030 3.439925 3.240685 0
M  V30 65 H -3.628557 4.898803 2.742885 0
M  V30 66 H -1.950681 2.090013 0.141183 0
M  V30 67 H -0.143794 -1.332468 -2.243410 0
M  V30 68 H 5.357768 -0.784778 4.164326 0
M  V30 69 H 4.191103 0.291139 4.980373 0
M  V30 END ATOM
M  V30 BEGIN BOND
M  V30 1 1 1 2
M  V30 2 1 2 3
M  V30 3 1 2 4
M  V30 4 1 4 5
M  V30 5 1 5 6
M  V30 6 1 6 7
M  V30 7 1 7 8
M  V30 8 2 8 9
M  V30 9 1 9 10
M  V30 10 1 10 11
M  V30 11 2 11 12
M  V30 12 1 11 13
M  V30 13 2 13 14
M  V30 14 1 14 15
M  V30 15 2 15 16
M  V30 16 1 16 17
M  V30 17 1 17 18
M  V30 18 1 18 19
M  V30 19 1 19 20
M  V30 20 1 20 21
M  V30 21 1 21 22
M  V30 22 1 22 23
M  V30 23 2 23 24
M  V30 24 1 23 25
M  V30 25 2 25 26
M  V30 26 1 26 27
M  V30 27 1 27 28
M  V30 28 1 28 29
M  V30 29 2 29 30
M  V30 30 1 30 31
M  V30 31 2 31 32
M  V30 32 1 32 33
M  V30 33 2 33 34
M  V30 34 2 28 35
M  V30 35 2 17 36
M  V30 36 1 9 37
M  V30 37 1 37 38
M  V30 38 1 38 39
M  V30 39 1 39 4
M  V30 40 2 38 7
M  V30 41 1 36 13
M  V30 42 1 22 18
M  V30 43 1 35 25
M  V30 44 1 34 29
M  V30 45 1 1 40
M  V30 46 1 1 41
M  V30 47 1 1 42
M  V30 48 1 3 43
M  V30 49 1 3 44
M  V30 50 1 3 45
M  V30 51 1 4 46 CFG=1
M  V30 52 1 5 47
M  V30 53 1 5 48
M  V30 54 1 6 49
M  V30 55 1 6 50
M  V30 56 1 10 51
M  V30 57 1 14 52
M  V30 58 1 15 53
M  V30 59 1 16 54
M  V30 60 1 18 55 CFG=3
M  V30 61 1 19 56
M  V30 62 1 19 57
M  V30 63 1 20 58
M  V30 64 1 20 59
M  V30 65 1 21 60
M  V30 66 1 21 61
M  V30 67 1 26 62
M  V30 68 1 30 63
M  V30 69 1 31 64
M  V30 70 1 32 65
M  V30 71 1 34 66
M  V30 72 1 36 67
M  V30 73 1 39 68
M  V30 74 1 39 69
M  V30 END BOND
M  V30 END CTAB
M  END
>  <Dataset>  (141) 
ChEMBL_Kinases

>  <Ligand_Instance>  (141) 
nan

>  <PDB_ID>  (141) 
nan

>  <Standardized_SMILES>  (141) 
CN(C)[C@H]1CCc2nc(NC(=O)c3cccc([C@H]4CCCN4C(=O)c4csc(-c5cccnc5)n4)c3)sc2C1

>  <Name>  (141) 
nan

>  <Pocket>  (141) 
nan

>  <ATP_Site>  (141) 
nan

>  <Peripheral>  (141) 
nan

>  <Num_H_Atoms_ProtBoundConf>  (141) 
nan

>  <Num_Resolved_Atoms>  (141) 
nan

>  <Num_Not_Resolved_Atoms>  (141) 
nan

$$$$
CHEMBL3700948
     RDKit          3D

  0  0  0  0  0  0  0  0  0  0999 V3000
M  V30 BEGIN CTAB
M  V30 COUNTS 63 68 0 0 0
M  V30 BEGIN ATOM
M  V30 1 C 5.503545 -0.026563 5.822773 0
M  V30 2 N 4.949705 0.525622 4.619020 0
M  V30 3 C 5.891632 0.600710 3.515706 0
M  V30 4 C 5.119484 0.538627 2.241938 0
M  V30 5 C 4.038141 1.586611 2.316996 0
M  V30 6 N 3.331194 1.965677 1.255024 0
M  V30 7 C 2.464681 2.790872 1.275180 0
M  V30 8 N 1.658908 3.234478 0.103856 0
M  V30 9 C 0.543511 2.387068 0.058024 0
M  V30 10 O 0.484694 1.500435 0.964179 0
M  V30 11 C -0.517904 2.465709 -0.941001 0
M  V30 12 C -0.450228 3.434846 -1.919860 0
M  V30 13 C -1.459664 3.495715 -2.857472 0
M  V30 14 C -2.517146 2.614349 -2.828093 0
M  V30 15 C -2.614342 1.635391 -1.864358 0
M  V30 16 C -3.640517 0.589097 -1.636570 0 CFG=1
M  V30 17 C -4.437436 0.243757 -2.875095 0
M  V30 18 C -3.572493 -0.825044 -3.550247 0
M  V30 19 C -2.365599 -0.857349 -2.656828 0
M  V30 20 N -2.932390 -0.673777 -1.334864 0
M  V30 21 C -2.963538 -1.311838 -0.046554 0
M  V30 22 O -3.575097 -0.892606 0.968192 0
M  V30 23 C -2.149541 -2.549210 -0.126313 0
M  V30 24 C -0.778968 -2.716909 -0.404811 0
M  V30 25 S -0.621261 -4.589585 -0.299566 0
M  V30 26 C -2.386509 -4.763829 0.088084 0
M  V30 27 C -2.876999 -6.122954 0.292020 0
M  V30 28 C -2.093760 -7.241889 0.207220 0
M  V30 29 C -2.657183 -8.488987 0.417787 0
M  V30 30 N -3.954168 -8.627833 0.703344 0
M  V30 31 C -4.716179 -7.517775 0.784352 0
M  V30 32 C -4.216802 -6.229961 0.584415 0
M  V30 33 N -2.882043 -3.618117 0.108422 0
M  V30 34 C -1.580469 1.587230 -0.919117 0
M  V30 35 S 2.388091 3.337591 3.014384 0
M  V30 36 C 3.744742 2.188071 3.504457 0
M  V30 37 C 4.442159 1.874259 4.784435 0
M  V30 38 H 4.639273 -0.321948 6.469751 0
M  V30 39 H 5.994521 -0.983549 5.556967 0
M  V30 40 H 6.165532 0.647878 6.386841 0
M  V30 41 H 6.518103 1.506744 3.610215 0
M  V30 42 H 6.549691 -0.305934 3.536564 0
M  V30 43 H 5.738054 0.616332 1.345449 0
M  V30 44 H 4.567661 -0.437449 2.237377 0
M  V30 45 H 1.771280 3.971611 -0.594907 0
M  V30 46 H 0.335119 4.159919 -2.017498 0
M  V30 47 H -1.523169 4.214887 -3.682694 0
M  V30 48 H -3.339127 2.604536 -3.526356 0
M  V30 49 H -4.291679 0.876146 -0.783539 0
M  V30 50 H -4.617625 1.061515 -3.560548 0
M  V30 51 H -5.379962 -0.239336 -2.508836 0
M  V30 52 H -4.082437 -1.802570 -3.488008 0
M  V30 53 H -3.338705 -0.540494 -4.591478 0
M  V30 54 H -1.765811 -1.779930 -2.735563 0
M  V30 55 H -1.753688 0.053991 -2.896594 0
M  V30 56 H -0.253310 -1.596953 -0.599076 0
M  V30 57 H -1.053058 -7.160561 -0.019870 0
M  V30 58 H -1.995567 -9.340511 0.339232 0
M  V30 59 H -5.770377 -7.621824 1.016118 0
M  V30 60 H -4.889886 -5.395372 0.666263 0
M  V30 61 H -1.544828 0.854358 -0.103670 0
M  V30 62 H 3.774820 1.912073 5.647607 0
M  V30 63 H 5.289457 2.571983 4.947489 0
M  V30 END ATOM
M  V30 BEGIN BOND
M  V30 1 1 1 2
M  V30 2 1 2 3
M  V30 3 1 3 4
M  V30 4 1 4 5
M  V30 5 1 5 6
M  V30 6 2 6 7
M  V30 7 1 7 8
M  V30 8 1 8 9
M  V30 9 2 9 10
M  V30 10 1 9 11
M  V30 11 2 11 12
M  V30 12 1 12 13
M  V30 13 2 13 14
M  V30 14 1 14 15
M  V30 15 1 15 16
M  V30 16 1 16 17
M  V30 17 1 17 18
M  V30 18 1 18 19
M  V30 19 1 19 20
M  V30 20 1 20 21
M  V30 21 2 21 22
M  V30 22 1 21 23
M  V30 23 2 23 24
M  V30 24 1 24 25
M  V30 25 1 25 26
M  V30 26 1 26 27
M  V30 27 2 27 28
M  V30 28 1 28 29
M  V30 29 2 29 30
M  V30 30 1 30 31
M  V30 31 2 31 32
M  V30 32 2 26 33
M  V30 33 2 15 34
M  V30 34 1 7 35
M  V30 35 1 35 36
M  V30 36 1 36 37
M  V30 37 1 37 2
M  V30 38 2 36 5
M  V30 39 1 34 11
M  V30 40 1 20 16
M  V30 41 1 33 23
M  V30 42 1 32 27
M  V30 43 1 1 38
M  V30 44 1 1 39
M  V30 45 1 1 40
M  V30 46 1 3 41
M  V30 47 1 3 42
M  V30 48 1 4 43
M  V30 49 1 4 44
M  V30 50 1 8 45
M  V30 51 1 12 46
M  V30 52 1 13 47
M  V30 53 1 14 48
M  V30 54 1 16 49 CFG=1
M  V30 55 1 17 50
M  V30 56 1 17 51
M  V30 57 1 18 52
M  V30 58 1 18 53
M  V30 59 1 19 54
M  V30 60 1 19 55
M  V30 61 1 24 56
M  V30 62 1 28 57
M  V30 63 1 29 58
M  V30 64 1 31 59
M  V30 65 1 32 60
M  V30 66 1 34 61
M  V30 67 1 37 62
M  V30 68 1 37 63
M  V30 END BOND
M  V30 END CTAB
M  END
>  <Dataset>  (142) 
ChEMBL_Kinases

>  <Ligand_Instance>  (142) 
nan

>  <PDB_ID>  (142) 
nan

>  <Standardized_SMILES>  (142) 
CN1CCc2nc(NC(=O)c3cccc([C@H]4CCCN4C(=O)c4csc(-c5ccncc5)n4)c3)sc2C1

>  <Name>  (142) 
nan

>  <Pocket>  (142) 
nan

>  <ATP_Site>  (142) 
nan

>  <Peripheral>  (142) 
nan

>  <Num_H_Atoms_ProtBoundConf>  (142) 
nan

>  <Num_Resolved_Atoms>  (142) 
nan

>  <Num_Not_Resolved_Atoms>  (142) 
nan

$$$$
CHEMBL3700949
     RDKit          3D

  0  0  0  0  0  0  0  0  0  0999 V3000
M  V30 BEGIN CTAB
M  V30 COUNTS 65 69 0 0 0
M  V30 BEGIN ATOM
M  V30 1 C 3.859493 -1.487249 3.705616 0
M  V30 2 N 4.612323 -0.299116 3.466147 0
M  V30 3 C 5.758207 -0.431682 2.639791 0
M  V30 4 C 6.028824 0.769206 1.766174 0
M  V30 5 C 4.793769 1.331616 1.174027 0
M  V30 6 C 4.750281 1.756311 -0.117433 0
M  V30 7 C 3.587513 2.279451 -0.656450 0
M  V30 8 C 2.475427 2.355860 0.158235 0
M  V30 9 N 1.174825 2.867595 -0.216224 0
M  V30 10 C 0.414412 1.785190 -0.721081 0
M  V30 11 O 1.095038 0.704619 -0.693273 0
M  V30 12 C -0.974738 1.928189 -1.204555 0
M  V30 13 C -1.722266 3.088096 -1.241955 0
M  V30 14 C -3.010224 3.014663 -1.732696 0
M  V30 15 C -3.524537 1.810843 -2.170331 0
M  V30 16 C -2.790050 0.618588 -2.144453 0
M  V30 17 C -3.491995 -0.542940 -2.651940 0
M  V30 18 C -4.989040 -0.374118 -2.727396 0
M  V30 19 C -5.405614 -1.843548 -2.940617 0
M  V30 20 C -4.079457 -2.608790 -2.803418 0
M  V30 21 N -3.418069 -1.742065 -1.827379 0
M  V30 22 C -3.012643 -2.358873 -0.593064 0
M  V30 23 O -3.388728 -3.569693 -0.779673 0
M  V30 24 N -2.384247 -1.994777 0.611316 0
M  V30 25 C -2.222447 -3.060828 1.540547 0
M  V30 26 C -1.025461 -3.708732 1.356874 0
M  V30 27 C -0.676746 -4.790091 2.173337 0
M  V30 28 C -1.564180 -5.179077 3.156816 0
M  V30 29 C -2.761935 -4.521960 3.332005 0
M  V30 30 C -3.722883 -4.897887 4.352610 0
M  V30 31 N -4.495219 -5.213395 5.155755 0
M  V30 32 C -3.114300 -3.456541 2.533584 0
M  V30 33 C -1.512691 0.738338 -1.648079 0
M  V30 34 C 2.503993 1.928357 1.472616 0
M  V30 35 C 3.677997 1.411601 1.981052 0
M  V30 36 C 3.872957 0.911779 3.365701 0
M  V30 37 H 3.927722 -2.138686 2.787793 0
M  V30 38 H 2.794541 -1.245705 3.940090 0
M  V30 39 H 4.344218 -2.039164 4.541718 0
M  V30 40 H 5.570880 -1.301634 1.946884 0
M  V30 41 H 6.696278 -0.691311 3.163944 0
M  V30 42 H 6.504206 1.558807 2.406812 0
M  V30 43 H 6.725731 0.532234 0.948619 0
M  V30 44 H 5.609117 1.706349 -0.775074 0
M  V30 45 H 3.444697 2.643877 -1.665213 0
M  V30 46 H 0.733395 3.835329 -0.179044 0
M  V30 47 H -1.191526 3.952487 -0.868091 0
M  V30 48 H -3.555259 3.937341 -1.744206 0
M  V30 49 H -4.551555 1.871200 -2.536988 0
M  V30 50 H -3.118334 -0.767277 -3.675699 0
M  V30 51 H -5.442422 -0.059552 -1.788763 0
M  V30 52 H -5.342429 0.265007 -3.536303 0
M  V30 53 H -5.750860 -1.978673 -3.965124 0
M  V30 54 H -6.048450 -2.216521 -2.143441 0
M  V30 55 H -3.517260 -2.548985 -3.765195 0
M  V30 56 H -4.233879 -3.632513 -2.493057 0
M  V30 57 H -2.173932 -0.979326 0.542942 0
M  V30 58 H -0.268249 -3.484224 0.622509 0
M  V30 59 H 0.269294 -5.332847 2.058203 0
M  V30 60 H -1.369633 -6.017697 3.841525 0
M  V30 61 H -4.025015 -2.865784 2.577852 0
M  V30 62 H -0.970460 -0.221211 -1.645333 0
M  V30 63 H 1.669756 1.962023 2.157983 0
M  V30 64 H 2.871007 0.708777 3.836499 0
M  V30 65 H 4.399772 1.720934 3.940759 0
M  V30 END ATOM
M  V30 BEGIN BOND
M  V30 1 1 1 2
M  V30 2 1 2 3
M  V30 3 1 3 4
M  V30 4 1 4 5
M  V30 5 2 5 6
M  V30 6 1 6 7
M  V30 7 2 7 8
M  V30 8 1 8 9
M  V30 9 1 9 10
M  V30 10 2 10 11
M  V30 11 1 10 12
M  V30 12 2 12 13
M  V30 13 1 13 14
M  V30 14 2 14 15
M  V30 15 1 15 16
M  V30 16 1 16 17
M  V30 17 1 17 18
M  V30 18 1 18 19
M  V30 19 1 19 20
M  V30 20 1 20 21
M  V30 21 1 21 22
M  V30 22 2 22 23
M  V30 23 1 22 24
M  V30 24 1 24 25
M  V30 25 2 25 26
M  V30 26 1 26 27
M  V30 27 2 27 28
M  V30 28 1 28 29
M  V30 29 1 29 30
M  V30 30 3 30 31
M  V30 31 2 29 32
M  V30 32 2 16 33
M  V30 33 1 8 34
M  V30 34 2 34 35
M  V30 35 1 35 36
M  V30 36 1 36 2
M  V30 37 1 35 5
M  V30 38 1 33 12
M  V30 39 1 21 17
M  V30 40 1 32 25
M  V30 41 1 1 37
M  V30 42 1 1 38
M  V30 43 1 1 39
M  V30 44 1 3 40
M  V30 45 1 3 41
M  V30 46 1 4 42
M  V30 47 1 4 43
M  V30 48 1 6 44
M  V30 49 1 7 45
M  V30 50 1 9 46
M  V30 51 1 13 47
M  V30 52 1 14 48
M  V30 53 1 15 49
M  V30 54 1 17 50
M  V30 55 1 18 51
M  V30 56 1 18 52
M  V30 57 1 19 53
M  V30 58 1 19 54
M  V30 59 1 20 55
M  V30 60 1 20 56
M  V30 61 1 24 57
M  V30 62 1 26 58
M  V30 63 1 27 59
M  V30 64 1 28 60
M  V30 65 1 32 61
M  V30 66 1 33 62
M  V30 67 1 34 63
M  V30 68 1 36 64
M  V30 69 1 36 65
M  V30 END BOND
M  V30 END CTAB
M  END
>  <Dataset>  (143) 
ChEMBL_Kinases

>  <Ligand_Instance>  (143) 
nan

>  <PDB_ID>  (143) 
nan

>  <Standardized_SMILES>  (143) 
CN1CCc2ccc(NC(=O)c3cccc(C4CCCN4C(=O)Nc4cccc(C#N)c4)c3)cc2C1

>  <Name>  (143) 
nan

>  <Pocket>  (143) 
nan

>  <ATP_Site>  (143) 
nan

>  <Peripheral>  (143) 
nan

>  <Num_H_Atoms_ProtBoundConf>  (143) 
nan

>  <Num_Resolved_Atoms>  (143) 
nan

>  <Num_Not_Resolved_Atoms>  (143) 
nan

$$$$
CHEMBL3700950
     RDKit          3D

  0  0  0  0  0  0  0  0  0  0999 V3000
M  V30 BEGIN CTAB
M  V30 COUNTS 64 69 0 0 0
M  V30 BEGIN ATOM
M  V30 1 C 4.909221 -0.368100 4.825914 0
M  V30 2 N 5.920799 -0.301338 3.785243 0
M  V30 3 C 5.500197 -1.151619 2.694286 0
M  V30 4 C 5.238327 -0.354331 1.430522 0
M  V30 5 C 4.237418 0.734797 1.745114 0
M  V30 6 N 3.080472 0.945560 1.128956 0
M  V30 7 C 2.407030 2.054980 1.734204 0
M  V30 8 N 1.170986 2.260021 1.059735 0
M  V30 9 C 0.927046 3.124946 -0.050666 0
M  V30 10 O 1.893931 3.788994 -0.486914 0
M  V30 11 C -0.420546 3.203039 -0.630303 0
M  V30 12 C -0.706652 4.189731 -1.548771 0
M  V30 13 C -1.933199 4.319584 -2.147648 0
M  V30 14 C -2.908486 3.394477 -1.789303 0
M  V30 15 C -2.686804 2.382837 -0.877275 0
M  V30 16 C -3.641241 1.384232 -0.418162 0 CFG=1
M  V30 17 C -5.053648 1.528096 -0.924371 0
M  V30 18 C -5.622566 0.186314 -0.471449 0
M  V30 19 C -4.465251 -0.770537 -0.400477 0
M  V30 20 N -3.289248 0.004308 -0.730314 0
M  V30 21 C -2.130487 -0.650221 -1.253957 0
M  V30 22 O -1.018050 -0.198215 -1.614766 0
M  V30 23 C -2.022607 -2.075645 -1.479440 0
M  V30 24 C -1.936547 -3.073949 -0.504101 0
M  V30 25 C -1.839777 -4.307839 -1.123648 0
M  V30 26 C -1.717223 -5.644048 -0.556615 0
M  V30 27 C -1.631895 -6.715014 -1.399282 0
M  V30 28 C -1.505889 -7.996070 -0.907656 0
M  V30 29 N -1.469928 -8.158921 0.405955 0
M  V30 30 C -1.551376 -7.110655 1.287113 0
M  V30 31 C -1.680550 -5.790917 0.839406 0
M  V30 32 N -1.870177 -4.060525 -2.438187 0
M  V30 33 N -1.975682 -2.751880 -2.672614 0
M  V30 34 C -1.425605 2.316557 -0.313534 0
M  V30 35 S 3.440405 2.647137 3.044603 0
M  V30 36 C 4.734361 1.514951 2.859375 0
M  V30 37 C 6.029587 1.086457 3.365726 0
M  V30 38 H 4.029008 -0.980617 4.554414 0
M  V30 39 H 5.343106 -0.865562 5.739207 0
M  V30 40 H 4.509573 0.627815 5.116530 0
M  V30 41 H 4.621677 -1.779753 2.912484 0
M  V30 42 H 6.343723 -1.834525 2.459383 0
M  V30 43 H 4.799704 -1.073103 0.711445 0
M  V30 44 H 6.137640 0.062543 0.966799 0
M  V30 45 H 0.447823 1.670284 1.521732 0
M  V30 46 H 0.051731 4.900691 -1.823537 0
M  V30 47 H -2.150153 5.103942 -2.872631 0
M  V30 48 H -3.908708 3.438143 -2.224577 0
M  V30 49 H -3.696551 1.421683 0.697205 0
M  V30 50 H -5.141873 1.655889 -2.010330 0
M  V30 51 H -5.616533 2.326018 -0.411778 0
M  V30 52 H -5.996725 0.290560 0.575952 0
M  V30 53 H -6.430611 -0.141585 -1.124300 0
M  V30 54 H -4.372076 -1.268778 0.599579 0
M  V30 55 H -4.618362 -1.551695 -1.198998 0
M  V30 56 H -1.944383 -2.961467 0.582754 0
M  V30 57 H -1.661206 -6.659251 -2.480015 0
M  V30 58 H -1.429591 -8.904783 -1.482999 0
M  V30 59 H -1.513101 -7.312920 2.370117 0
M  V30 60 H -1.745146 -4.961257 1.523795 0
M  V30 61 H -1.817753 -4.738630 -3.228111 0
M  V30 62 H -1.194387 1.563280 0.408314 0
M  V30 63 H 6.843983 1.096778 2.583306 0
M  V30 64 H 6.333312 1.703726 4.201275 0
M  V30 END ATOM
M  V30 BEGIN BOND
M  V30 1 1 1 2
M  V30 2 1 2 3
M  V30 3 1 3 4
M  V30 4 1 4 5
M  V30 5 1 5 6
M  V30 6 2 6 7
M  V30 7 1 7 8
M  V30 8 1 8 9
M  V30 9 2 9 10
M  V30 10 1 9 11
M  V30 11 2 11 12
M  V30 12 1 12 13
M  V30 13 2 13 14
M  V30 14 1 14 15
M  V30 15 1 15 16
M  V30 16 1 16 17
M  V30 17 1 17 18
M  V30 18 1 18 19
M  V30 19 1 19 20
M  V30 20 1 20 21
M  V30 21 2 21 22
M  V30 22 1 21 23
M  V30 23 1 23 24
M  V30 24 2 24 25
M  V30 25 1 25 26
M  V30 26 2 26 27
M  V30 27 1 27 28
M  V30 28 2 28 29
M  V30 29 1 29 30
M  V30 30 2 30 31
M  V30 31 1 25 32
M  V30 32 1 32 33
M  V30 33 2 15 34
M  V30 34 1 7 35
M  V30 35 1 35 36
M  V30 36 1 36 37
M  V30 37 1 37 2
M  V30 38 2 36 5
M  V30 39 1 34 11
M  V30 40 1 20 16
M  V30 41 2 33 23
M  V30 42 1 31 26
M  V30 43 1 1 38
M  V30 44 1 1 39
M  V30 45 1 1 40
M  V30 46 1 3 41
M  V30 47 1 3 42
M  V30 48 1 4 43
M  V30 49 1 4 44
M  V30 50 1 8 45
M  V30 51 1 12 46
M  V30 52 1 13 47
M  V30 53 1 14 48
M  V30 54 1 16 49 CFG=1
M  V30 55 1 17 50
M  V30 56 1 17 51
M  V30 57 1 18 52
M  V30 58 1 18 53
M  V30 59 1 19 54
M  V30 60 1 19 55
M  V30 61 1 24 56
M  V30 62 1 27 57
M  V30 63 1 28 58
M  V30 64 1 30 59
M  V30 65 1 31 60
M  V30 66 1 32 61
M  V30 67 1 34 62
M  V30 68 1 37 63
M  V30 69 1 37 64
M  V30 END BOND
M  V30 END CTAB
M  END
>  <Dataset>  (144) 
ChEMBL_Kinases

>  <Ligand_Instance>  (144) 
nan

>  <PDB_ID>  (144) 
nan

>  <Standardized_SMILES>  (144) 
CN1CCc2nc(NC(=O)c3cccc([C@H]4CCCN4C(=O)c4cc(-c5ccncc5)[nH]n4)c3)sc2C1

>  <Name>  (144) 
nan

>  <Pocket>  (144) 
nan

>  <ATP_Site>  (144) 
nan

>  <Peripheral>  (144) 
nan

>  <Num_H_Atoms_ProtBoundConf>  (144) 
nan

>  <Num_Resolved_Atoms>  (144) 
nan

>  <Num_Not_Resolved_Atoms>  (144) 
nan

$$$$
CHEMBL3700951
     RDKit          3D

  0  0  0  0  0  0  0  0  0  0999 V3000
M  V30 BEGIN CTAB
M  V30 COUNTS 61 65 0 0 0
M  V30 BEGIN ATOM
M  V30 1 C 5.704913 -2.700336 6.865367 0
M  V30 2 N 4.724773 -2.438256 5.837880 0
M  V30 3 C 5.399666 -2.215670 4.580195 0
M  V30 4 C 4.420684 -2.254152 3.422292 0
M  V30 5 C 3.460401 -1.120427 3.692239 0
M  V30 6 N 2.735682 -0.389394 2.871077 0
M  V30 7 C 2.014486 0.457351 3.035063 0
M  V30 8 N 1.271106 1.176219 1.939374 0
M  V30 9 C 0.009335 0.776441 1.471169 0
M  V30 10 O -0.503758 -0.235790 2.013235 0
M  V30 11 C -0.563485 1.589020 0.400708 0
M  V30 12 C -0.026867 2.710710 -0.199263 0
M  V30 13 C -0.712028 3.337302 -1.198694 0
M  V30 14 C -1.920899 2.839504 -1.586709 0
M  V30 15 C -2.539152 1.707879 -1.032954 0
M  V30 16 C -3.832430 1.238096 -1.517042 0
M  V30 17 C -5.033620 1.629164 -0.743255 0
M  V30 18 C -5.357841 0.377129 0.043660 0
M  V30 19 C -5.102693 -0.775423 -0.945942 0
M  V30 20 N -3.973166 -0.170905 -1.685193 0
M  V30 21 C -3.170507 -1.056565 -2.458814 0
M  V30 22 O -3.827464 -2.111039 -2.161064 0
M  V30 23 N -2.048726 -0.867321 -3.269984 0
M  V30 24 C -1.607075 -2.097065 -3.830748 0
M  V30 25 C -1.946517 -2.729125 -5.007089 0
M  V30 26 C -1.365818 -3.937781 -5.328973 0
M  V30 27 C -0.435359 -4.519909 -4.464475 0
M  V30 28 C 0.135751 -5.785649 -4.859912 0
M  V30 29 N 0.580021 -6.808726 -5.176701 0
M  V30 30 C -0.075073 -3.908916 -3.277439 0
M  V30 31 C -0.675481 -2.687406 -2.973256 0
M  V30 32 C -1.808757 1.114408 -0.031354 0
M  V30 33 S 2.118263 0.568858 4.934059 0
M  V30 34 C 3.278110 -0.749648 5.024272 0
M  V30 35 C 3.915881 -1.330646 6.253313 0
M  V30 36 H 5.129833 -3.050892 7.763684 0
M  V30 37 H 6.376063 -3.558978 6.592116 0
M  V30 38 H 6.264874 -1.804995 7.186280 0
M  V30 39 H 5.882737 -1.204394 4.569423 0
M  V30 40 H 6.130785 -3.034657 4.451920 0
M  V30 41 H 4.966338 -2.108554 2.487186 0
M  V30 42 H 3.820987 -3.185124 3.429244 0
M  V30 43 H 1.869896 1.955259 1.655126 0
M  V30 44 H 0.932677 3.010619 0.191338 0
M  V30 45 H -0.284796 4.214258 -1.662355 0
M  V30 46 H -2.467617 3.342496 -2.386917 0
M  V30 47 H -3.973568 1.674875 -2.554861 0
M  V30 48 H -4.787386 2.426640 0.013978 0
M  V30 49 H -5.879704 1.947185 -1.384971 0
M  V30 50 H -4.672182 0.261714 0.902014 0
M  V30 51 H -6.394072 0.393775 0.392427 0
M  V30 52 H -4.856760 -1.711968 -0.461556 0
M  V30 53 H -5.960039 -0.820782 -1.654749 0
M  V30 54 H -1.778573 0.140714 -3.286484 0
M  V30 55 H -2.672164 -2.162862 -5.567184 0
M  V30 56 H -1.679930 -4.368427 -6.259522 0
M  V30 57 H 0.644706 -4.405140 -2.654329 0
M  V30 58 H -0.313498 -2.304292 -2.016211 0
M  V30 59 H -2.302511 0.226530 0.397499 0
M  V30 60 H 3.199179 -1.687606 6.993327 0
M  V30 61 H 4.534552 -0.477944 6.663968 0
M  V30 END ATOM
M  V30 BEGIN BOND
M  V30 1 1 1 2
M  V30 2 1 2 3
M  V30 3 1 3 4
M  V30 4 1 4 5
M  V30 5 1 5 6
M  V30 6 2 6 7
M  V30 7 1 7 8
M  V30 8 1 8 9
M  V30 9 2 9 10
M  V30 10 1 9 11
M  V30 11 2 11 12
M  V30 12 1 12 13
M  V30 13 2 13 14
M  V30 14 1 14 15
M  V30 15 1 15 16
M  V30 16 1 16 17
M  V30 17 1 17 18
M  V30 18 1 18 19
M  V30 19 1 19 20
M  V30 20 1 20 21
M  V30 21 2 21 22
M  V30 22 1 21 23
M  V30 23 1 23 24
M  V30 24 2 24 25
M  V30 25 1 25 26
M  V30 26 2 26 27
M  V30 27 1 27 28
M  V30 28 3 28 29
M  V30 29 1 27 30
M  V30 30 2 30 31
M  V30 31 2 15 32
M  V30 32 1 7 33
M  V30 33 1 33 34
M  V30 34 1 34 35
M  V30 35 1 35 2
M  V30 36 2 34 5
M  V30 37 1 32 11
M  V30 38 1 20 16
M  V30 39 1 31 24
M  V30 40 1 1 36
M  V30 41 1 1 37
M  V30 42 1 1 38
M  V30 43 1 3 39
M  V30 44 1 3 40
M  V30 45 1 4 41
M  V30 46 1 4 42
M  V30 47 1 8 43
M  V30 48 1 12 44
M  V30 49 1 13 45
M  V30 50 1 14 46
M  V30 51 1 16 47
M  V30 52 1 17 48
M  V30 53 1 17 49
M  V30 54 1 18 50
M  V30 55 1 18 51
M  V30 56 1 19 52
M  V30 57 1 19 53
M  V30 58 1 23 54
M  V30 59 1 25 55
M  V30 60 1 26 56
M  V30 61 1 30 57
M  V30 62 1 31 58
M  V30 63 1 32 59
M  V30 64 1 35 60
M  V30 65 1 35 61
M  V30 END BOND
M  V30 END CTAB
M  END
>  <Dataset>  (145) 
ChEMBL_Kinases

>  <Ligand_Instance>  (145) 
nan

>  <PDB_ID>  (145) 
nan

>  <Standardized_SMILES>  (145) 
CN1CCc2nc(NC(=O)c3cccc(C4CCCN4C(=O)Nc4ccc(C#N)cc4)c3)sc2C1

>  <Name>  (145) 
nan

>  <Pocket>  (145) 
nan

>  <ATP_Site>  (145) 
nan

>  <Peripheral>  (145) 
nan

>  <Num_H_Atoms_ProtBoundConf>  (145) 
nan

>  <Num_Resolved_Atoms>  (145) 
nan

>  <Num_Not_Resolved_Atoms>  (145) 
nan

$$$$
CHEMBL3700952
     RDKit          3D

  0  0  0  0  0  0  0  0  0  0999 V3000
M  V30 BEGIN CTAB
M  V30 COUNTS 65 70 0 0 0
M  V30 BEGIN ATOM
M  V30 1 C 5.830133 1.810245 4.242445 0
M  V30 2 N 7.138442 2.428142 4.136594 0
M  V30 3 C 7.931024 1.735922 3.164571 0
M  V30 4 C 7.319798 1.590441 1.827501 0
M  V30 5 C 6.202555 2.556334 1.668661 0
M  V30 6 N 5.310447 2.402588 0.685315 0
M  V30 7 C 4.392792 3.105296 0.484871 0
M  V30 8 N 3.261341 3.149046 -0.529503 0
M  V30 9 C 2.293714 2.318730 0.061364 0
M  V30 10 O 2.711662 1.854281 1.158614 0
M  V30 11 C 0.993477 2.095216 -0.605837 0
M  V30 12 C 0.497135 2.666857 -1.759686 0
M  V30 13 C -0.765129 2.286081 -2.163680 0
M  V30 14 C -1.506748 1.370573 -1.448648 0
M  V30 15 C -1.059924 0.765736 -0.288190 0
M  V30 16 C -1.795639 -0.197089 0.519352 0 CFG=1
M  V30 17 C -2.861729 0.413541 1.415601 0
M  V30 18 C -3.446825 -0.878155 1.997655 0
M  V30 19 C -2.875519 -1.978654 1.099230 0
M  V30 20 N -2.523174 -1.226682 -0.124695 0
M  V30 21 C -2.972840 -1.717351 -1.404795 0
M  V30 22 O -2.929343 -1.445126 -2.660199 0
M  V30 23 C -3.766469 -2.934944 -1.533611 0
M  V30 24 C -3.426052 -4.146970 -2.096900 0
M  V30 25 C -4.299943 -5.212682 -2.122205 0
M  V30 26 C -5.578600 -5.089677 -1.567873 0
M  V30 27 N -6.425317 -6.246735 -1.633086 0
M  V30 28 C -6.844229 -6.986097 -0.610270 0
M  V30 29 C -7.641681 -8.015531 -1.080161 0
M  V30 30 N -7.711283 -7.901549 -2.423116 0
M  V30 31 C -6.961967 -6.813997 -2.753678 0
M  V30 32 C -5.983065 -3.903373 -0.989473 0
M  V30 33 C -5.045117 -2.875332 -1.002173 0
M  V30 34 C 0.227973 1.176016 0.094532 0
M  V30 35 S 4.429883 4.399793 1.736515 0
M  V30 36 C 5.992088 3.661153 2.511121 0
M  V30 37 C 6.977799 3.789915 3.582442 0
M  V30 38 H 5.780201 0.896825 3.628112 0
M  V30 39 H 5.669650 1.472118 5.295177 0
M  V30 40 H 5.012004 2.518352 4.015775 0
M  V30 41 H 8.959651 2.158970 3.086009 0
M  V30 42 H 8.096058 0.701897 3.602228 0
M  V30 43 H 6.980559 0.516211 1.703162 0
M  V30 44 H 8.098551 1.729465 1.042706 0
M  V30 45 H 3.180658 3.633936 -1.414327 0
M  V30 46 H 1.185064 3.360692 -2.210403 0
M  V30 47 H -1.106312 2.764456 -3.071858 0
M  V30 48 H -2.486597 1.108362 -1.801980 0
M  V30 49 H -1.042989 -0.701136 1.206974 0
M  V30 50 H -3.577093 0.937572 0.752073 0
M  V30 51 H -2.463355 1.088703 2.177493 0
M  V30 52 H -4.546875 -0.910225 1.926149 0
M  V30 53 H -3.038850 -0.970393 3.018778 0
M  V30 54 H -3.562599 -2.794246 0.925301 0
M  V30 55 H -1.907168 -2.302716 1.578530 0
M  V30 56 H -2.406367 -4.161467 -2.511911 0
M  V30 57 H -3.974459 -6.140657 -2.578373 0
M  V30 58 H -6.629862 -6.851579 0.434795 0
M  V30 59 H -8.139836 -8.794626 -0.506826 0
M  V30 60 H -6.742112 -6.362522 -3.720458 0
M  V30 61 H -6.967943 -3.810305 -0.563155 0
M  V30 62 H -5.404287 -1.949181 -0.535175 0
M  V30 63 H 0.591779 0.695812 1.019607 0
M  V30 64 H 7.959075 4.058225 3.152193 0
M  V30 65 H 6.712722 4.493689 4.365592 0
M  V30 END ATOM
M  V30 BEGIN BOND
M  V30 1 1 1 2
M  V30 2 1 2 3
M  V30 3 1 3 4
M  V30 4 1 4 5
M  V30 5 1 5 6
M  V30 6 2 6 7
M  V30 7 1 7 8
M  V30 8 1 8 9
M  V30 9 2 9 10
M  V30 10 1 9 11
M  V30 11 2 11 12
M  V30 12 1 12 13
M  V30 13 2 13 14
M  V30 14 1 14 15
M  V30 15 1 15 16
M  V30 16 1 16 17
M  V30 17 1 17 18
M  V30 18 1 18 19
M  V30 19 1 19 20
M  V30 20 1 20 21
M  V30 21 2 21 22
M  V30 22 1 21 23
M  V30 23 2 23 24
M  V30 24 1 24 25
M  V30 25 2 25 26
M  V30 26 1 26 27
M  V30 27 1 27 28
M  V30 28 2 28 29
M  V30 29 1 29 30
M  V30 30 2 30 31
M  V30 31 1 26 32
M  V30 32 2 32 33
M  V30 33 2 15 34
M  V30 34 1 7 35
M  V30 35 1 35 36
M  V30 36 1 36 37
M  V30 37 1 37 2
M  V30 38 2 36 5
M  V30 39 1 34 11
M  V30 40 1 20 16
M  V30 41 1 33 23
M  V30 42 1 31 27
M  V30 43 1 1 38
M  V30 44 1 1 39
M  V30 45 1 1 40
M  V30 46 1 3 41
M  V30 47 1 3 42
M  V30 48 1 4 43
M  V30 49 1 4 44
M  V30 50 1 8 45
M  V30 51 1 12 46
M  V30 52 1 13 47
M  V30 53 1 14 48
M  V30 54 1 16 49 CFG=1
M  V30 55 1 17 50
M  V30 56 1 17 51
M  V30 57 1 18 52
M  V30 58 1 18 53
M  V30 59 1 19 54
M  V30 60 1 19 55
M  V30 61 1 24 56
M  V30 62 1 25 57
M  V30 63 1 28 58
M  V30 64 1 29 59
M  V30 65 1 31 60
M  V30 66 1 32 61
M  V30 67 1 33 62
M  V30 68 1 34 63
M  V30 69 1 37 64
M  V30 70 1 37 65
M  V30 END BOND
M  V30 END CTAB
M  END
>  <Dataset>  (146) 
ChEMBL_Kinases

>  <Ligand_Instance>  (146) 
nan

>  <PDB_ID>  (146) 
nan

>  <Standardized_SMILES>  (146) 
CN1CCc2nc(NC(=O)c3cccc([C@H]4CCCN4C(=O)c4ccc(-n5ccnc5)cc4)c3)sc2C1

>  <Name>  (146) 
nan

>  <Pocket>  (146) 
nan

>  <ATP_Site>  (146) 
nan

>  <Peripheral>  (146) 
nan

>  <Num_H_Atoms_ProtBoundConf>  (146) 
nan

>  <Num_Resolved_Atoms>  (146) 
nan

>  <Num_Not_Resolved_Atoms>  (146) 
nan

$$$$
CHEMBL3700953
     RDKit          3D

  0  0  0  0  0  0  0  0  0  0999 V3000
M  V30 BEGIN CTAB
M  V30 COUNTS 64 69 0 0 0
M  V30 BEGIN ATOM
M  V30 1 C 6.478036 0.938633 4.233490 0
M  V30 2 N 6.425809 -0.334678 3.563776 0
M  V30 3 C 5.453994 -1.148870 4.194115 0
M  V30 4 C 4.112702 -1.247527 3.597631 0
M  V30 5 C 3.865567 -0.124289 2.629629 0
M  V30 6 N 2.737957 0.497263 2.334454 0
M  V30 7 C 2.499430 1.330869 1.617770 0
M  V30 8 N 1.104308 1.906732 1.443068 0
M  V30 9 C 0.280260 1.266064 0.511288 0
M  V30 10 O 0.874472 0.291016 -0.031783 0
M  V30 11 C -1.080788 1.734642 0.264772 0
M  V30 12 C -1.567857 2.897490 0.858298 0
M  V30 13 C -2.866138 3.280638 0.602414 0
M  V30 14 C -3.663750 2.507755 -0.236588 0
M  V30 15 C -3.253759 1.357766 -0.851604 0
M  V30 16 C -4.089124 0.539836 -1.735490 0 CFG=1
M  V30 17 C -5.274402 1.223720 -2.327850 0
M  V30 18 C -5.000695 1.217078 -3.843297 0
M  V30 19 C -3.537231 0.827669 -3.968252 0
M  V30 20 N -3.380035 -0.069652 -2.845942 0
M  V30 21 C -2.641311 -1.300685 -2.984304 0
M  V30 22 O -2.172055 -1.480736 -4.149387 0
M  V30 23 C -2.382004 -2.317998 -1.988043 0
M  V30 24 C -1.068067 -2.632139 -1.690108 0
M  V30 25 C -0.632894 -3.576274 -0.750896 0
M  V30 26 C -1.631580 -4.241150 -0.072747 0
M  V30 27 C -1.243160 -5.231000 0.923382 0
M  V30 28 C -1.997969 -6.038407 1.745412 0
M  V30 29 N -1.213488 -6.809267 2.517732 0
M  V30 30 C 0.050720 -6.454390 2.148895 0
M  V30 31 O 0.008130 -5.530667 1.215802 0
M  V30 32 C -2.951672 -3.969476 -0.328749 0
M  V30 33 C -3.325881 -3.015289 -1.279271 0
M  V30 34 C -1.956612 1.038735 -0.553855 0
M  V30 35 S 4.235528 1.648163 0.884670 0
M  V30 36 C 4.963347 0.367175 1.895955 0
M  V30 37 C 6.262033 -0.223848 2.128658 0
M  V30 38 H 5.479860 1.217447 4.652548 0
M  V30 39 H 7.152751 0.802122 5.123569 0
M  V30 40 H 6.807339 1.766539 3.596913 0
M  V30 41 H 5.415472 -0.893185 5.296376 0
M  V30 42 H 5.885171 -2.197091 4.214330 0
M  V30 43 H 3.371242 -1.244810 4.438413 0
M  V30 44 H 3.933372 -2.237109 3.097726 0
M  V30 45 H 0.844019 2.724255 2.011528 0
M  V30 46 H -0.952605 3.498080 1.509290 0
M  V30 47 H -3.209059 4.194373 1.085127 0
M  V30 48 H -4.644851 2.917419 -0.339894 0
M  V30 49 H -4.497780 -0.335522 -1.147440 0
M  V30 50 H -5.439884 2.237909 -1.977112 0
M  V30 51 H -6.229059 0.628802 -2.196391 0
M  V30 52 H -5.129369 2.260922 -4.224141 0
M  V30 53 H -5.660803 0.519743 -4.365477 0
M  V30 54 H -3.335689 0.343489 -4.953125 0
M  V30 55 H -2.912039 1.730125 -3.920020 0
M  V30 56 H -0.286621 -2.103935 -2.227456 0
M  V30 57 H 0.435210 -3.723363 -0.615453 0
M  V30 58 H -3.084107 -5.996704 1.713598 0
M  V30 59 H 1.022461 -6.785187 2.475196 0
M  V30 60 H -3.738922 -4.497207 0.210140 0
M  V30 61 H -4.367606 -2.795142 -1.487253 0
M  V30 62 H -1.485585 0.158987 -0.969249 0
M  V30 63 H 6.299542 -1.247380 1.710958 0
M  V30 64 H 7.116185 0.346140 1.747968 0
M  V30 END ATOM
M  V30 BEGIN BOND
M  V30 1 1 1 2
M  V30 2 1 2 3
M  V30 3 1 3 4
M  V30 4 1 4 5
M  V30 5 1 5 6
M  V30 6 2 6 7
M  V30 7 1 7 8
M  V30 8 1 8 9
M  V30 9 2 9 10
M  V30 10 1 9 11
M  V30 11 2 11 12
M  V30 12 1 12 13
M  V30 13 2 13 14
M  V30 14 1 14 15
M  V30 15 1 15 16
M  V30 16 1 16 17
M  V30 17 1 17 18
M  V30 18 1 18 19
M  V30 19 1 19 20
M  V30 20 1 20 21
M  V30 21 2 21 22
M  V30 22 1 21 23
M  V30 23 2 23 24
M  V30 24 1 24 25
M  V30 25 2 25 26
M  V30 26 1 26 27
M  V30 27 2 27 28
M  V30 28 1 28 29
M  V30 29 2 29 30
M  V30 30 1 30 31
M  V30 31 1 26 32
M  V30 32 2 32 33
M  V30 33 2 15 34
M  V30 34 1 7 35
M  V30 35 1 35 36
M  V30 36 1 36 37
M  V30 37 1 37 2
M  V30 38 2 36 5
M  V30 39 1 34 11
M  V30 40 1 20 16
M  V30 41 1 33 23
M  V30 42 1 31 27
M  V30 43 1 1 38
M  V30 44 1 1 39
M  V30 45 1 1 40
M  V30 46 1 3 41
M  V30 47 1 3 42
M  V30 48 1 4 43
M  V30 49 1 4 44
M  V30 50 1 8 45
M  V30 51 1 12 46
M  V30 52 1 13 47
M  V30 53 1 14 48
M  V30 54 1 16 49 CFG=1
M  V30 55 1 17 50
M  V30 56 1 17 51
M  V30 57 1 18 52
M  V30 58 1 18 53
M  V30 59 1 19 54
M  V30 60 1 19 55
M  V30 61 1 24 56
M  V30 62 1 25 57
M  V30 63 1 28 58
M  V30 64 1 30 59
M  V30 65 1 32 60
M  V30 66 1 33 61
M  V30 67 1 34 62
M  V30 68 1 37 63
M  V30 69 1 37 64
M  V30 END BOND
M  V30 END CTAB
M  END
>  <Dataset>  (147) 
ChEMBL_Kinases

>  <Ligand_Instance>  (147) 
nan

>  <PDB_ID>  (147) 
nan

>  <Standardized_SMILES>  (147) 
CN1CCc2nc(NC(=O)c3cccc([C@H]4CCCN4C(=O)c4ccc(-c5cnco5)cc4)c3)sc2C1

>  <Name>  (147) 
nan

>  <Pocket>  (147) 
nan

>  <ATP_Site>  (147) 
nan

>  <Peripheral>  (147) 
nan

>  <Num_H_Atoms_ProtBoundConf>  (147) 
nan

>  <Num_Resolved_Atoms>  (147) 
nan

>  <Num_Not_Resolved_Atoms>  (147) 
nan

$$$$
CHEMBL3700954
     RDKit          3D

  0  0  0  0  0  0  0  0  0  0999 V3000
M  V30 BEGIN CTAB
M  V30 COUNTS 65 70 0 0 0
M  V30 BEGIN ATOM
M  V30 1 C 2.667469 -0.790293 5.705655 0
M  V30 2 N 3.720253 -0.884378 4.714805 0
M  V30 3 C 3.485318 -1.840014 3.694433 0
M  V30 4 C 2.519106 -1.432761 2.634561 0
M  V30 5 C 2.996079 -0.144745 1.997154 0
M  V30 6 N 2.849472 0.367857 0.801648 0
M  V30 7 C 3.305114 1.461134 0.450454 0
M  V30 8 N 2.987611 1.778711 -0.947875 0
M  V30 9 C 1.752667 2.361807 -1.100980 0
M  V30 10 O 1.070634 2.548066 -0.016243 0
M  V30 11 C 0.809611 2.898571 -2.059274 0
M  V30 12 C 0.610131 4.145338 -2.594140 0
M  V30 13 C -0.417335 4.307157 -3.497486 0
M  V30 14 C -1.262088 3.295396 -3.900341 0
M  V30 15 C -1.094050 2.001752 -3.376734 0
M  V30 16 C -1.967883 0.838553 -3.735911 0 CFG=1
M  V30 17 C -1.326247 0.077384 -4.843669 0
M  V30 18 C -0.520208 -1.008304 -4.157885 0
M  V30 19 C -1.263284 -1.284007 -2.892062 0
M  V30 20 N -2.084231 -0.104093 -2.632981 0
M  V30 21 C -2.843590 -0.002602 -1.438270 0
M  V30 22 O -3.481433 1.107903 -1.400876 0
M  V30 23 C -2.962299 -0.947598 -0.353371 0
M  V30 24 C -2.567255 -2.239427 -0.083476 0
M  V30 25 N -2.951471 -2.659787 1.131128 0
M  V30 26 C -2.771422 -3.830953 1.759493 0
M  V30 27 C -3.272209 -4.019905 3.016127 0
M  V30 28 C -3.166900 -5.225427 3.846226 0
M  V30 29 N -2.446303 -6.340319 3.360262 0
M  V30 30 O -3.669605 -5.361153 4.980701 0
M  V30 31 C -3.952435 -2.959519 3.575945 0
M  V30 32 C -4.120714 -1.772160 2.907221 0
M  V30 33 C -3.605122 -1.612119 1.644555 0
M  V30 34 N -3.621841 -0.591157 0.782720 0
M  V30 35 C -0.044210 1.864182 -2.463387 0
M  V30 36 S 4.133058 2.063009 1.903749 0
M  V30 37 C 3.733185 0.635913 2.918331 0
M  V30 38 C 4.122552 0.416517 4.324570 0
M  V30 39 H 1.658002 -0.880071 5.257598 0
M  V30 40 H 2.735803 0.185856 6.230082 0
M  V30 41 H 2.766868 -1.587289 6.465576 0
M  V30 42 H 4.425632 -2.211529 3.241069 0
M  V30 43 H 3.040481 -2.747630 4.201938 0
M  V30 44 H 2.445350 -2.230890 1.877036 0
M  V30 45 H 1.518372 -1.165767 3.071699 0
M  V30 46 H 3.438993 1.699798 -1.852989 0
M  V30 47 H 1.319213 4.854470 -2.217123 0
M  V30 48 H -0.522357 5.311471 -3.882378 0
M  V30 49 H -2.054752 3.457001 -4.611100 0
M  V30 50 H -2.971536 1.245294 -4.031747 0
M  V30 51 H -2.134996 -0.360924 -5.476238 0
M  V30 52 H -0.739034 0.754717 -5.468524 0
M  V30 53 H -0.529644 -1.890469 -4.819191 0
M  V30 54 H 0.539605 -0.725364 -4.000607 0
M  V30 55 H -0.610874 -1.437990 -2.022249 0
M  V30 56 H -1.877020 -2.186727 -3.046854 0
M  V30 57 H -2.014667 -2.827568 -0.786381 0
M  V30 58 H -2.236007 -4.653543 1.315822 0
M  V30 59 H -1.410111 -6.521394 3.244914 0
M  V30 60 H -2.757910 -7.283407 2.987391 0
M  V30 61 H -4.378478 -3.042553 4.574402 0
M  V30 62 H -4.663799 -0.954037 3.378542 0
M  V30 63 H 0.016576 0.833168 -2.104488 0
M  V30 64 H 3.732182 1.161924 5.029483 0
M  V30 65 H 5.232920 0.477117 4.394332 0
M  V30 END ATOM
M  V30 BEGIN BOND
M  V30 1 1 1 2
M  V30 2 1 2 3
M  V30 3 1 3 4
M  V30 4 1 4 5
M  V30 5 1 5 6
M  V30 6 2 6 7
M  V30 7 1 7 8
M  V30 8 1 8 9
M  V30 9 2 9 10
M  V30 10 1 9 11
M  V30 11 2 11 12
M  V30 12 1 12 13
M  V30 13 2 13 14
M  V30 14 1 14 15
M  V30 15 1 15 16
M  V30 16 1 16 17
M  V30 17 1 17 18
M  V30 18 1 18 19
M  V30 19 1 19 20
M  V30 20 1 20 21
M  V30 21 2 21 22
M  V30 22 1 21 23
M  V30 23 2 23 24
M  V30 24 1 24 25
M  V30 25 1 25 26
M  V30 26 2 26 27
M  V30 27 1 27 28
M  V30 28 1 28 29
M  V30 29 2 28 30
M  V30 30 1 27 31
M  V30 31 2 31 32
M  V30 32 1 32 33
M  V30 33 2 33 34
M  V30 34 2 15 35
M  V30 35 1 7 36
M  V30 36 1 36 37
M  V30 37 1 37 38
M  V30 38 1 38 2
M  V30 39 2 37 5
M  V30 40 1 35 11
M  V30 41 1 20 16
M  V30 42 1 34 23
M  V30 43 1 33 25
M  V30 44 1 1 39
M  V30 45 1 1 40
M  V30 46 1 1 41
M  V30 47 1 3 42
M  V30 48 1 3 43
M  V30 49 1 4 44
M  V30 50 1 4 45
M  V30 51 1 8 46
M  V30 52 1 12 47
M  V30 53 1 13 48
M  V30 54 1 14 49
M  V30 55 1 16 50 CFG=3
M  V30 56 1 17 51
M  V30 57 1 17 52
M  V30 58 1 18 53
M  V30 59 1 18 54
M  V30 60 1 19 55
M  V30 61 1 19 56
M  V30 62 1 24 57
M  V30 63 1 26 58
M  V30 64 1 29 59
M  V30 65 1 29 60
M  V30 66 1 31 61
M  V30 67 1 32 62
M  V30 68 1 35 63
M  V30 69 1 38 64
M  V30 70 1 38 65
M  V30 END BOND
M  V30 END CTAB
M  END
>  <Dataset>  (148) 
ChEMBL_Kinases

>  <Ligand_Instance>  (148) 
nan

>  <PDB_ID>  (148) 
nan

>  <Standardized_SMILES>  (148) 
CN1CCc2nc(NC(=O)c3cccc([C@H]4CCCN4C(=O)c4cn5cc(C(N)=O)ccc5n4)c3)sc2C1

>  <Name>  (148) 
nan

>  <Pocket>  (148) 
nan

>  <ATP_Site>  (148) 
nan

>  <Peripheral>  (148) 
nan

>  <Num_H_Atoms_ProtBoundConf>  (148) 
nan

>  <Num_Resolved_Atoms>  (148) 
nan

>  <Num_Not_Resolved_Atoms>  (148) 
nan

$$$$
CHEMBL3700955
     RDKit          3D

  0  0  0  0  0  0  0  0  0  0999 V3000
M  V30 BEGIN CTAB
M  V30 COUNTS 64 68 0 0 0
M  V30 BEGIN ATOM
M  V30 1 C 4.409787 -1.202780 3.343274 0
M  V30 2 N 5.109876 -0.007402 3.679031 0
M  V30 3 C 5.773467 0.624691 2.588977 0
M  V30 4 C 5.393914 2.028273 2.292694 0
M  V30 5 C 3.925990 2.202813 2.330324 0
M  V30 6 N 3.080234 2.794554 1.482914 0
M  V30 7 C 1.908165 2.850643 1.663286 0
M  V30 8 N 0.705159 3.387013 0.990942 0
M  V30 9 C 0.198463 2.378295 0.156646 0
M  V30 10 O 0.881322 1.296779 0.189510 0
M  V30 11 C -0.991084 2.539908 -0.669387 0
M  V30 12 C -1.742485 3.679349 -0.751482 0
M  V30 13 C -2.875510 3.739712 -1.569088 0
M  V30 14 C -3.168394 2.591592 -2.267548 0
M  V30 15 C -2.470382 1.398082 -2.248067 0
M  V30 16 C -2.926346 0.289034 -3.064918 0
M  V30 17 C -1.953249 -0.066214 -4.179688 0
M  V30 18 C -2.461264 -1.466240 -4.557430 0
M  V30 19 C -3.575849 -1.725404 -3.529589 0
M  V30 20 N -3.019630 -1.003164 -2.378342 0
M  V30 21 C -2.829978 -1.804708 -1.190921 0
M  V30 22 O -3.232048 -2.963425 -1.563987 0
M  V30 23 N -2.377854 -1.707350 0.133420 0
M  V30 24 C -2.422555 -2.905907 0.890198 0
M  V30 25 C -3.429474 -3.384970 1.682222 0
M  V30 26 C -3.305076 -4.581093 2.349379 0
M  V30 27 C -2.141500 -5.300551 2.209820 0
M  V30 28 C -1.991630 -6.569416 2.910147 0
M  V30 29 N -0.836218 -7.387323 2.778393 0
M  V30 30 O -2.912363 -7.003759 3.686236 0
M  V30 31 C -1.086831 -4.878591 1.428944 0
M  V30 32 C -1.255890 -3.665218 0.773547 0
M  V30 33 C -1.376065 1.443865 -1.415086 0
M  V30 34 S 1.580792 1.997412 3.255242 0
M  V30 35 C 3.416425 1.626858 3.473260 0
M  V30 36 C 4.363930 0.964614 4.416854 0
M  V30 37 H 5.175572 -1.957243 3.051549 0
M  V30 38 H 3.683321 -1.101346 2.513470 0
M  V30 39 H 3.920260 -1.589329 4.264600 0
M  V30 40 H 6.872125 0.548359 2.801841 0
M  V30 41 H 5.629283 0.002335 1.676274 0
M  V30 42 H 5.797321 2.655731 3.140489 0
M  V30 43 H 5.865418 2.345275 1.366137 0
M  V30 44 H 0.258868 4.300531 1.060527 0
M  V30 45 H -1.439738 4.532189 -0.169254 0
M  V30 46 H -3.465987 4.638100 -1.632766 0
M  V30 47 H -4.052389 2.679171 -2.888533 0
M  V30 48 H -3.910845 0.516508 -3.516599 0
M  V30 49 H -0.926585 -0.157129 -3.817541 0
M  V30 50 H -2.086178 0.570273 -5.061776 0
M  V30 51 H -1.677425 -2.238498 -4.363164 0
M  V30 52 H -2.865330 -1.504067 -5.567609 0
M  V30 53 H -3.748463 -2.781544 -3.380372 0
M  V30 54 H -4.496812 -1.163700 -3.825896 0
M  V30 55 H -2.097565 -0.714926 0.270692 0
M  V30 56 H -4.302036 -2.737801 1.721607 0
M  V30 57 H -4.136669 -4.899358 2.956816 0
M  V30 58 H -0.287213 -7.781350 2.000280 0
M  V30 59 H -0.300771 -7.772156 1.962967 0
M  V30 60 H -0.205594 -5.473159 1.353945 0
M  V30 61 H -0.391275 -3.364759 0.161301 0
M  V30 62 H -0.788838 0.516637 -1.366438 0
M  V30 63 H 3.804591 0.434653 5.223516 0
M  V30 64 H 5.017571 1.701251 4.877920 0
M  V30 END ATOM
M  V30 BEGIN BOND
M  V30 1 1 1 2
M  V30 2 1 2 3
M  V30 3 1 3 4
M  V30 4 1 4 5
M  V30 5 1 5 6
M  V30 6 2 6 7
M  V30 7 1 7 8
M  V30 8 1 8 9
M  V30 9 2 9 10
M  V30 10 1 9 11
M  V30 11 2 11 12
M  V30 12 1 12 13
M  V30 13 2 13 14
M  V30 14 1 14 15
M  V30 15 1 15 16
M  V30 16 1 16 17
M  V30 17 1 17 18
M  V30 18 1 18 19
M  V30 19 1 19 20
M  V30 20 1 20 21
M  V30 21 2 21 22
M  V30 22 1 21 23
M  V30 23 1 23 24
M  V30 24 2 24 25
M  V30 25 1 25 26
M  V30 26 2 26 27
M  V30 27 1 27 28
M  V30 28 1 28 29
M  V30 29 2 28 30
M  V30 30 1 27 31
M  V30 31 2 31 32
M  V30 32 2 15 33
M  V30 33 1 7 34
M  V30 34 1 34 35
M  V30 35 1 35 36
M  V30 36 1 36 2
M  V30 37 2 35 5
M  V30 38 1 33 11
M  V30 39 1 20 16
M  V30 40 1 32 24
M  V30 41 1 1 37
M  V30 42 1 1 38
M  V30 43 1 1 39
M  V30 44 1 3 40
M  V30 45 1 3 41
M  V30 46 1 4 42
M  V30 47 1 4 43
M  V30 48 1 8 44
M  V30 49 1 12 45
M  V30 50 1 13 46
M  V30 51 1 14 47
M  V30 52 1 16 48
M  V30 53 1 17 49
M  V30 54 1 17 50
M  V30 55 1 18 51
M  V30 56 1 18 52
M  V30 57 1 19 53
M  V30 58 1 19 54
M  V30 59 1 23 55
M  V30 60 1 25 56
M  V30 61 1 26 57
M  V30 62 1 29 58
M  V30 63 1 29 59
M  V30 64 1 31 60
M  V30 65 1 32 61
M  V30 66 1 33 62
M  V30 67 1 36 63
M  V30 68 1 36 64
M  V30 END BOND
M  V30 END CTAB
M  END
>  <Dataset>  (149) 
ChEMBL_Kinases

>  <Ligand_Instance>  (149) 
nan

>  <PDB_ID>  (149) 
nan

>  <Standardized_SMILES>  (149) 
CN1CCc2nc(NC(=O)c3cccc(C4CCCN4C(=O)Nc4ccc(C(N)=O)cc4)c3)sc2C1

>  <Name>  (149) 
nan

>  <Pocket>  (149) 
nan

>  <ATP_Site>  (149) 
nan

>  <Peripheral>  (149) 
nan

>  <Num_H_Atoms_ProtBoundConf>  (149) 
nan

>  <Num_Resolved_Atoms>  (149) 
nan

>  <Num_Not_Resolved_Atoms>  (149) 
nan

$$$$
CHEMBL3700965
     RDKit          3D

  0  0  0  0  0  0  0  0  0  0999 V3000
M  V30 BEGIN CTAB
M  V30 COUNTS 70 75 0 0 0
M  V30 BEGIN ATOM
M  V30 1 C 5.651549 1.776311 -3.066333 0
M  V30 2 N 4.860433 2.899640 -3.533446 0
M  V30 3 C 5.006775 3.006242 -4.952881 0
M  V30 4 C 3.518262 2.711011 -3.081814 0 CFG=1
M  V30 5 C 3.478949 2.650459 -1.597329 0
M  V30 6 C 2.432109 3.498006 -0.937141 0
M  V30 7 C 1.112113 3.305884 -1.614070 0
M  V30 8 N -0.115788 3.008135 -1.169178 0
M  V30 9 C -1.078707 2.884279 -1.810121 0
M  V30 10 N -2.372801 2.550200 -1.154132 0
M  V30 11 C -2.521914 1.145011 -1.084040 0
M  V30 12 O -1.553919 0.511425 -1.578364 0
M  V30 13 C -3.727185 0.594722 -0.473667 0
M  V30 14 C -4.758655 1.331193 0.044790 0
M  V30 15 C -5.853147 0.702412 0.600914 0
M  V30 16 C -5.927744 -0.673053 0.644506 0
M  V30 17 C -4.901675 -1.430008 0.128955 0
M  V30 18 C -4.873308 -2.934542 0.121085 0 CFG=1
M  V30 19 C -4.855951 -3.334912 -1.361018 0
M  V30 20 C -4.048202 -4.595148 -1.386782 0
M  V30 21 C -3.068680 -4.396839 -0.252540 0
M  V30 22 N -3.544139 -3.314888 0.556100 0
M  V30 23 C -2.833014 -2.701697 1.620458 0
M  V30 24 O -3.324166 -1.752604 2.283752 0
M  V30 25 C -1.495203 -3.136594 2.004343 0
M  V30 26 C -0.582236 -2.094837 1.873864 0
M  V30 27 C 0.762636 -2.268675 2.183330 0
M  V30 28 C 1.181212 -3.513938 2.629327 0
M  V30 29 C 2.581589 -3.727773 2.961816 0
M  V30 30 C 3.173244 -4.868726 3.410562 0
M  V30 31 N 4.495293 -4.676102 3.608933 0
M  V30 32 C 4.687304 -3.371117 3.263043 0
M  V30 33 O 3.541517 -2.836790 2.885427 0
M  V30 34 C 0.276856 -4.535502 2.755450 0
M  V30 35 C -1.058464 -4.367499 2.449553 0
M  V30 36 C -3.791802 -0.803335 -0.435018 0
M  V30 37 S -0.506992 3.192860 -3.550987 0
M  V30 38 C 1.231250 3.481173 -2.978591 0
M  V30 39 C 2.585419 3.816301 -3.525388 0
M  V30 40 H 6.203205 1.264041 -3.860337 0
M  V30 41 H 5.014916 0.979505 -2.582867 0
M  V30 42 H 6.369285 2.063892 -2.258868 0
M  V30 43 H 6.015406 2.598293 -5.222288 0
M  V30 44 H 4.287715 2.364825 -5.506345 0
M  V30 45 H 5.000726 4.064407 -5.304375 0
M  V30 46 H 3.111789 1.749682 -3.491455 0
M  V30 47 H 4.472825 2.976975 -1.183748 0
M  V30 48 H 3.382136 1.595749 -1.269985 0
M  V30 49 H 2.386784 3.137785 0.130824 0
M  V30 50 H 2.719979 4.568115 -0.893787 0
M  V30 51 H -3.035340 3.245160 -0.814745 0
M  V30 52 H -4.692856 2.391637 0.007074 0
M  V30 53 H -6.649960 1.319066 1.001245 0
M  V30 54 H -6.768770 -1.192201 1.072244 0
M  V30 55 H -5.688774 -3.386389 0.681264 0
M  V30 56 H -4.296266 -2.554358 -1.914920 0
M  V30 57 H -5.895612 -3.488641 -1.739081 0
M  V30 58 H -4.734588 -5.442016 -1.162970 0
M  V30 59 H -3.520639 -4.758625 -2.348085 0
M  V30 60 H -2.029889 -4.242664 -0.628042 0
M  V30 61 H -3.026057 -5.365206 0.302890 0
M  V30 62 H -0.783894 -1.082185 1.537706 0
M  V30 63 H 1.516248 -1.498362 2.101981 0
M  V30 64 H 2.699514 -5.840388 3.604471 0
M  V30 65 H 5.590322 -2.775333 3.262367 0
M  V30 66 H 0.550445 -5.531418 3.100450 0
M  V30 67 H -1.860118 -5.091897 2.508140 0
M  V30 68 H -2.971063 -1.410450 -0.847358 0
M  V30 69 H 2.914137 4.747439 -3.020910 0
M  V30 70 H 2.555096 3.905146 -4.621414 0
M  V30 END ATOM
M  V30 BEGIN BOND
M  V30 1 1 1 2
M  V30 2 1 2 3
M  V30 3 1 2 4
M  V30 4 1 4 5
M  V30 5 1 5 6
M  V30 6 1 6 7
M  V30 7 1 7 8
M  V30 8 2 8 9
M  V30 9 1 9 10
M  V30 10 1 10 11
M  V30 11 2 11 12
M  V30 12 1 11 13
M  V30 13 2 13 14
M  V30 14 1 14 15
M  V30 15 2 15 16
M  V30 16 1 16 17
M  V30 17 1 17 18
M  V30 18 1 18 19
M  V30 19 1 19 20
M  V30 20 1 20 21
M  V30 21 1 21 22
M  V30 22 1 22 23
M  V30 23 2 23 24
M  V30 24 1 23 25
M  V30 25 2 25 26
M  V30 26 1 26 27
M  V30 27 2 27 28
M  V30 28 1 28 29
M  V30 29 2 29 30
M  V30 30 1 30 31
M  V30 31 2 31 32
M  V30 32 1 32 33
M  V30 33 1 28 34
M  V30 34 2 34 35
M  V30 35 2 17 36
M  V30 36 1 9 37
M  V30 37 1 37 38
M  V30 38 1 38 39
M  V30 39 1 39 4
M  V30 40 2 38 7
M  V30 41 1 36 13
M  V30 42 1 22 18
M  V30 43 1 35 25
M  V30 44 1 33 29
M  V30 45 1 1 40
M  V30 46 1 1 41
M  V30 47 1 1 42
M  V30 48 1 3 43
M  V30 49 1 3 44
M  V30 50 1 3 45
M  V30 51 1 4 46 CFG=3
M  V30 52 1 5 47
M  V30 53 1 5 48
M  V30 54 1 6 49
M  V30 55 1 6 50
M  V30 56 1 10 51
M  V30 57 1 14 52
M  V30 58 1 15 53
M  V30 59 1 16 54
M  V30 60 1 18 55 CFG=1
M  V30 61 1 19 56
M  V30 62 1 19 57
M  V30 63 1 20 58
M  V30 64 1 20 59
M  V30 65 1 21 60
M  V30 66 1 21 61
M  V30 67 1 26 62
M  V30 68 1 27 63
M  V30 69 1 30 64
M  V30 70 1 32 65
M  V30 71 1 34 66
M  V30 72 1 35 67
M  V30 73 1 36 68
M  V30 74 1 39 69
M  V30 75 1 39 70
M  V30 END BOND
M  V30 END CTAB
M  END
>  <Dataset>  (150) 
ChEMBL_Kinases

>  <Ligand_Instance>  (150) 
nan

>  <PDB_ID>  (150) 
nan

>  <Standardized_SMILES>  (150) 
CN(C)[C@H]1CCc2nc(NC(=O)c3cccc([C@H]4CCCN4C(=O)c4ccc(-c5cnco5)cc4)c3)sc2C1

>  <Name>  (150) 
nan

>  <Pocket>  (150) 
nan

>  <ATP_Site>  (150) 
nan

>  <Peripheral>  (150) 
nan

>  <Num_H_Atoms_ProtBoundConf>  (150) 
nan

>  <Num_Resolved_Atoms>  (150) 
nan

>  <Num_Not_Resolved_Atoms>  (150) 
nan

$$$$
CHEMBL3700957
     RDKit          3D

  0  0  0  0  0  0  0  0  0  0999 V3000
M  V30 BEGIN CTAB
M  V30 COUNTS 57 60 0 0 0
M  V30 BEGIN ATOM
M  V30 1 C 1.437176 -0.117185 4.792812 0
M  V30 2 C 1.055566 0.897613 3.790802 0 CFG=1
M  V30 3 N 1.989333 1.082656 2.686893 0
M  V30 4 C 2.023800 2.440797 2.280283 0
M  V30 5 O 1.372293 3.398760 2.764434 0
M  V30 6 N 2.847345 2.926185 1.197291 0
M  V30 7 C 2.786539 4.293026 0.827490 0
M  V30 8 C 1.778091 4.385068 -0.141501 0
M  V30 9 C 1.490143 5.640994 -0.696640 0
M  V30 10 C 2.237416 6.698848 -0.238051 0
M  V30 11 C 3.246608 6.653018 0.719684 0
M  V30 12 C 3.954544 7.783933 1.131133 0
M  V30 13 N 4.535381 8.747367 1.487051 0
M  V30 14 C 3.483318 5.396414 1.229341 0
M  V30 15 C -0.228854 0.505679 3.104034 0
M  V30 16 C -1.428892 1.118064 3.497879 0
M  V30 17 C -2.644753 0.861999 2.915934 0
M  V30 18 C -2.665194 -0.054226 1.883118 0
M  V30 19 C -1.498082 -0.668406 1.482906 0
M  V30 20 C -1.590702 -1.590610 0.382372 0
M  V30 21 O -0.524904 -2.289829 0.146444 0
M  V30 22 N -2.498711 -2.010692 -0.564643 0
M  V30 23 C -2.133626 -3.075823 -1.541624 0
M  V30 24 N -1.847915 -3.807737 -2.271873 0
M  V30 25 C -1.899079 -4.987377 -2.726531 0
M  V30 26 C -2.720553 -5.683147 -1.884985 0
M  V30 27 S -3.185588 -4.435844 -0.667240 0
M  V30 28 C -3.097898 -7.161693 -2.042178 0
M  V30 29 N -2.018511 -7.743004 -2.737550 0
M  V30 30 C -1.017475 -8.369564 -1.948093 0
M  V30 31 C -1.619553 -7.085883 -3.914105 0
M  V30 32 C -1.266990 -5.659081 -3.886323 0
M  V30 33 C -0.284029 -0.402933 2.075888 0
M  V30 34 H 2.301609 0.192307 5.427687 0
M  V30 35 H 1.685928 -1.111062 4.430990 0
M  V30 36 H 0.580035 -0.248136 5.495585 0
M  V30 37 H 0.857104 1.878311 4.308119 0
M  V30 38 H 2.587204 0.380371 2.201673 0
M  V30 39 H 3.489734 2.229118 0.706764 0
M  V30 40 H 1.126737 3.631322 -0.579149 0
M  V30 41 H 0.722246 5.832435 -1.457523 0
M  V30 42 H 2.048804 7.697868 -0.648187 0
M  V30 43 H 4.216414 5.203247 1.968576 0
M  V30 44 H -1.351202 1.822885 4.316645 0
M  V30 45 H -3.573469 1.341886 3.224044 0
M  V30 46 H -3.620136 -0.246693 1.421930 0
M  V30 47 H -3.408015 -1.468521 -0.457406 0
M  V30 48 H -3.193943 -7.615469 -1.035004 0
M  V30 49 H -4.063281 -7.271469 -2.535778 0
M  V30 50 H -0.737662 -9.323428 -2.474078 0
M  V30 51 H -1.416588 -8.721294 -0.963467 0
M  V30 52 H -0.081138 -7.801444 -1.824615 0
M  V30 53 H -2.404425 -7.325613 -4.706762 0
M  V30 54 H -0.729836 -7.677844 -4.319656 0
M  V30 55 H -0.148242 -5.565697 -3.843710 0
M  V30 56 H -1.528999 -5.138174 -4.850321 0
M  V30 57 H 0.636891 -0.896046 1.750285 0
M  V30 END ATOM
M  V30 BEGIN BOND
M  V30 1 1 1 2
M  V30 2 1 2 3
M  V30 3 1 3 4
M  V30 4 2 4 5
M  V30 5 1 4 6
M  V30 6 1 6 7
M  V30 7 2 7 8
M  V30 8 1 8 9
M  V30 9 2 9 10
M  V30 10 1 10 11
M  V30 11 1 11 12
M  V30 12 3 12 13
M  V30 13 2 11 14
M  V30 14 1 2 15
M  V30 15 2 15 16
M  V30 16 1 16 17
M  V30 17 2 17 18
M  V30 18 1 18 19
M  V30 19 1 19 20
M  V30 20 2 20 21
M  V30 21 1 20 22
M  V30 22 1 22 23
M  V30 23 2 23 24
M  V30 24 1 24 25
M  V30 25 2 25 26
M  V30 26 1 26 27
M  V30 27 1 26 28
M  V30 28 1 28 29
M  V30 29 1 29 30
M  V30 30 1 29 31
M  V30 31 1 31 32
M  V30 32 2 19 33
M  V30 33 1 14 7
M  V30 34 1 33 15
M  V30 35 1 27 23
M  V30 36 1 32 25
M  V30 37 1 1 34
M  V30 38 1 1 35
M  V30 39 1 1 36
M  V30 40 1 2 37 CFG=1
M  V30 41 1 3 38
M  V30 42 1 6 39
M  V30 43 1 8 40
M  V30 44 1 9 41
M  V30 45 1 10 42
M  V30 46 1 14 43
M  V30 47 1 16 44
M  V30 48 1 17 45
M  V30 49 1 18 46
M  V30 50 1 22 47
M  V30 51 1 28 48
M  V30 52 1 28 49
M  V30 53 1 30 50
M  V30 54 1 30 51
M  V30 55 1 30 52
M  V30 56 1 31 53
M  V30 57 1 31 54
M  V30 58 1 32 55
M  V30 59 1 32 56
M  V30 60 1 33 57
M  V30 END BOND
M  V30 END CTAB
M  END
>  <Dataset>  (151) 
ChEMBL_Kinases

>  <Ligand_Instance>  (151) 
nan

>  <PDB_ID>  (151) 
nan

>  <Standardized_SMILES>  (151) 
C[C@@H](NC(=O)Nc1cccc(C#N)c1)c1cccc(C(=O)Nc2nc3c(s2)CN(C)CC3)c1

>  <Name>  (151) 
nan

>  <Pocket>  (151) 
nan

>  <ATP_Site>  (151) 
nan

>  <Peripheral>  (151) 
nan

>  <Num_H_Atoms_ProtBoundConf>  (151) 
nan

>  <Num_Resolved_Atoms>  (151) 
nan

>  <Num_Not_Resolved_Atoms>  (151) 
nan

$$$$
CHEMBL3700958
     RDKit          3D

  0  0  0  0  0  0  0  0  0  0999 V3000
M  V30 BEGIN CTAB
M  V30 COUNTS 73 79 0 0 0
M  V30 BEGIN ATOM
M  V30 1 N 4.275542 3.292750 0.609250 0
M  V30 2 C 3.666176 3.089436 -0.370038 0
M  V30 3 C 2.911360 2.828265 -1.552682 0
M  V30 4 C 3.502392 2.597539 -2.790581 0
M  V30 5 C 2.697700 2.348850 -3.907705 0
M  V30 6 N 1.357126 2.330912 -3.793188 0
M  V30 7 C 0.487119 2.103345 -4.787960 0
M  V30 8 C -0.761761 2.181093 -4.208718 0
M  V30 9 C -2.148939 2.062301 -4.582910 0
M  V30 10 O -3.222743 2.692770 -4.408220 0
M  V30 11 N -2.735193 1.012161 -5.384070 0
M  V30 12 C -4.157626 1.072676 -5.651965 0
M  V30 13 C -4.607987 -0.314066 -5.977820 0
M  V30 14 C -3.388653 -1.156986 -5.750899 0
M  V30 15 C -2.257695 -0.196968 -6.061521 0 CFG=2
M  V30 16 C -1.020492 -0.712511 -5.369888 0
M  V30 17 C 0.127032 -1.081095 -6.059050 0
M  V30 18 C 1.237270 -1.538350 -5.372894 0
M  V30 19 C 1.192646 -1.625964 -3.982294 0
M  V30 20 C 0.046133 -1.257391 -3.309338 0
M  V30 21 C -0.095657 -1.302925 -1.838245 0
M  V30 22 O -1.195277 -1.065391 -1.233588 0
M  V30 23 N 0.977388 -1.613309 -0.950927 0
M  V30 24 C 0.451067 -1.560059 0.393604 0
M  V30 25 N 0.399869 -0.514246 1.046022 0
M  V30 26 C -0.071497 -0.450480 2.269668 0
M  V30 27 C -0.531902 -1.631058 2.841249 0
M  V30 28 S -0.249186 -2.770043 1.555402 0
M  V30 29 C -1.085663 -1.702745 4.185811 0
M  V30 30 C -0.086750 -1.066329 5.124963 0 CFG=1
M  V30 31 N 1.047302 -1.939206 5.228603 0
M  V30 32 C 2.083763 -1.458470 6.122012 0
M  V30 33 C 1.630604 -1.343211 7.548972 0
M  V30 34 O 0.474465 -1.997779 7.858192 0
M  V30 35 C 0.226459 -3.174239 7.207771 0
M  V30 36 C 0.695750 -3.240269 5.778459 0
M  V30 37 C 0.270595 0.275110 4.616164 0
M  V30 38 C -0.250247 0.659987 3.273564 0
M  V30 39 C -1.061766 -0.800517 -3.994795 0
M  V30 40 N -0.578757 2.452831 -2.885578 0
M  V30 41 C 0.739197 2.548385 -2.615299 0
M  V30 42 C 1.530030 2.791926 -1.521390 0
M  V30 43 H 4.601856 2.624218 -2.828340 0
M  V30 44 H 3.208667 2.173341 -4.850410 0
M  V30 45 H 0.523112 1.894262 -5.833433 0
M  V30 46 H -4.335524 1.711662 -6.557778 0
M  V30 47 H -4.733629 1.462861 -4.762915 0
M  V30 48 H -5.394525 -0.662549 -5.253750 0
M  V30 49 H -5.049709 -0.426041 -6.982155 0
M  V30 50 H -3.361881 -2.060418 -6.391406 0
M  V30 51 H -3.341550 -1.394822 -4.670154 0
M  V30 52 H -2.116355 -0.058880 -7.137153 0
M  V30 53 H 0.113123 -0.996775 -7.123350 0
M  V30 54 H 2.146379 -1.833359 -5.886071 0
M  V30 55 H 2.044724 -1.980947 -3.385720 0
M  V30 56 H 1.902185 -1.816559 -1.340345 0
M  V30 57 H -1.433173 -2.687425 4.485878 0
M  V30 58 H -2.022180 -1.063509 4.178901 0
M  V30 59 H -0.644024 -0.976149 6.095348 0
M  V30 60 H 2.843082 -2.296062 6.124396 0
M  V30 61 H 2.612609 -0.570705 5.796695 0
M  V30 62 H 1.464228 -0.252478 7.767222 0
M  V30 63 H 2.414908 -1.706977 8.276948 0
M  V30 64 H 0.647797 -3.998349 7.837021 0
M  V30 65 H -0.889153 -3.331633 7.225126 0
M  V30 66 H 1.688651 -3.783516 5.833045 0
M  V30 67 H 0.085627 -3.861527 5.122365 0
M  V30 68 H 1.358101 0.498696 4.613899 0
M  V30 69 H -0.150546 1.045481 5.324459 0
M  V30 70 H -1.325300 0.937967 3.307814 0
M  V30 71 H 0.286056 1.565042 2.912348 0
M  V30 72 H -1.971861 -0.506954 -3.459974 0
M  V30 73 H 0.996219 2.963818 -0.584802 0
M  V30 END ATOM
M  V30 BEGIN BOND
M  V30 1 3 1 2
M  V30 2 1 2 3
M  V30 3 1 3 4
M  V30 4 2 4 5
M  V30 5 1 5 6
M  V30 6 1 6 7
M  V30 7 2 7 8
M  V30 8 1 8 9
M  V30 9 2 9 10
M  V30 10 1 9 11
M  V30 11 1 11 12
M  V30 12 1 12 13
M  V30 13 1 13 14
M  V30 14 1 14 15
M  V30 15 1 15 16
M  V30 16 2 16 17
M  V30 17 1 17 18
M  V30 18 2 18 19
M  V30 19 1 19 20
M  V30 20 1 20 21
M  V30 21 2 21 22
M  V30 22 1 21 23
M  V30 23 1 23 24
M  V30 24 2 24 25
M  V30 25 1 25 26
M  V30 26 2 26 27
M  V30 27 1 27 28
M  V30 28 1 27 29
M  V30 29 1 29 30
M  V30 30 1 30 31
M  V30 31 1 31 32
M  V30 32 1 32 33
M  V30 33 1 33 34
M  V30 34 1 34 35
M  V30 35 1 35 36
M  V30 36 1 30 37
M  V30 37 1 37 38
M  V30 38 2 20 39
M  V30 39 1 8 40
M  V30 40 2 40 41
M  V30 41 1 41 42
M  V30 42 2 42 3
M  V30 43 1 41 6
M  V30 44 1 15 11
M  V30 45 1 39 16
M  V30 46 1 28 24
M  V30 47 1 36 31
M  V30 48 1 38 26
M  V30 49 1 4 43
M  V30 50 1 5 44
M  V30 51 1 7 45
M  V30 52 1 12 46
M  V30 53 1 12 47
M  V30 54 1 13 48
M  V30 55 1 13 49
M  V30 56 1 14 50
M  V30 57 1 14 51
M  V30 58 1 15 52 CFG=3
M  V30 59 1 17 53
M  V30 60 1 18 54
M  V30 61 1 19 55
M  V30 62 1 23 56
M  V30 63 1 29 57
M  V30 64 1 29 58
M  V30 65 1 30 59 CFG=1
M  V30 66 1 32 60
M  V30 67 1 32 61
M  V30 68 1 33 62
M  V30 69 1 33 63
M  V30 70 1 35 64
M  V30 71 1 35 65
M  V30 72 1 36 66
M  V30 73 1 36 67
M  V30 74 1 37 68
M  V30 75 1 37 69
M  V30 76 1 38 70
M  V30 77 1 38 71
M  V30 78 1 39 72
M  V30 79 1 42 73
M  V30 END BOND
M  V30 END CTAB
M  END
>  <Dataset>  (152) 
ChEMBL_Kinases

>  <Ligand_Instance>  (152) 
nan

>  <PDB_ID>  (152) 
nan

>  <Standardized_SMILES>  (152) 
N#Cc1ccn2cc(C(=O)N3CCC[C@@H]3c3cccc(C(=O)Nc4nc5c(s4)C[C@@H](N4CCOCC4)CC5)c3)nc2c1

>  <Name>  (152) 
nan

>  <Pocket>  (152) 
nan

>  <ATP_Site>  (152) 
nan

>  <Peripheral>  (152) 
nan

>  <Num_H_Atoms_ProtBoundConf>  (152) 
nan

>  <Num_Resolved_Atoms>  (152) 
nan

>  <Num_Not_Resolved_Atoms>  (152) 
nan

$$$$
CHEMBL3700959
     RDKit          3D

  0  0  0  0  0  0  0  0  0  0999 V3000
M  V30 BEGIN CTAB
M  V30 COUNTS 57 60 0 0 0
M  V30 BEGIN ATOM
M  V30 1 C 2.535653 -0.899908 4.312562 0
M  V30 2 C 1.674458 -0.048945 3.413366 0 CFG=2
M  V30 3 N 1.875805 1.356261 3.695342 0
M  V30 4 C 2.481159 2.215781 2.770019 0
M  V30 5 O 2.863623 1.740510 1.648212 0
M  V30 6 N 2.735541 3.606460 2.924200 0
M  V30 7 C 3.370329 4.378983 1.886290 0
M  V30 8 C 2.593608 5.004280 0.910575 0
M  V30 9 C 3.192822 5.752184 -0.095670 0
M  V30 10 C 4.584257 5.890537 -0.147215 0
M  V30 11 C 5.248086 6.658354 -1.174663 0
M  V30 12 N 5.776582 7.289514 -1.986297 0
M  V30 13 C 5.345131 5.266496 0.824761 0
M  V30 14 C 4.743064 4.512298 1.839737 0
M  V30 15 C 0.266401 -0.461827 3.374445 0
M  V30 16 C -0.667452 -0.074134 4.312482 0
M  V30 17 C -1.983578 -0.479715 4.249261 0
M  V30 18 C -2.416471 -1.304151 3.222888 0
M  V30 19 C -1.538829 -1.724558 2.259761 0
M  V30 20 C -1.813052 -2.589143 1.113047 0
M  V30 21 O -0.971697 -2.949213 0.245076 0
M  V30 22 N -3.110676 -3.097576 0.903406 0
M  V30 23 C -3.220388 -3.972307 -0.324729 0
M  V30 24 N -3.470072 -3.654405 -1.376072 0
M  V30 25 C -3.583102 -4.351827 -2.492574 0
M  V30 26 C -3.362867 -5.676195 -2.359383 0
M  V30 27 S -2.991948 -5.864871 -0.581812 0
M  V30 28 C -3.413181 -6.717740 -3.422950 0
M  V30 29 N -3.320109 -6.070331 -4.724756 0
M  V30 30 C -1.988282 -5.515960 -4.886483 0
M  V30 31 C -4.331072 -5.027691 -4.690785 0
M  V30 32 C -3.919807 -3.859292 -3.866759 0
M  V30 33 C -0.216304 -1.291317 2.360692 0
M  V30 34 H 3.580229 -0.951780 3.927962 0
M  V30 35 H 2.610234 -0.466425 5.318760 0
M  V30 36 H 2.181806 -1.937886 4.389910 0
M  V30 37 H 2.089994 -0.209577 2.375115 0
M  V30 38 H 1.577586 1.791032 4.604884 0
M  V30 39 H 2.428256 4.032230 3.847271 0
M  V30 40 H 1.501415 4.922663 0.912011 0
M  V30 41 H 2.628638 6.252675 -0.870375 0
M  V30 42 H 6.441507 5.323826 0.857826 0
M  V30 43 H 5.275632 3.998969 2.629978 0
M  V30 44 H -0.358083 0.576250 5.135191 0
M  V30 45 H -2.703843 -0.165296 4.995183 0
M  V30 46 H -3.426175 -1.660164 3.109207 0
M  V30 47 H -3.910203 -2.910076 1.503949 0
M  V30 48 H -2.574780 -7.438762 -3.360297 0
M  V30 49 H -4.345547 -7.300060 -3.328144 0
M  V30 50 H -1.644588 -5.045711 -3.921068 0
M  V30 51 H -1.302127 -6.346913 -5.094811 0
M  V30 52 H -2.007167 -4.764058 -5.711722 0
M  V30 53 H -5.272019 -5.500190 -4.412256 0
M  V30 54 H -4.426155 -4.678428 -5.744489 0
M  V30 55 H -3.047764 -3.374204 -4.368479 0
M  V30 56 H -4.742844 -3.111248 -3.861108 0
M  V30 57 H 0.540382 -1.591169 1.620619 0
M  V30 END ATOM
M  V30 BEGIN BOND
M  V30 1 1 1 2
M  V30 2 1 2 3
M  V30 3 1 3 4
M  V30 4 2 4 5
M  V30 5 1 4 6
M  V30 6 1 6 7
M  V30 7 2 7 8
M  V30 8 1 8 9
M  V30 9 2 9 10
M  V30 10 1 10 11
M  V30 11 3 11 12
M  V30 12 1 10 13
M  V30 13 2 13 14
M  V30 14 1 2 15
M  V30 15 2 15 16
M  V30 16 1 16 17
M  V30 17 2 17 18
M  V30 18 1 18 19
M  V30 19 1 19 20
M  V30 20 2 20 21
M  V30 21 1 20 22
M  V30 22 1 22 23
M  V30 23 2 23 24
M  V30 24 1 24 25
M  V30 25 2 25 26
M  V30 26 1 26 27
M  V30 27 1 26 28
M  V30 28 1 28 29
M  V30 29 1 29 30
M  V30 30 1 29 31
M  V30 31 1 31 32
M  V30 32 2 19 33
M  V30 33 1 14 7
M  V30 34 1 33 15
M  V30 35 1 27 23
M  V30 36 1 32 25
M  V30 37 1 1 34
M  V30 38 1 1 35
M  V30 39 1 1 36
M  V30 40 1 2 37 CFG=3
M  V30 41 1 3 38
M  V30 42 1 6 39
M  V30 43 1 8 40
M  V30 44 1 9 41
M  V30 45 1 13 42
M  V30 46 1 14 43
M  V30 47 1 16 44
M  V30 48 1 17 45
M  V30 49 1 18 46
M  V30 50 1 22 47
M  V30 51 1 28 48
M  V30 52 1 28 49
M  V30 53 1 30 50
M  V30 54 1 30 51
M  V30 55 1 30 52
M  V30 56 1 31 53
M  V30 57 1 31 54
M  V30 58 1 32 55
M  V30 59 1 32 56
M  V30 60 1 33 57
M  V30 END BOND
M  V30 END CTAB
M  END
>  <Dataset>  (153) 
ChEMBL_Kinases

>  <Ligand_Instance>  (153) 
nan

>  <PDB_ID>  (153) 
nan

>  <Standardized_SMILES>  (153) 
C[C@H](NC(=O)Nc1ccc(C#N)cc1)c1cccc(C(=O)Nc2nc3c(s2)CN(C)CC3)c1

>  <Name>  (153) 
nan

>  <Pocket>  (153) 
nan

>  <ATP_Site>  (153) 
nan

>  <Peripheral>  (153) 
nan

>  <Num_H_Atoms_ProtBoundConf>  (153) 
nan

>  <Num_Resolved_Atoms>  (153) 
nan

>  <Num_Not_Resolved_Atoms>  (153) 
nan

$$$$
CHEMBL3700960
     RDKit          3D

  0  0  0  0  0  0  0  0  0  0999 V3000
M  V30 BEGIN CTAB
M  V30 COUNTS 64 69 0 0 0
M  V30 BEGIN ATOM
M  V30 1 C 4.305004 -0.958498 4.926818 0
M  V30 2 N 5.336424 -1.312458 3.968734 0
M  V30 3 C 4.771063 -2.227698 2.997476 0
M  V30 4 C 4.731395 -1.621365 1.610451 0
M  V30 5 C 3.888806 -0.367621 1.674087 0
M  V30 6 N 2.792391 -0.014603 1.015392 0
M  V30 7 C 2.320506 1.224098 1.427753 0
M  V30 8 N 1.170960 1.691739 0.770085 0
M  V30 9 C 0.891416 2.607626 -0.309677 0
M  V30 10 O 1.835738 3.205053 -0.875501 0
M  V30 11 C -0.493336 2.811327 -0.707044 0
M  V30 12 C -0.752010 4.026517 -1.342264 0
M  V30 13 C -2.008996 4.366685 -1.790237 0
M  V30 14 C -3.041827 3.478630 -1.606278 0
M  V30 15 C -2.825682 2.268183 -0.985110 0
M  V30 16 C -3.786551 1.170715 -0.677853 0 CFG=1
M  V30 17 C -5.218409 1.513140 -0.954961 0
M  V30 18 C -5.422893 1.046192 -2.396267 0
M  V30 19 C -4.069956 0.460968 -2.781031 0
M  V30 20 N -3.496670 0.003819 -1.514773 0
M  V30 21 C -2.898026 -1.269211 -1.489567 0
M  V30 22 O -3.079178 -1.618791 -2.690451 0
M  V30 23 C -2.208127 -2.372865 -0.878515 0
M  V30 24 C -0.853470 -2.305735 -1.222731 0
M  V30 25 C 0.047985 -3.279653 -0.766978 0
M  V30 26 C -0.520226 -4.263752 0.018996 0
M  V30 27 N 0.325929 -5.203062 0.454900 0
M  V30 28 C -0.069842 -6.230029 1.224192 0
M  V30 29 O 0.787965 -7.096546 1.605557 0
M  V30 30 C -1.414855 -6.338381 1.594870 0
M  V30 31 C -2.300944 -5.362866 1.143288 0
M  V30 32 C -1.852615 -4.323987 0.354257 0
M  V30 33 C -2.712409 -3.376204 -0.091857 0
M  V30 34 C -1.545592 1.940584 -0.536528 0
M  V30 35 S 3.372102 1.818455 2.652988 0
M  V30 36 C 4.505270 0.453350 2.692681 0
M  V30 37 C 5.699325 -0.039349 3.320858 0
M  V30 38 H 3.345607 -1.494296 4.705925 0
M  V30 39 H 4.588527 -1.302495 5.946438 0
M  V30 40 H 4.045584 0.123044 4.924511 0
M  V30 41 H 3.728058 -2.477460 3.278630 0
M  V30 42 H 5.355294 -3.164387 2.930171 0
M  V30 43 H 4.174216 -2.342151 0.976730 0
M  V30 44 H 5.707870 -1.426257 1.170564 0
M  V30 45 H 0.328270 1.220088 1.223518 0
M  V30 46 H -0.030791 4.823012 -1.555035 0
M  V30 47 H -2.261931 5.292186 -2.284004 0
M  V30 48 H -4.068768 3.634595 -1.910844 0
M  V30 49 H -3.654927 0.847433 0.370302 0
M  V30 50 H -5.428914 2.587019 -0.852411 0
M  V30 51 H -5.913039 0.968696 -0.269697 0
M  V30 52 H -6.213266 0.293969 -2.459480 0
M  V30 53 H -5.654886 1.902032 -3.054014 0
M  V30 54 H -4.209195 -0.366452 -3.493340 0
M  V30 55 H -3.399453 1.242161 -3.172397 0
M  V30 56 H -0.367352 -1.548995 -1.835697 0
M  V30 57 H 1.102070 -3.272063 -1.000777 0
M  V30 58 H 1.360401 -5.180562 0.210068 0
M  V30 59 H -1.748808 -7.162693 2.217495 0
M  V30 60 H -3.338177 -5.408490 1.404462 0
M  V30 61 H -3.755667 -3.339292 0.114078 0
M  V30 62 H -1.254020 1.003776 -0.028177 0
M  V30 63 H 6.561399 -0.186247 2.630485 0
M  V30 64 H 6.001703 0.644043 4.110449 0
M  V30 END ATOM
M  V30 BEGIN BOND
M  V30 1 1 1 2
M  V30 2 1 2 3
M  V30 3 1 3 4
M  V30 4 1 4 5
M  V30 5 1 5 6
M  V30 6 2 6 7
M  V30 7 1 7 8
M  V30 8 1 8 9
M  V30 9 2 9 10
M  V30 10 1 9 11
M  V30 11 2 11 12
M  V30 12 1 12 13
M  V30 13 2 13 14
M  V30 14 1 14 15
M  V30 15 1 15 16
M  V30 16 1 16 17
M  V30 17 1 17 18
M  V30 18 1 18 19
M  V30 19 1 19 20
M  V30 20 1 20 21
M  V30 21 2 21 22
M  V30 22 1 21 23
M  V30 23 2 23 24
M  V30 24 1 24 25
M  V30 25 2 25 26
M  V30 26 1 26 27
M  V30 27 1 27 28
M  V30 28 2 28 29
M  V30 29 1 28 30
M  V30 30 2 30 31
M  V30 31 1 31 32
M  V30 32 2 32 33
M  V30 33 2 15 34
M  V30 34 1 7 35
M  V30 35 1 35 36
M  V30 36 1 36 37
M  V30 37 1 37 2
M  V30 38 2 36 5
M  V30 39 1 34 11
M  V30 40 1 20 16
M  V30 41 1 33 23
M  V30 42 1 32 26
M  V30 43 1 1 38
M  V30 44 1 1 39
M  V30 45 1 1 40
M  V30 46 1 3 41
M  V30 47 1 3 42
M  V30 48 1 4 43
M  V30 49 1 4 44
M  V30 50 1 8 45
M  V30 51 1 12 46
M  V30 52 1 13 47
M  V30 53 1 14 48
M  V30 54 1 16 49 CFG=1
M  V30 55 1 17 50
M  V30 56 1 17 51
M  V30 57 1 18 52
M  V30 58 1 18 53
M  V30 59 1 19 54
M  V30 60 1 19 55
M  V30 61 1 24 56
M  V30 62 1 25 57
M  V30 63 1 27 58
M  V30 64 1 30 59
M  V30 65 1 31 60
M  V30 66 1 33 61
M  V30 67 1 34 62
M  V30 68 1 37 63
M  V30 69 1 37 64
M  V30 END BOND
M  V30 END CTAB
M  END
>  <Dataset>  (154) 
ChEMBL_Kinases

>  <Ligand_Instance>  (154) 
nan

>  <PDB_ID>  (154) 
nan

>  <Standardized_SMILES>  (154) 
CN1CCc2nc(NC(=O)c3cccc([C@H]4CCCN4C(=O)c4ccc5[nH]c(=O)ccc5c4)c3)sc2C1

>  <Name>  (154) 
nan

>  <Pocket>  (154) 
nan

>  <ATP_Site>  (154) 
nan

>  <Peripheral>  (154) 
nan

>  <Num_H_Atoms_ProtBoundConf>  (154) 
nan

>  <Num_Resolved_Atoms>  (154) 
nan

>  <Num_Not_Resolved_Atoms>  (154) 
nan

$$$$
CHEMBL3700961
     RDKit          3D

  0  0  0  0  0  0  0  0  0  0999 V3000
M  V30 BEGIN CTAB
M  V30 COUNTS 57 60 0 0 0
M  V30 BEGIN ATOM
M  V30 1 C 1.855553 -0.351715 -0.438518 0
M  V30 2 C 2.070600 -0.067250 1.033029 0 CFG=1
M  V30 3 N 2.421487 1.357664 1.102636 0
M  V30 4 C 3.712433 1.777076 1.514796 0
M  V30 5 O 4.640415 1.026746 1.845631 0
M  V30 6 N 3.847866 3.192985 1.512896 0
M  V30 7 C 5.011620 3.927469 1.871933 0
M  V30 8 C 5.824619 4.138658 0.753364 0
M  V30 9 C 7.014471 4.834618 0.870022 0
M  V30 10 C 7.431549 5.340647 2.098147 0
M  V30 11 C 8.650522 6.055301 2.224688 0
M  V30 12 N 9.655488 6.643293 2.315680 0
M  V30 13 C 6.608413 5.116145 3.182433 0
M  V30 14 C 5.418822 4.425817 3.091017 0
M  V30 15 C 0.825496 -0.368585 1.758204 0
M  V30 16 C 0.557407 0.136319 3.032682 0
M  V30 17 C -0.619489 -0.158187 3.696891 0
M  V30 18 C -1.568558 -0.967925 3.108686 0
M  V30 19 C -1.351851 -1.489128 1.856563 0
M  V30 20 C -2.236678 -2.360243 1.081324 0
M  V30 21 O -2.000200 -2.821384 -0.080207 0
M  V30 22 N -3.478056 -2.770339 1.595623 0
M  V30 23 C -4.092907 -3.642213 0.530154 0
M  V30 24 N -4.759710 -3.421579 -0.345315 0
M  V30 25 C -5.275804 -4.223118 -1.258864 0
M  V30 26 C -4.955919 -5.525447 -1.128920 0
M  V30 27 S -3.916935 -5.526074 0.318423 0
M  V30 28 C -5.430096 -6.605843 -2.059392 0
M  V30 29 N -5.707174 -5.991791 -3.342024 0
M  V30 30 C -4.507269 -5.479164 -3.967564 0
M  V30 31 C -6.679824 -4.954369 -3.088845 0
M  V30 32 C -6.160655 -3.752937 -2.383273 0
M  V30 33 C -0.155544 -1.183903 1.192919 0
M  V30 34 H 0.877622 0.048413 -0.767516 0
M  V30 35 H 2.611570 0.132955 -1.078237 0
M  V30 36 H 1.947602 -1.440659 -0.620031 0
M  V30 37 H 2.941249 -0.650452 1.344515 0
M  V30 38 H 1.633800 1.978859 0.822083 0
M  V30 39 H 3.093403 3.878893 1.241861 0
M  V30 40 H 5.624890 3.799289 -0.273521 0
M  V30 41 H 7.678466 5.020960 0.018360 0
M  V30 42 H 6.866967 5.483377 4.185393 0
M  V30 43 H 4.719512 4.204450 3.872257 0
M  V30 44 H 1.304274 0.772867 3.494678 0
M  V30 45 H -0.843265 0.224046 4.684677 0
M  V30 46 H -2.531265 -1.260315 3.550572 0
M  V30 47 H -3.837855 -2.501269 2.511517 0
M  V30 48 H -4.666057 -7.388245 -2.227178 0
M  V30 49 H -6.332907 -7.079401 -1.668035 0
M  V30 50 H -3.790407 -5.066723 -3.227710 0
M  V30 51 H -3.997508 -6.328731 -4.467134 0
M  V30 52 H -4.740787 -4.728503 -4.741002 0
M  V30 53 H -7.494034 -5.406036 -2.484008 0
M  V30 54 H -7.073214 -4.640621 -4.098269 0
M  V30 55 H -7.063917 -3.206812 -1.993682 0
M  V30 56 H -5.598205 -3.106159 -3.076069 0
M  V30 57 H 0.081991 -1.565479 0.192749 0
M  V30 END ATOM
M  V30 BEGIN BOND
M  V30 1 1 1 2
M  V30 2 1 2 3
M  V30 3 1 3 4
M  V30 4 2 4 5
M  V30 5 1 4 6
M  V30 6 1 6 7
M  V30 7 2 7 8
M  V30 8 1 8 9
M  V30 9 2 9 10
M  V30 10 1 10 11
M  V30 11 3 11 12
M  V30 12 1 10 13
M  V30 13 2 13 14
M  V30 14 1 2 15
M  V30 15 2 15 16
M  V30 16 1 16 17
M  V30 17 2 17 18
M  V30 18 1 18 19
M  V30 19 1 19 20
M  V30 20 2 20 21
M  V30 21 1 20 22
M  V30 22 1 22 23
M  V30 23 2 23 24
M  V30 24 1 24 25
M  V30 25 2 25 26
M  V30 26 1 26 27
M  V30 27 1 26 28
M  V30 28 1 28 29
M  V30 29 1 29 30
M  V30 30 1 29 31
M  V30 31 1 31 32
M  V30 32 2 19 33
M  V30 33 1 14 7
M  V30 34 1 33 15
M  V30 35 1 27 23
M  V30 36 1 32 25
M  V30 37 1 1 34
M  V30 38 1 1 35
M  V30 39 1 1 36
M  V30 40 1 2 37 CFG=1
M  V30 41 1 3 38
M  V30 42 1 6 39
M  V30 43 1 8 40
M  V30 44 1 9 41
M  V30 45 1 13 42
M  V30 46 1 14 43
M  V30 47 1 16 44
M  V30 48 1 17 45
M  V30 49 1 18 46
M  V30 50 1 22 47
M  V30 51 1 28 48
M  V30 52 1 28 49
M  V30 53 1 30 50
M  V30 54 1 30 51
M  V30 55 1 30 52
M  V30 56 1 31 53
M  V30 57 1 31 54
M  V30 58 1 32 55
M  V30 59 1 32 56
M  V30 60 1 33 57
M  V30 END BOND
M  V30 END CTAB
M  END
>  <Dataset>  (155) 
ChEMBL_Kinases

>  <Ligand_Instance>  (155) 
nan

>  <PDB_ID>  (155) 
nan

>  <Standardized_SMILES>  (155) 
C[C@@H](NC(=O)Nc1ccc(C#N)cc1)c1cccc(C(=O)Nc2nc3c(s2)CN(C)CC3)c1

>  <Name>  (155) 
nan

>  <Pocket>  (155) 
nan

>  <ATP_Site>  (155) 
nan

>  <Peripheral>  (155) 
nan

>  <Num_H_Atoms_ProtBoundConf>  (155) 
nan

>  <Num_Resolved_Atoms>  (155) 
nan

>  <Num_Not_Resolved_Atoms>  (155) 
nan

$$$$
CHEMBL3700962
     RDKit          3D

  0  0  0  0  0  0  0  0  0  0999 V3000
M  V30 BEGIN CTAB
M  V30 COUNTS 65 70 0 0 0
M  V30 BEGIN ATOM
M  V30 1 C 5.538611 1.433518 4.861741 0
M  V30 2 N 6.828885 1.815109 4.377643 0
M  V30 3 C 7.382155 0.944670 3.389931 0
M  V30 4 C 6.426819 0.673064 2.293104 0
M  V30 5 C 5.657953 1.907012 1.966499 0
M  V30 6 N 4.758467 1.944413 0.995133 0
M  V30 7 C 4.102219 2.854977 0.663945 0
M  V30 8 N 3.087558 2.763845 -0.487597 0
M  V30 9 C 1.893466 2.345938 0.136444 0
M  V30 10 O 1.992239 2.185631 1.397918 0
M  V30 11 C 0.657734 2.116297 -0.608298 0
M  V30 12 C 0.527199 2.300421 -1.989905 0
M  V30 13 C -0.709909 2.012972 -2.569968 0
M  V30 14 C -1.764659 1.561401 -1.790891 0
M  V30 15 C -1.665457 1.374588 -0.447667 0
M  V30 16 C -2.743234 0.873606 0.418620 0 CFG=1
M  V30 17 C -3.992911 1.709157 0.361450 0
M  V30 18 C -5.053562 0.730023 0.844528 0
M  V30 19 C -4.433115 -0.626967 0.884625 0
M  V30 20 N -3.274231 -0.424679 0.001789 0
M  V30 21 C -2.722115 -1.270238 -1.030047 0
M  V30 22 O -1.741401 -1.187349 -1.846834 0
M  V30 23 C -3.365814 -2.554552 -1.279208 0
M  V30 24 C -2.586049 -3.592266 -0.759278 0
M  V30 25 C -2.970038 -4.928986 -0.853313 0
M  V30 26 C -4.166245 -5.192230 -1.487267 0
M  V30 27 C -4.643677 -6.575231 -1.614356 0
M  V30 28 C -3.982909 -7.690799 -1.133770 0
M  V30 29 C -4.716022 -8.836767 -1.421439 0
M  V30 30 N -5.802374 -8.386404 -2.069508 0
M  V30 31 N -5.765127 -7.063496 -2.185582 0
M  V30 32 C -4.972512 -4.176803 -2.020313 0
M  V30 33 C -4.555582 -2.868433 -1.906546 0
M  V30 34 C -0.429430 1.662809 0.126235 0
M  V30 35 S 4.556813 4.225236 1.748434 0
M  V30 36 C 5.807250 3.147679 2.660110 0
M  V30 37 C 6.813032 3.153919 3.776168 0
M  V30 38 H 5.295807 0.385607 4.624362 0
M  V30 39 H 5.580321 1.551596 5.980712 0
M  V30 40 H 4.725627 2.121474 4.525644 0
M  V30 41 H 8.365116 1.337284 3.067663 0
M  V30 42 H 7.632331 -0.051028 3.866761 0
M  V30 43 H 5.704257 -0.106403 2.691877 0
M  V30 44 H 6.885087 0.190259 1.404053 0
M  V30 45 H 3.144662 2.935307 -1.488694 0
M  V30 46 H 1.402775 2.657088 -2.513878 0
M  V30 47 H -0.767551 2.168792 -3.638136 0
M  V30 48 H -2.715810 1.348032 -2.289221 0
M  V30 49 H -2.433899 0.788947 1.473425 0
M  V30 50 H -4.280504 1.982715 -0.669414 0
M  V30 51 H -3.895950 2.541708 1.065132 0
M  V30 52 H -5.974439 0.775878 0.223384 0
M  V30 53 H -5.390889 0.989986 1.883460 0
M  V30 54 H -5.070681 -1.463689 0.574850 0
M  V30 55 H -3.972322 -0.768163 1.904901 0
M  V30 56 H -1.626089 -3.491655 -0.239214 0
M  V30 57 H -2.384270 -5.752555 -0.459341 0
M  V30 58 H -3.030092 -7.678284 -0.605453 0
M  V30 59 H -4.379321 -9.825064 -1.133593 0
M  V30 60 H -6.563819 -9.039278 -2.421867 0
M  V30 61 H -5.914928 -4.335750 -2.521753 0
M  V30 62 H -5.059630 -1.972378 -2.264669 0
M  V30 63 H -0.327445 1.519644 1.213484 0
M  V30 64 H 7.837187 3.342065 3.400236 0
M  V30 65 H 6.559380 3.878974 4.547553 0
M  V30 END ATOM
M  V30 BEGIN BOND
M  V30 1 1 1 2
M  V30 2 1 2 3
M  V30 3 1 3 4
M  V30 4 1 4 5
M  V30 5 1 5 6
M  V30 6 2 6 7
M  V30 7 1 7 8
M  V30 8 1 8 9
M  V30 9 2 9 10
M  V30 10 1 9 11
M  V30 11 2 11 12
M  V30 12 1 12 13
M  V30 13 2 13 14
M  V30 14 1 14 15
M  V30 15 1 15 16
M  V30 16 1 16 17
M  V30 17 1 17 18
M  V30 18 1 18 19
M  V30 19 1 19 20
M  V30 20 1 20 21
M  V30 21 2 21 22
M  V30 22 1 21 23
M  V30 23 2 23 24
M  V30 24 1 24 25
M  V30 25 2 25 26
M  V30 26 1 26 27
M  V30 27 1 27 28
M  V30 28 2 28 29
M  V30 29 1 29 30
M  V30 30 1 30 31
M  V30 31 1 26 32
M  V30 32 2 32 33
M  V30 33 2 15 34
M  V30 34 1 7 35
M  V30 35 1 35 36
M  V30 36 1 36 37
M  V30 37 1 37 2
M  V30 38 2 36 5
M  V30 39 1 34 11
M  V30 40 1 20 16
M  V30 41 1 33 23
M  V30 42 2 31 27
M  V30 43 1 1 38
M  V30 44 1 1 39
M  V30 45 1 1 40
M  V30 46 1 3 41
M  V30 47 1 3 42
M  V30 48 1 4 43
M  V30 49 1 4 44
M  V30 50 1 8 45
M  V30 51 1 12 46
M  V30 52 1 13 47
M  V30 53 1 14 48
M  V30 54 1 16 49 CFG=1
M  V30 55 1 17 50
M  V30 56 1 17 51
M  V30 57 1 18 52
M  V30 58 1 18 53
M  V30 59 1 19 54
M  V30 60 1 19 55
M  V30 61 1 24 56
M  V30 62 1 25 57
M  V30 63 1 28 58
M  V30 64 1 29 59
M  V30 65 1 30 60
M  V30 66 1 32 61
M  V30 67 1 33 62
M  V30 68 1 34 63
M  V30 69 1 37 64
M  V30 70 1 37 65
M  V30 END BOND
M  V30 END CTAB
M  END
>  <Dataset>  (156) 
ChEMBL_Kinases

>  <Ligand_Instance>  (156) 
nan

>  <PDB_ID>  (156) 
nan

>  <Standardized_SMILES>  (156) 
CN1CCc2nc(NC(=O)c3cccc([C@H]4CCCN4C(=O)c4ccc(-c5cc[nH]n5)cc4)c3)sc2C1

>  <Name>  (156) 
nan

>  <Pocket>  (156) 
nan

>  <ATP_Site>  (156) 
nan

>  <Peripheral>  (156) 
nan

>  <Num_H_Atoms_ProtBoundConf>  (156) 
nan

>  <Num_Resolved_Atoms>  (156) 
nan

>  <Num_Not_Resolved_Atoms>  (156) 
nan

$$$$
CHEMBL3700963
     RDKit          3D

  0  0  0  0  0  0  0  0  0  0999 V3000
M  V30 BEGIN CTAB
M  V30 COUNTS 73 78 0 0 0
M  V30 BEGIN ATOM
M  V30 1 C 4.230135 -1.559531 5.818884 0
M  V30 2 N 4.266891 -1.896329 4.437679 0
M  V30 3 C 3.756873 -3.221462 4.258900 0
M  V30 4 C 5.475463 -1.641480 3.730782 0 CFG=1
M  V30 5 C 5.305045 -2.216817 2.339433 0
M  V30 6 C 5.423607 -1.174574 1.243903 0
M  V30 7 C 4.493247 -0.066815 1.609816 0
M  V30 8 N 3.517265 0.419009 0.881800 0
M  V30 9 C 2.764051 1.310372 1.213903 0
M  V30 10 N 1.626134 1.872829 0.436469 0
M  V30 11 C 0.587743 1.028293 0.782312 0
M  V30 12 O 1.223094 0.216292 1.612489 0
M  V30 13 C -0.801629 0.595817 0.692522 0
M  V30 14 C -1.916617 1.402845 0.614780 0
M  V30 15 C -3.147307 0.809776 0.454508 0
M  V30 16 C -3.221411 -0.557247 0.376286 0
M  V30 17 C -2.175901 -1.438231 0.442664 0
M  V30 18 C -2.216851 -2.905167 0.331596 0 CFG=1
M  V30 19 C -2.808355 -3.618072 1.528610 0
M  V30 20 C -3.130600 -4.997752 0.925510 0
M  V30 21 C -3.201119 -4.803519 -0.558221 0
M  V30 22 N -3.004810 -3.391052 -0.795926 0
M  V30 23 C -3.561677 -2.807415 -1.979074 0
M  V30 24 O -4.030344 -3.899956 -2.352980 0
M  V30 25 C -3.590899 -1.477407 -2.553425 0
M  V30 26 C -2.369691 -0.984252 -3.053063 0
M  V30 27 C -2.406935 0.291678 -3.605876 0
M  V30 28 C -3.546423 1.099254 -3.696819 0
M  V30 29 C -3.383380 2.400442 -4.341394 0
M  V30 30 C -2.231482 3.113069 -4.292708 0
M  V30 31 C -2.063229 4.350593 -4.924630 0
M  V30 32 N -3.161370 4.780376 -5.596134 0
M  V30 33 C -4.292964 4.082452 -5.643731 0
M  V30 34 C -4.511401 2.847148 -5.032561 0
M  V30 35 C -4.703356 0.566510 -3.193447 0
M  V30 36 C -4.749308 -0.689377 -2.631494 0
M  V30 37 C -0.967941 -0.792488 0.605420 0
M  V30 38 S 3.296808 1.766832 2.852090 0
M  V30 39 C 4.652589 0.520859 2.881770 0
M  V30 40 C 5.791046 -0.148312 3.645255 0
M  V30 41 H 3.297564 -2.024833 6.274276 0
M  V30 42 H 5.049935 -2.004206 6.429024 0
M  V30 43 H 4.182398 -0.508502 6.083294 0
M  V30 44 H 2.841109 -3.195060 3.624433 0
M  V30 45 H 3.394246 -3.602920 5.254603 0
M  V30 46 H 4.473585 -3.977765 3.906705 0
M  V30 47 H 6.318451 -2.126973 4.208598 0
M  V30 48 H 6.022611 -3.032284 2.137995 0
M  V30 49 H 4.279696 -2.655917 2.180905 0
M  V30 50 H 6.480980 -0.864155 1.164879 0
M  V30 51 H 5.149549 -1.672615 0.282366 0
M  V30 52 H 1.211479 2.522931 -0.197296 0
M  V30 53 H -1.746684 2.457107 0.687728 0
M  V30 54 H -4.043692 1.418262 0.394061 0
M  V30 55 H -4.199866 -0.991582 0.248933 0
M  V30 56 H -1.170283 -3.289914 0.254710 0
M  V30 57 H -2.100467 -3.781635 2.352029 0
M  V30 58 H -3.720820 -3.173492 1.918648 0
M  V30 59 H -4.039373 -5.402377 1.382395 0
M  V30 60 H -2.303918 -5.710477 1.160903 0
M  V30 61 H -4.164787 -5.172435 -0.981990 0
M  V30 62 H -2.401758 -5.415075 -1.068424 0
M  V30 63 H -1.443647 -1.519112 -3.031562 0
M  V30 64 H -1.461184 0.684505 -3.991676 0
M  V30 65 H -1.362947 2.765001 -3.759601 0
M  V30 66 H -1.186970 4.954946 -4.923013 0
M  V30 67 H -5.131961 4.503794 -6.212053 0
M  V30 68 H -5.421517 2.301136 -5.078019 0
M  V30 69 H -5.590999 1.183816 -3.260369 0
M  V30 70 H -5.636061 -1.124621 -2.233699 0
M  V30 71 H -0.086285 -1.459408 0.662628 0
M  V30 72 H 5.875025 0.261798 4.642953 0
M  V30 73 H 6.662334 -0.040755 2.982865 0
M  V30 END ATOM
M  V30 BEGIN BOND
M  V30 1 1 1 2
M  V30 2 1 2 3
M  V30 3 1 2 4
M  V30 4 1 4 5
M  V30 5 1 5 6
M  V30 6 1 6 7
M  V30 7 1 7 8
M  V30 8 2 8 9
M  V30 9 1 9 10
M  V30 10 1 10 11
M  V30 11 2 11 12
M  V30 12 1 11 13
M  V30 13 2 13 14
M  V30 14 1 14 15
M  V30 15 2 15 16
M  V30 16 1 16 17
M  V30 17 1 17 18
M  V30 18 1 18 19
M  V30 19 1 19 20
M  V30 20 1 20 21
M  V30 21 1 21 22
M  V30 22 1 22 23
M  V30 23 2 23 24
M  V30 24 1 23 25
M  V30 25 2 25 26
M  V30 26 1 26 27
M  V30 27 2 27 28
M  V30 28 1 28 29
M  V30 29 2 29 30
M  V30 30 1 30 31
M  V30 31 2 31 32
M  V30 32 1 32 33
M  V30 33 2 33 34
M  V30 34 1 28 35
M  V30 35 2 35 36
M  V30 36 2 17 37
M  V30 37 1 9 38
M  V30 38 1 38 39
M  V30 39 1 39 40
M  V30 40 1 40 4
M  V30 41 2 39 7
M  V30 42 1 37 13
M  V30 43 1 22 18
M  V30 44 1 36 25
M  V30 45 1 34 29
M  V30 46 1 1 41
M  V30 47 1 1 42
M  V30 48 1 1 43
M  V30 49 1 3 44
M  V30 50 1 3 45
M  V30 51 1 3 46
M  V30 52 1 4 47 CFG=1
M  V30 53 1 5 48
M  V30 54 1 5 49
M  V30 55 1 6 50
M  V30 56 1 6 51
M  V30 57 1 10 52
M  V30 58 1 14 53
M  V30 59 1 15 54
M  V30 60 1 16 55
M  V30 61 1 18 56 CFG=3
M  V30 62 1 19 57
M  V30 63 1 19 58
M  V30 64 1 20 59
M  V30 65 1 20 60
M  V30 66 1 21 61
M  V30 67 1 21 62
M  V30 68 1 26 63
M  V30 69 1 27 64
M  V30 70 1 30 65
M  V30 71 1 31 66
M  V30 72 1 33 67
M  V30 73 1 34 68
M  V30 74 1 35 69
M  V30 75 1 36 70
M  V30 76 1 37 71
M  V30 77 1 40 72
M  V30 78 1 40 73
M  V30 END BOND
M  V30 END CTAB
M  END
>  <Dataset>  (157) 
ChEMBL_Kinases

>  <Ligand_Instance>  (157) 
nan

>  <PDB_ID>  (157) 
nan

>  <Standardized_SMILES>  (157) 
CN(C)[C@H]1CCc2nc(NC(=O)c3cccc([C@H]4CCCN4C(=O)c4ccc(-c5ccncc5)cc4)c3)sc2C1

>  <Name>  (157) 
nan

>  <Pocket>  (157) 
nan

>  <ATP_Site>  (157) 
nan

>  <Peripheral>  (157) 
nan

>  <Num_H_Atoms_ProtBoundConf>  (157) 
nan

>  <Num_Resolved_Atoms>  (157) 
nan

>  <Num_Not_Resolved_Atoms>  (157) 
nan

$$$$
CHEMBL3700964
     RDKit          3D

  0  0  0  0  0  0  0  0  0  0999 V3000
M  V30 BEGIN CTAB
M  V30 COUNTS 58 61 0 0 0
M  V30 BEGIN ATOM
M  V30 1 C 8.307469 -2.040080 4.666869 0
M  V30 2 O 6.918830 -2.097611 4.773105 0
M  V30 3 C 6.043522 -1.812232 3.758397 0
M  V30 4 C 6.400544 -1.400777 2.445645 0
M  V30 5 C 5.420822 -1.155313 1.545263 0
M  V30 6 C 4.078332 -1.248477 1.718419 0
M  V30 7 C 3.045319 -0.930309 0.751147 0
M  V30 8 O 1.961245 -1.573861 0.574535 0
M  V30 9 N 3.180308 0.188301 -0.116653 0
M  V30 10 C 2.338265 0.740315 -1.168229 0 CFG=2
M  V30 11 C 3.152526 1.562750 -2.131597 0
M  V30 12 C 1.278235 1.634296 -0.518726 0
M  V30 13 C 1.553492 2.853247 0.011809 0
M  V30 14 C 0.481594 3.543552 0.611999 0
M  V30 15 C -0.788177 3.004734 0.656397 0
M  V30 16 C -1.069984 1.774091 0.122130 0
M  V30 17 C -2.359182 1.043397 0.068568 0
M  V30 18 O -2.445431 -0.171284 -0.343919 0
M  V30 19 N -3.601319 1.534128 0.433693 0
M  V30 20 C -4.510605 0.340169 0.168391 0
M  V30 21 N -5.063358 0.051451 -0.832775 0
M  V30 22 C -5.824181 -1.001419 -0.996561 0
M  V30 23 C -6.018732 -1.864044 0.071621 0
M  V30 24 S -4.963228 -0.972336 1.364719 0
M  V30 25 C -6.849596 -3.065007 -0.072396 0
M  V30 26 N -6.527960 -3.805324 -1.269949 0
M  V30 27 C -5.582849 -4.856134 -1.008186 0
M  V30 28 C -6.066589 -2.959367 -2.343579 0
M  V30 29 C -6.619244 -1.572999 -2.149452 0
M  V30 30 C -0.002172 1.092441 -0.471618 0
M  V30 31 C 3.645627 -1.654524 2.999270 0
M  V30 32 C 4.678901 -1.897325 3.895317 0
M  V30 33 Cl 4.135163 -2.405215 5.507067 0
M  V30 34 H 8.631301 -2.104296 3.595190 0
M  V30 35 H 8.781557 -1.131706 5.072912 0
M  V30 36 H 8.791145 -2.956132 5.131127 0
M  V30 37 H 7.441633 -1.301308 2.210416 0
M  V30 38 H 5.705318 -0.829255 0.521741 0
M  V30 39 H 4.080012 0.749069 0.040857 0
M  V30 40 H 1.817025 -0.061237 -1.724685 0
M  V30 41 H 3.854633 2.223538 -1.579515 0
M  V30 42 H 2.456541 2.144061 -2.779100 0
M  V30 43 H 3.719282 0.882876 -2.767339 0
M  V30 44 H 2.550585 3.254610 -0.032041 0
M  V30 45 H 0.684257 4.510086 1.041238 0
M  V30 46 H -1.647666 3.499802 1.106654 0
M  V30 47 H -3.710461 2.487632 0.775932 0
M  V30 48 H -6.745639 -3.752477 0.785243 0
M  V30 49 H -7.912764 -2.782448 -0.148753 0
M  V30 50 H -5.310146 -4.904918 0.084512 0
M  V30 51 H -4.643808 -4.613031 -1.583241 0
M  V30 52 H -6.001914 -5.802128 -1.376846 0
M  V30 53 H -4.961350 -2.859606 -2.362174 0
M  V30 54 H -6.439129 -3.393797 -3.300295 0
M  V30 55 H -6.492744 -0.942016 -3.053041 0
M  V30 56 H -7.673448 -1.566230 -1.856032 0
M  V30 57 H -0.170501 0.096925 -0.917280 0
M  V30 58 H 2.613303 -1.765100 3.281062 0
M  V30 END ATOM
M  V30 BEGIN BOND
M  V30 1 1 1 2
M  V30 2 1 2 3
M  V30 3 2 3 4
M  V30 4 1 4 5
M  V30 5 2 5 6
M  V30 6 1 6 7
M  V30 7 2 7 8
M  V30 8 1 7 9
M  V30 9 1 9 10
M  V30 10 1 10 11
M  V30 11 1 10 12
M  V30 12 2 12 13
M  V30 13 1 13 14
M  V30 14 2 14 15
M  V30 15 1 15 16
M  V30 16 1 16 17
M  V30 17 2 17 18
M  V30 18 1 17 19
M  V30 19 1 19 20
M  V30 20 2 20 21
M  V30 21 1 21 22
M  V30 22 2 22 23
M  V30 23 1 23 24
M  V30 24 1 23 25
M  V30 25 1 25 26
M  V30 26 1 26 27
M  V30 27 1 26 28
M  V30 28 1 28 29
M  V30 29 2 16 30
M  V30 30 1 6 31
M  V30 31 2 31 32
M  V30 32 1 32 33
M  V30 33 1 32 3
M  V30 34 1 30 12
M  V30 35 1 24 20
M  V30 36 1 29 22
M  V30 37 1 1 34
M  V30 38 1 1 35
M  V30 39 1 1 36
M  V30 40 1 4 37
M  V30 41 1 5 38
M  V30 42 1 9 39
M  V30 43 1 10 40 CFG=3
M  V30 44 1 11 41
M  V30 45 1 11 42
M  V30 46 1 11 43
M  V30 47 1 13 44
M  V30 48 1 14 45
M  V30 49 1 15 46
M  V30 50 1 19 47
M  V30 51 1 25 48
M  V30 52 1 25 49
M  V30 53 1 27 50
M  V30 54 1 27 51
M  V30 55 1 27 52
M  V30 56 1 28 53
M  V30 57 1 28 54
M  V30 58 1 29 55
M  V30 59 1 29 56
M  V30 60 1 30 57
M  V30 61 1 31 58
M  V30 END BOND
M  V30 END CTAB
M  END
>  <Dataset>  (158) 
ChEMBL_Kinases

>  <Ligand_Instance>  (158) 
nan

>  <PDB_ID>  (158) 
nan

>  <Standardized_SMILES>  (158) 
COc1ccc(C(=O)N[C@H](C)c2cccc(C(=O)Nc3nc4c(s3)CN(C)CC4)c2)cc1Cl

>  <Name>  (158) 
nan

>  <Pocket>  (158) 
nan

>  <ATP_Site>  (158) 
nan

>  <Peripheral>  (158) 
nan

>  <Num_H_Atoms_ProtBoundConf>  (158) 
nan

>  <Num_Resolved_Atoms>  (158) 
nan

>  <Num_Not_Resolved_Atoms>  (158) 
nan

$$$$
CHEMBL3700956
     RDKit          3D

  0  0  0  0  0  0  0  0  0  0999 V3000
M  V30 BEGIN CTAB
M  V30 COUNTS 65 70 0 0 0
M  V30 BEGIN ATOM
M  V30 1 C -3.032722 1.433969 7.268888 0
M  V30 2 N -3.048110 1.528043 5.829452 0
M  V30 3 C -2.402211 2.754535 5.440413 0
M  V30 4 C -2.524837 3.070435 3.987234 0
M  V30 5 C -2.046963 1.871496 3.205359 0
M  V30 6 N -1.588814 1.861856 1.949097 0
M  V30 7 C -1.220011 0.933929 1.347244 0
M  V30 8 N -0.719379 0.936765 -0.032263 0
M  V30 9 C 0.646647 1.121265 -0.284371 0
M  V30 10 O 1.474096 1.287863 0.656044 0
M  V30 11 C 1.180840 1.130422 -1.643141 0
M  V30 12 C 2.547576 1.318553 -1.807971 0
M  V30 13 C 3.138849 1.341594 -3.069519 0
M  V30 14 C 2.326186 1.169632 -4.195814 0
M  V30 15 C 0.948647 0.979132 -4.050878 0
M  V30 16 C 0.068581 0.797727 -5.203997 0 CFG=1
M  V30 17 C 0.777589 0.385134 -6.463177 0
M  V30 18 C -0.442959 0.035213 -7.332880 0
M  V30 19 C -1.582725 -0.039973 -6.303419 0
M  V30 20 N -0.891167 -0.290764 -5.054929 0
M  V30 21 C -1.329378 -1.364244 -4.233149 0
M  V30 22 O -2.294217 -1.805744 -4.938648 0
M  V30 23 C -1.109910 -2.083943 -2.999709 0
M  V30 24 C -2.172201 -2.274103 -2.141251 0
M  V30 25 C -1.892818 -2.965900 -0.989471 0
M  V30 26 C -0.621987 -3.434196 -0.724207 0
M  V30 27 C 0.431972 -3.240291 -1.585514 0
M  V30 28 C 1.726728 -3.769592 -1.219011 0
M  V30 29 C 2.759142 -4.242729 -2.030594 0
M  V30 30 N 3.771913 -4.632970 -1.230590 0
M  V30 31 N 3.456262 -4.440226 0.054756 0
M  V30 32 C 2.217373 -3.917190 0.062470 0
M  V30 33 C 0.164038 -2.546792 -2.745915 0
M  V30 34 C 0.438541 0.968667 -2.769409 0
M  V30 35 S -1.453280 -0.488310 2.621505 0
M  V30 36 C -2.077496 0.614488 3.848496 0
M  V30 37 C -2.533691 0.361608 5.215997 0
M  V30 38 H -2.163157 1.951667 7.728294 0
M  V30 39 H -2.932127 0.356930 7.533563 0
M  V30 40 H -3.957857 1.813994 7.736681 0
M  V30 41 H -1.354763 2.842034 5.763535 0
M  V30 42 H -2.942667 3.571688 5.988020 0
M  V30 43 H -1.872488 3.949351 3.797203 0
M  V30 44 H -3.533601 3.380753 3.672542 0
M  V30 45 H -1.420290 0.797453 -0.791941 0
M  V30 46 H 3.262291 1.461092 -0.988344 0
M  V30 47 H 4.210960 1.489330 -3.201929 0
M  V30 48 H 2.787426 1.187559 -5.170005 0
M  V30 49 H -0.476827 1.769136 -5.343642 0
M  V30 50 H 1.381679 1.169522 -6.922518 0
M  V30 51 H 1.281745 -0.564877 -6.263251 0
M  V30 52 H -0.302337 -0.929948 -7.830005 0
M  V30 53 H -0.602788 0.898471 -7.994862 0
M  V30 54 H -2.070442 0.968674 -6.225819 0
M  V30 55 H -2.330953 -0.773388 -6.584897 0
M  V30 56 H -3.160034 -1.898293 -2.369090 0
M  V30 57 H -2.710075 -3.131570 -0.293027 0
M  V30 58 H -0.488499 -3.966503 0.200581 0
M  V30 59 H 2.714586 -4.273456 -3.101258 0
M  V30 60 H 4.078404 -4.665564 0.861542 0
M  V30 61 H 1.691234 -3.653411 0.958665 0
M  V30 62 H 0.991653 -2.380158 -3.448810 0
M  V30 63 H -0.637668 0.818900 -2.675339 0
M  V30 64 H -1.651985 -0.008996 5.782652 0
M  V30 65 H -3.293197 -0.438884 5.298769 0
M  V30 END ATOM
M  V30 BEGIN BOND
M  V30 1 1 1 2
M  V30 2 1 2 3
M  V30 3 1 3 4
M  V30 4 1 4 5
M  V30 5 1 5 6
M  V30 6 2 6 7
M  V30 7 1 7 8
M  V30 8 1 8 9
M  V30 9 2 9 10
M  V30 10 1 9 11
M  V30 11 2 11 12
M  V30 12 1 12 13
M  V30 13 2 13 14
M  V30 14 1 14 15
M  V30 15 1 15 16
M  V30 16 1 16 17
M  V30 17 1 17 18
M  V30 18 1 18 19
M  V30 19 1 19 20
M  V30 20 1 20 21
M  V30 21 2 21 22
M  V30 22 1 21 23
M  V30 23 2 23 24
M  V30 24 1 24 25
M  V30 25 2 25 26
M  V30 26 1 26 27
M  V30 27 1 27 28
M  V30 28 1 28 29
M  V30 29 2 29 30
M  V30 30 1 30 31
M  V30 31 1 31 32
M  V30 32 2 27 33
M  V30 33 2 15 34
M  V30 34 1 7 35
M  V30 35 1 35 36
M  V30 36 1 36 37
M  V30 37 1 37 2
M  V30 38 2 36 5
M  V30 39 1 34 11
M  V30 40 1 20 16
M  V30 41 1 33 23
M  V30 42 2 32 28
M  V30 43 1 1 38
M  V30 44 1 1 39
M  V30 45 1 1 40
M  V30 46 1 3 41
M  V30 47 1 3 42
M  V30 48 1 4 43
M  V30 49 1 4 44
M  V30 50 1 8 45
M  V30 51 1 12 46
M  V30 52 1 13 47
M  V30 53 1 14 48
M  V30 54 1 16 49 CFG=3
M  V30 55 1 17 50
M  V30 56 1 17 51
M  V30 57 1 18 52
M  V30 58 1 18 53
M  V30 59 1 19 54
M  V30 60 1 19 55
M  V30 61 1 24 56
M  V30 62 1 25 57
M  V30 63 1 26 58
M  V30 64 1 29 59
M  V30 65 1 31 60
M  V30 66 1 32 61
M  V30 67 1 33 62
M  V30 68 1 34 63
M  V30 69 1 37 64
M  V30 70 1 37 65
M  V30 END BOND
M  V30 END CTAB
M  END
>  <Dataset>  (159) 
ChEMBL_Kinases

>  <Ligand_Instance>  (159) 
nan

>  <PDB_ID>  (159) 
nan

>  <Standardized_SMILES>  (159) 
CN1CCc2nc(NC(=O)c3cccc([C@H]4CCCN4C(=O)c4cccc(-c5cn[nH]c5)c4)c3)sc2C1

>  <Name>  (159) 
nan

>  <Pocket>  (159) 
nan

>  <ATP_Site>  (159) 
nan

>  <Peripheral>  (159) 
nan

>  <Num_H_Atoms_ProtBoundConf>  (159) 
nan

>  <Num_Resolved_Atoms>  (159) 
nan

>  <Num_Not_Resolved_Atoms>  (159) 
nan

$$$$
CHEMBL3700545
     RDKit          3D

  0  0  0  0  0  0  0  0  0  0999 V3000
M  V30 BEGIN CTAB
M  V30 COUNTS 41 44 0 0 0
M  V30 BEGIN ATOM
M  V30 1 C 1.068796 -5.704160 0.899648 0
M  V30 2 C -0.277049 -5.045097 0.965576 0
M  V30 3 C -0.573890 -4.142078 -0.166497 0
M  V30 4 C -1.199231 -4.612539 -1.306241 0
M  V30 5 C -1.445108 -3.708243 -2.315638 0
M  V30 6 C -1.119536 -2.374756 -2.284433 0
M  V30 7 C -0.494418 -1.852015 -1.170783 0
M  V30 8 N -0.000247 -0.583269 -0.823941 0
M  V30 9 C 0.009075 0.300605 0.284042 0
M  V30 10 N 0.999212 1.184966 0.193479 0
M  V30 11 C 1.321596 2.152961 1.034294 0
M  V30 12 C 2.350794 3.060630 0.934919 0
M  V30 13 C 2.569037 4.017805 1.900953 0
M  V30 14 C 3.660948 4.972451 1.793830 0
M  V30 15 O 3.884030 5.847395 2.641902 0
M  V30 16 O 4.508940 4.924495 0.701418 0
M  V30 17 C 1.709108 4.049164 2.999935 0
M  V30 18 C 0.658135 3.135723 3.117250 0
M  V30 19 C 0.479350 2.194535 2.125451 0
M  V30 20 C -0.562719 1.318621 2.286991 0
M  V30 21 S -1.747432 1.198147 3.551237 0
M  V30 22 C -2.634753 -0.262970 2.753971 0
M  V30 23 C -1.869547 -0.521184 1.508795 0
M  V30 24 C -0.832024 0.337547 1.363130 0
M  V30 25 C -0.245566 -2.781436 -0.142750 0
M  V30 26 H 0.983816 -6.813556 1.009098 0
M  V30 27 H 1.543810 -5.488255 -0.065803 0
M  V30 28 H 1.759471 -5.342679 1.715016 0
M  V30 29 H -0.305947 -4.481896 1.951418 0
M  V30 30 H -1.069815 -5.816472 1.071595 0
M  V30 31 H -1.495748 -5.639899 -1.431647 0
M  V30 32 H -1.937971 -3.983743 -3.262998 0
M  V30 33 H -1.268652 -1.604786 -3.015787 0
M  V30 34 H 0.462906 -0.363230 -1.752130 0
M  V30 35 H 2.973719 2.972095 0.054753 0
M  V30 36 H 5.511817 5.122092 0.767594 0
M  V30 37 H 1.819659 4.777769 3.801048 0
M  V30 38 H 0.003335 3.187627 3.991152 0
M  V30 39 H -3.585679 -0.882067 3.095668 0
M  V30 40 H -2.306794 -1.330265 0.976848 0
M  V30 41 H 0.247408 -2.516085 0.802719 0
M  V30 END ATOM
M  V30 BEGIN BOND
M  V30 1 1 1 2
M  V30 2 1 2 3
M  V30 3 2 3 4
M  V30 4 1 4 5
M  V30 5 2 5 6
M  V30 6 1 6 7
M  V30 7 1 7 8
M  V30 8 1 8 9
M  V30 9 2 9 10
M  V30 10 1 10 11
M  V30 11 2 11 12
M  V30 12 1 12 13
M  V30 13 1 13 14
M  V30 14 2 14 15
M  V30 15 1 14 16
M  V30 16 2 13 17
M  V30 17 1 17 18
M  V30 18 2 18 19
M  V30 19 1 19 20
M  V30 20 1 20 21
M  V30 21 1 21 22
M  V30 22 2 22 23
M  V30 23 1 23 24
M  V30 24 2 7 25
M  V30 25 1 25 3
M  V30 26 1 24 9
M  V30 27 1 19 11
M  V30 28 2 24 20
M  V30 29 1 1 26
M  V30 30 1 1 27
M  V30 31 1 1 28
M  V30 32 1 2 29
M  V30 33 1 2 30
M  V30 34 1 4 31
M  V30 35 1 5 32
M  V30 36 1 6 33
M  V30 37 1 8 34
M  V30 38 1 12 35
M  V30 39 1 16 36
M  V30 40 1 17 37
M  V30 41 1 18 38
M  V30 42 1 22 39
M  V30 43 1 23 40
M  V30 44 1 25 41
M  V30 END BOND
M  V30 END CTAB
M  END
>  <Dataset>  (160) 
ChEMBL_Kinases

>  <Ligand_Instance>  (160) 
nan

>  <PDB_ID>  (160) 
nan

>  <Standardized_SMILES>  (160) 
CCc1cccc(Nc2nc3cc(C(=O)O)ccc3c3sccc23)c1

>  <Name>  (160) 
nan

>  <Pocket>  (160) 
nan

>  <ATP_Site>  (160) 
nan

>  <Peripheral>  (160) 
nan

>  <Num_H_Atoms_ProtBoundConf>  (160) 
nan

>  <Num_Resolved_Atoms>  (160) 
nan

>  <Num_Not_Resolved_Atoms>  (160) 
nan

$$$$
CHEMBL3700544
     RDKit          3D

  0  0  0  0  0  0  0  0  0  0999 V3000
M  V30 BEGIN CTAB
M  V30 COUNTS 38 41 0 0 0
M  V30 BEGIN ATOM
M  V30 1 O 2.888009 -2.062427 4.735146 0
M  V30 2 C 3.099535 -2.978087 3.885682 0
M  V30 3 O 3.913202 -4.039879 4.248641 0
M  V30 4 C 2.498873 -2.913517 2.556418 0
M  V30 5 C 2.755741 -3.942327 1.647545 0
M  V30 6 C 2.198162 -3.911863 0.370116 0
M  V30 7 C 1.408036 -2.816780 0.112079 0
M  V30 8 C 1.132415 -1.786043 0.979325 0
M  V30 9 C 1.694753 -1.838239 2.235970 0
M  V30 10 N 0.339275 -0.829723 0.509396 0
M  V30 11 C -0.238319 -0.693445 -0.659353 0
M  V30 12 N -1.068646 0.406584 -1.005512 0
M  V30 13 C -1.437560 1.528355 -0.225700 0
M  V30 14 C -2.273339 2.538096 -0.717160 0
M  V30 15 C -2.645824 3.632618 0.013949 0
M  V30 16 C -2.208538 3.796704 1.291817 0
M  V30 17 C -1.392097 2.852025 1.833386 0
M  V30 18 C -0.922473 3.045084 3.230545 0
M  V30 19 F 0.008289 2.062354 3.551159 0
M  V30 20 F -1.964852 2.919614 4.127184 0
M  V30 21 F -0.278907 4.248581 3.412707 0
M  V30 22 C -1.041719 1.771658 1.070767 0
M  V30 23 C -0.024220 -1.673019 -1.597001 0
M  V30 24 C -0.473959 -1.819104 -2.879165 0
M  V30 25 C -0.134799 -2.895701 -3.663389 0
M  V30 26 S 0.917687 -3.860415 -2.590780 0
M  V30 27 C 0.826649 -2.727820 -1.135479 0
M  V30 28 H 4.514614 -4.019695 5.079403 0
M  V30 29 H 3.392046 -4.790149 1.905610 0
M  V30 30 H 2.350249 -4.668869 -0.386193 0
M  V30 31 H 1.475210 -1.027096 2.912197 0
M  V30 32 H -1.488562 0.428054 -1.969384 0
M  V30 33 H -2.649404 2.448196 -1.740613 0
M  V30 34 H -3.294825 4.360072 -0.451179 0
M  V30 35 H -2.536556 4.674339 1.808524 0
M  V30 36 H -0.395100 1.077203 1.578893 0
M  V30 37 H -1.122214 -1.109539 -3.369577 0
M  V30 38 H -0.346113 -3.206936 -4.623795 0
M  V30 END ATOM
M  V30 BEGIN BOND
M  V30 1 2 1 2
M  V30 2 1 2 3
M  V30 3 1 2 4
M  V30 4 2 4 5
M  V30 5 1 5 6
M  V30 6 2 6 7
M  V30 7 1 7 8
M  V30 8 2 8 9
M  V30 9 1 8 10
M  V30 10 2 10 11
M  V30 11 1 11 12
M  V30 12 1 12 13
M  V30 13 2 13 14
M  V30 14 1 14 15
M  V30 15 2 15 16
M  V30 16 1 16 17
M  V30 17 1 17 18
M  V30 18 1 18 19
M  V30 19 1 18 20
M  V30 20 1 18 21
M  V30 21 2 17 22
M  V30 22 1 11 23
M  V30 23 1 23 24
M  V30 24 2 24 25
M  V30 25 1 25 26
M  V30 26 1 26 27
M  V30 27 1 9 4
M  V30 28 1 22 13
M  V30 29 2 27 23
M  V30 30 1 27 7
M  V30 31 1 3 28
M  V30 32 1 5 29
M  V30 33 1 6 30
M  V30 34 1 9 31
M  V30 35 1 12 32
M  V30 36 1 14 33
M  V30 37 1 15 34
M  V30 38 1 16 35
M  V30 39 1 22 36
M  V30 40 1 24 37
M  V30 41 1 25 38
M  V30 END BOND
M  V30 END CTAB
M  END
>  <Dataset>  (161) 
ChEMBL_Kinases

>  <Ligand_Instance>  (161) 
nan

>  <PDB_ID>  (161) 
nan

>  <Standardized_SMILES>  (161) 
O=C(O)c1ccc2c(c1)nc(Nc1cccc(C(F)(F)F)c1)c1ccsc12

>  <Name>  (161) 
nan

>  <Pocket>  (161) 
nan

>  <ATP_Site>  (161) 
nan

>  <Peripheral>  (161) 
nan

>  <Num_H_Atoms_ProtBoundConf>  (161) 
nan

>  <Num_Resolved_Atoms>  (161) 
nan

>  <Num_Not_Resolved_Atoms>  (161) 
nan

$$$$
CHEMBL3700543
     RDKit          3D

  0  0  0  0  0  0  0  0  0  0999 V3000
M  V30 BEGIN CTAB
M  V30 COUNTS 43 46 0 0 0
M  V30 BEGIN ATOM
M  V30 1 C 1.140659 1.526952 4.064253 0
M  V30 2 N 1.994784 0.807056 4.959856 0
M  V30 3 S 2.295326 -0.804174 4.461741 0
M  V30 4 O 1.027442 -1.584894 4.271456 0
M  V30 5 O 3.139756 -1.479660 5.504096 0
M  V30 6 C 3.104642 -0.756170 2.912844 0
M  V30 7 C 4.468389 -0.711894 2.894293 0
M  V30 8 C 5.121929 -0.673693 1.683945 0
M  V30 9 C 4.408893 -0.680170 0.513980 0
M  V30 10 C 3.011591 -0.724535 0.462036 0
M  V30 11 N 2.303522 -0.730082 -0.761478 0
M  V30 12 C 0.902227 -0.772514 -0.992299 0
M  V30 13 N 0.017234 -0.815386 -0.022877 0
M  V30 14 C -1.310643 -0.858207 -0.062212 0
M  V30 15 C -2.151125 -0.901391 1.030422 0
M  V30 16 C -3.513015 -0.942699 0.808547 0
M  V30 17 C -4.395501 -0.988202 1.967951 0
M  V30 18 O -3.913576 -0.989154 3.129714 0
M  V30 19 O -5.773005 -1.031558 1.852623 0
M  V30 20 C -4.034425 -0.941443 -0.462847 0
M  V30 21 C -3.216439 -0.898435 -1.594149 0
M  V30 22 C -1.869250 -0.858389 -1.317886 0
M  V30 23 C -0.997143 -0.814705 -2.373006 0
M  V30 24 S -1.374652 -0.801644 -4.135704 0
M  V30 25 C 0.430334 -0.734280 -4.717249 0
M  V30 26 C 1.109858 -0.730261 -3.455201 0
M  V30 27 C 0.434375 -0.769257 -2.280657 0
M  V30 28 C 2.435818 -0.760779 1.711625 0
M  V30 29 H 0.342789 2.042707 4.674178 0
M  V30 30 H 0.600878 0.912403 3.326854 0
M  V30 31 H 1.768709 2.321502 3.582145 0
M  V30 32 H 1.786490 0.903841 5.958840 0
M  V30 33 H 5.070093 -0.705088 3.787639 0
M  V30 34 H 6.200304 -0.638035 1.623338 0
M  V30 35 H 4.972242 -0.648617 -0.431841 0
M  V30 36 H 2.945102 -0.697095 -1.600560 0
M  V30 37 H -1.697011 -0.900672 2.012667 0
M  V30 38 H -6.367082 -0.477284 2.470035 0
M  V30 39 H -5.094492 -0.974752 -0.555527 0
M  V30 40 H -3.620151 -0.897204 -2.596855 0
M  V30 41 H 0.711920 -0.711261 -5.676225 0
M  V30 42 H 2.179811 -0.693668 -3.568542 0
M  V30 43 H 1.377356 -0.796593 1.828831 0
M  V30 END ATOM
M  V30 BEGIN BOND
M  V30 1 1 1 2
M  V30 2 1 2 3
M  V30 3 2 3 4
M  V30 4 2 3 5
M  V30 5 1 3 6
M  V30 6 2 6 7
M  V30 7 1 7 8
M  V30 8 2 8 9
M  V30 9 1 9 10
M  V30 10 1 10 11
M  V30 11 1 11 12
M  V30 12 2 12 13
M  V30 13 1 13 14
M  V30 14 2 14 15
M  V30 15 1 15 16
M  V30 16 1 16 17
M  V30 17 2 17 18
M  V30 18 1 17 19
M  V30 19 2 16 20
M  V30 20 1 20 21
M  V30 21 2 21 22
M  V30 22 1 22 23
M  V30 23 1 23 24
M  V30 24 1 24 25
M  V30 25 2 25 26
M  V30 26 1 26 27
M  V30 27 2 10 28
M  V30 28 1 28 6
M  V30 29 1 27 12
M  V30 30 1 22 14
M  V30 31 2 27 23
M  V30 32 1 1 29
M  V30 33 1 1 30
M  V30 34 1 1 31
M  V30 35 1 2 32
M  V30 36 1 7 33
M  V30 37 1 8 34
M  V30 38 1 9 35
M  V30 39 1 11 36
M  V30 40 1 15 37
M  V30 41 1 19 38
M  V30 42 1 20 39
M  V30 43 1 21 40
M  V30 44 1 25 41
M  V30 45 1 26 42
M  V30 46 1 28 43
M  V30 END BOND
M  V30 END CTAB
M  END
>  <Dataset>  (162) 
ChEMBL_Kinases

>  <Ligand_Instance>  (162) 
nan

>  <PDB_ID>  (162) 
nan

>  <Standardized_SMILES>  (162) 
CNS(=O)(=O)c1cccc(Nc2nc3cc(C(=O)O)ccc3c3sccc23)c1

>  <Name>  (162) 
nan

>  <Pocket>  (162) 
nan

>  <ATP_Site>  (162) 
nan

>  <Peripheral>  (162) 
nan

>  <Num_H_Atoms_ProtBoundConf>  (162) 
nan

>  <Num_Resolved_Atoms>  (162) 
nan

>  <Num_Not_Resolved_Atoms>  (162) 
nan

$$$$
CHEMBL3700542
     RDKit          3D

  0  0  0  0  0  0  0  0  0  0999 V3000
M  V30 BEGIN CTAB
M  V30 COUNTS 39 43 0 0 0
M  V30 BEGIN ATOM
M  V30 1 O 4.253650 -2.860685 2.964318 0
M  V30 2 C 3.740892 -3.854627 2.364515 0
M  V30 3 O 4.346915 -5.075541 2.482273 0
M  V30 4 C 2.516781 -3.683010 1.560467 0
M  V30 5 C 1.951745 -4.760723 0.903904 0
M  V30 6 C 0.795363 -4.642298 0.133557 0
M  V30 7 C 0.284180 -3.367771 0.094543 0
M  V30 8 C 0.804040 -2.264911 0.726075 0
M  V30 9 C 1.947416 -2.429026 1.476155 0
M  V30 10 N 0.128452 -1.156416 0.532429 0
M  V30 11 C -0.961943 -0.904646 -0.159386 0
M  V30 12 N -1.515520 0.400829 -0.220100 0
M  V30 13 C -1.075486 1.601690 0.380257 0
M  V30 14 C -1.761086 2.808903 0.204447 0
M  V30 15 C -1.368258 3.991657 0.767698 0
M  V30 16 C -0.243557 4.041456 1.557049 0
M  V30 17 C 0.320536 5.108345 2.210046 0
M  V30 18 C 1.430684 4.560254 2.841822 0
M  V30 19 N 1.499992 3.248286 2.565977 0
M  V30 20 C 0.476795 2.891863 1.771086 0
M  V30 21 C 0.036189 1.729231 1.179792 0
M  V30 22 C -1.552597 -1.945139 -0.824479 0
M  V30 23 C -2.672805 -1.938630 -1.597401 0
M  V30 24 C -3.117206 -3.174321 -2.209512 0
M  V30 25 S -1.803741 -4.387661 -1.600698 0
M  V30 26 C -0.865350 -3.167230 -0.650798 0
M  V30 27 H 5.188555 -5.262595 3.007769 0
M  V30 28 H 2.436639 -5.715680 1.003583 0
M  V30 29 H 0.347723 -5.478750 -0.382320 0
M  V30 30 H 2.339068 -1.547494 1.964435 0
M  V30 31 H -2.383417 0.521420 -0.790325 0
M  V30 32 H -2.654858 2.814334 -0.411728 0
M  V30 33 H -1.953630 4.875919 0.581445 0
M  V30 34 H -0.017702 6.122055 2.226490 0
M  V30 35 H 2.115067 5.135070 3.456510 0
M  V30 36 H 2.220566 2.581630 2.899333 0
M  V30 37 H 0.657102 0.899307 1.403985 0
M  V30 38 H -3.286822 -1.080987 -1.810361 0
M  V30 39 H -4.017410 -3.274910 -2.856738 0
M  V30 END ATOM
M  V30 BEGIN BOND
M  V30 1 2 1 2
M  V30 2 1 2 3
M  V30 3 1 2 4
M  V30 4 2 4 5
M  V30 5 1 5 6
M  V30 6 2 6 7
M  V30 7 1 7 8
M  V30 8 2 8 9
M  V30 9 1 8 10
M  V30 10 2 10 11
M  V30 11 1 11 12
M  V30 12 1 12 13
M  V30 13 2 13 14
M  V30 14 1 14 15
M  V30 15 2 15 16
M  V30 16 1 16 17
M  V30 17 2 17 18
M  V30 18 1 18 19
M  V30 19 1 19 20
M  V30 20 2 20 21
M  V30 21 1 11 22
M  V30 22 1 22 23
M  V30 23 2 23 24
M  V30 24 1 24 25
M  V30 25 1 25 26
M  V30 26 1 9 4
M  V30 27 1 21 13
M  V30 28 2 26 22
M  V30 29 1 26 7
M  V30 30 1 20 16
M  V30 31 1 3 27
M  V30 32 1 5 28
M  V30 33 1 6 29
M  V30 34 1 9 30
M  V30 35 1 12 31
M  V30 36 1 14 32
M  V30 37 1 15 33
M  V30 38 1 17 34
M  V30 39 1 18 35
M  V30 40 1 19 36
M  V30 41 1 21 37
M  V30 42 1 23 38
M  V30 43 1 24 39
M  V30 END BOND
M  V30 END CTAB
M  END
>  <Dataset>  (163) 
ChEMBL_Kinases

>  <Ligand_Instance>  (163) 
nan

>  <PDB_ID>  (163) 
nan

>  <Standardized_SMILES>  (163) 
O=C(O)c1ccc2c(c1)nc(Nc1ccc3cc[nH]c3c1)c1ccsc12

>  <Name>  (163) 
nan

>  <Pocket>  (163) 
nan

>  <ATP_Site>  (163) 
nan

>  <Peripheral>  (163) 
nan

>  <Num_H_Atoms_ProtBoundConf>  (163) 
nan

>  <Num_Resolved_Atoms>  (163) 
nan

>  <Num_Not_Resolved_Atoms>  (163) 
nan

$$$$
CHEMBL3700541
     RDKit          3D

  0  0  0  0  0  0  0  0  0  0999 V3000
M  V30 BEGIN CTAB
M  V30 COUNTS 38 41 0 0 0
M  V30 BEGIN ATOM
M  V30 1 C -1.487865 -6.232103 1.625862 0
M  V30 2 C -0.477519 -5.182932 1.436271 0
M  V30 3 C 0.855335 -5.403239 1.718899 0
M  V30 4 C 1.787639 -4.404633 1.531026 0
M  V30 5 C 1.315282 -3.189057 1.052581 0
M  V30 6 C -0.027762 -2.934009 0.758367 0
M  V30 7 N -0.202605 -1.610309 0.296350 0
M  V30 8 C 0.103137 -0.276159 0.644019 0
M  V30 9 N -0.099247 0.557710 -0.372453 0
M  V30 10 C 0.077013 1.861294 -0.437961 0
M  V30 11 C -0.151109 2.672839 -1.529980 0
M  V30 12 C 0.100325 4.026429 -1.396022 0
M  V30 13 C -0.128779 4.893705 -2.545597 0
M  V30 14 O 0.075087 6.137796 -2.526771 0
M  V30 15 O -0.594854 4.378839 -3.751818 0
M  V30 16 C 0.562678 4.542951 -0.206135 0
M  V30 17 C 0.798894 3.748481 0.904123 0
M  V30 18 C 0.538974 2.403087 0.740403 0
M  V30 19 C 0.778545 1.601944 1.864762 0
M  V30 20 S 1.331408 2.018167 3.440659 0
M  V30 21 C 1.255570 0.244405 4.072540 0
M  V30 22 C 0.772737 -0.528829 2.898260 0
M  V30 23 C 0.561304 0.259685 1.823166 0
M  V30 24 C -0.923393 -3.952478 0.957407 0
M  V30 25 H -2.148774 -6.011164 2.463172 0
M  V30 26 H -2.109246 -6.318016 0.701749 0
M  V30 27 H -0.955860 -7.200903 1.831099 0
M  V30 28 H 1.120090 -6.384449 2.081219 0
M  V30 29 H 2.816010 -4.626903 1.763658 0
M  V30 30 H 2.136416 -2.480222 0.941407 0
M  V30 31 H -0.742851 -1.866498 -0.569915 0
M  V30 32 H -0.513731 2.193171 -2.422363 0
M  V30 33 H -1.133523 4.910205 -4.422296 0
M  V30 34 H 0.734797 5.615737 -0.187076 0
M  V30 35 H 1.165852 4.160161 1.842289 0
M  V30 36 H 1.521543 -0.223870 5.163477 0
M  V30 37 H 0.694725 -1.549040 3.191568 0
M  V30 38 H -1.931525 -3.672929 0.706235 0
M  V30 END ATOM
M  V30 BEGIN BOND
M  V30 1 1 1 2
M  V30 2 2 2 3
M  V30 3 1 3 4
M  V30 4 2 4 5
M  V30 5 1 5 6
M  V30 6 1 6 7
M  V30 7 1 7 8
M  V30 8 2 8 9
M  V30 9 1 9 10
M  V30 10 2 10 11
M  V30 11 1 11 12
M  V30 12 1 12 13
M  V30 13 2 13 14
M  V30 14 1 13 15
M  V30 15 2 12 16
M  V30 16 1 16 17
M  V30 17 2 17 18
M  V30 18 1 18 19
M  V30 19 1 19 20
M  V30 20 1 20 21
M  V30 21 2 21 22
M  V30 22 1 22 23
M  V30 23 2 6 24
M  V30 24 1 24 2
M  V30 25 1 23 8
M  V30 26 1 18 10
M  V30 27 2 23 19
M  V30 28 1 1 25
M  V30 29 1 1 26
M  V30 30 1 1 27
M  V30 31 1 3 28
M  V30 32 1 4 29
M  V30 33 1 5 30
M  V30 34 1 7 31
M  V30 35 1 11 32
M  V30 36 1 15 33
M  V30 37 1 16 34
M  V30 38 1 17 35
M  V30 39 1 21 36
M  V30 40 1 22 37
M  V30 41 1 24 38
M  V30 END BOND
M  V30 END CTAB
M  END
>  <Dataset>  (164) 
ChEMBL_Kinases

>  <Ligand_Instance>  (164) 
nan

>  <PDB_ID>  (164) 
nan

>  <Standardized_SMILES>  (164) 
Cc1cccc(Nc2nc3cc(C(=O)O)ccc3c3sccc23)c1

>  <Name>  (164) 
nan

>  <Pocket>  (164) 
nan

>  <ATP_Site>  (164) 
nan

>  <Peripheral>  (164) 
nan

>  <Num_H_Atoms_ProtBoundConf>  (164) 
nan

>  <Num_Resolved_Atoms>  (164) 
nan

>  <Num_Not_Resolved_Atoms>  (164) 
nan

$$$$
CHEMBL3700540
     RDKit          3D

  0  0  0  0  0  0  0  0  0  0999 V3000
M  V30 BEGIN CTAB
M  V30 COUNTS 39 43 0 0 0
M  V30 BEGIN ATOM
M  V30 1 O 4.153334 -2.918410 3.135043 0
M  V30 2 C 3.628958 -3.895257 2.520373 0
M  V30 3 O 4.189892 -5.158740 2.650899 0
M  V30 4 C 2.436408 -3.732628 1.666770 0
M  V30 5 C 1.879163 -4.811016 1.004309 0
M  V30 6 C 0.764217 -4.669383 0.203929 0
M  V30 7 C 0.271081 -3.385791 0.128744 0
M  V30 8 C 0.792977 -2.287119 0.769435 0
M  V30 9 C 1.906984 -2.458334 1.562363 0
M  V30 10 N 0.153197 -1.153924 0.550402 0
M  V30 11 C -0.911789 -0.885932 -0.183787 0
M  V30 12 N -1.456879 0.422095 -0.292185 0
M  V30 13 C -1.034494 1.634663 0.300343 0
M  V30 14 C -1.693571 2.843052 0.083086 0
M  V30 15 C -1.299005 4.029440 0.648866 0
M  V30 16 C -0.207123 4.079296 1.476899 0
M  V30 17 N 0.331821 5.125947 2.118790 0
M  V30 18 C 1.380406 4.657617 2.796216 0
M  V30 19 C 1.508287 3.290218 2.579891 0
M  V30 20 C 0.490208 2.918632 1.733655 0
M  V30 21 C 0.044702 1.761519 1.136456 0
M  V30 22 C -1.494581 -1.928500 -0.857139 0
M  V30 23 C -2.583242 -1.929644 -1.670427 0
M  V30 24 C -3.033583 -3.143183 -2.283862 0
M  V30 25 S -1.773967 -4.367807 -1.622818 0
M  V30 26 C -0.851030 -3.156222 -0.656881 0
M  V30 27 H 4.848630 -5.395369 3.384203 0
M  V30 28 H 2.336308 -5.778307 1.124842 0
M  V30 29 H 0.328754 -5.506936 -0.312586 0
M  V30 30 H 2.294343 -1.576305 2.053108 0
M  V30 31 H -2.304190 0.546228 -0.896795 0
M  V30 32 H -2.576464 2.849172 -0.575864 0
M  V30 33 H -1.876814 4.912477 0.418190 0
M  V30 34 H -0.009967 6.105130 2.086533 0
M  V30 35 H 2.072115 5.212524 3.440165 0
M  V30 36 H 2.240369 2.604885 2.971098 0
M  V30 37 H 0.657307 0.921446 1.402992 0
M  V30 38 H -3.186433 -1.073162 -1.925319 0
M  V30 39 H -3.829365 -3.343176 -2.923824 0
M  V30 END ATOM
M  V30 BEGIN BOND
M  V30 1 2 1 2
M  V30 2 1 2 3
M  V30 3 1 2 4
M  V30 4 2 4 5
M  V30 5 1 5 6
M  V30 6 2 6 7
M  V30 7 1 7 8
M  V30 8 2 8 9
M  V30 9 1 8 10
M  V30 10 2 10 11
M  V30 11 1 11 12
M  V30 12 1 12 13
M  V30 13 2 13 14
M  V30 14 1 14 15
M  V30 15 2 15 16
M  V30 16 1 16 17
M  V30 17 1 17 18
M  V30 18 2 18 19
M  V30 19 1 19 20
M  V30 20 2 20 21
M  V30 21 1 11 22
M  V30 22 1 22 23
M  V30 23 2 23 24
M  V30 24 1 24 25
M  V30 25 1 25 26
M  V30 26 1 9 4
M  V30 27 1 21 13
M  V30 28 2 26 22
M  V30 29 1 26 7
M  V30 30 1 20 16
M  V30 31 1 3 27
M  V30 32 1 5 28
M  V30 33 1 6 29
M  V30 34 1 9 30
M  V30 35 1 12 31
M  V30 36 1 14 32
M  V30 37 1 15 33
M  V30 38 1 17 34
M  V30 39 1 18 35
M  V30 40 1 19 36
M  V30 41 1 21 37
M  V30 42 1 23 38
M  V30 43 1 24 39
M  V30 END BOND
M  V30 END CTAB
M  END
>  <Dataset>  (165) 
ChEMBL_Kinases

>  <Ligand_Instance>  (165) 
nan

>  <PDB_ID>  (165) 
nan

>  <Standardized_SMILES>  (165) 
O=C(O)c1ccc2c(c1)nc(Nc1ccc3[nH]ccc3c1)c1ccsc12

>  <Name>  (165) 
nan

>  <Pocket>  (165) 
nan

>  <ATP_Site>  (165) 
nan

>  <Peripheral>  (165) 
nan

>  <Num_H_Atoms_ProtBoundConf>  (165) 
nan

>  <Num_Resolved_Atoms>  (165) 
nan

>  <Num_Not_Resolved_Atoms>  (165) 
nan

$$$$
CHEMBL3700539
     RDKit          3D

  0  0  0  0  0  0  0  0  0  0999 V3000
M  V30 BEGIN CTAB
M  V30 COUNTS 35 38 0 0 0
M  V30 BEGIN ATOM
M  V30 1 O 0.834863 -5.809137 0.615652 0
M  V30 2 C 1.517016 -5.221189 1.495050 0
M  V30 3 O 2.105755 -6.091725 2.403938 0
M  V30 4 C 1.703219 -3.781521 1.594740 0
M  V30 5 C 2.452759 -3.121982 2.547494 0
M  V30 6 C 2.577082 -1.750207 2.577341 0
M  V30 7 C 1.906261 -1.053980 1.594974 0
M  V30 8 C 1.148008 -1.670948 0.627350 0
M  V30 9 C 1.034736 -3.044339 0.611774 0
M  V30 10 N 0.560570 -0.860068 -0.244475 0
M  V30 11 C 0.578345 0.445759 -0.343371 0
M  V30 12 N -0.107658 1.225216 -1.344024 0
M  V30 13 C -1.513464 1.376000 -1.066488 0
M  V30 14 C -2.209359 2.562930 -0.820840 0
M  V30 15 C -3.565121 2.495210 -0.586868 0
M  V30 16 C -4.299523 1.335586 -0.575519 0
M  V30 17 C -3.625722 0.168121 -0.814652 0
M  V30 18 Cl -4.598861 -1.295136 -0.795501 0
M  V30 19 C -2.253829 0.199896 -1.055646 0
M  V30 20 F -1.783696 -1.065708 -1.278011 0
M  V30 21 C 1.325004 1.100535 0.601476 0
M  V30 22 C 1.554604 2.466995 0.750198 0
M  V30 23 C 2.339475 2.977319 1.743397 0
M  V30 24 S 2.879424 1.498510 2.630237 0
M  V30 25 C 1.993678 0.335171 1.577830 0
M  V30 26 H 1.662627 -6.898705 2.780783 0
M  V30 27 H 2.943061 -3.737541 3.287606 0
M  V30 28 H 3.165442 -1.268176 3.328664 0
M  V30 29 H 0.411100 -3.464688 -0.194013 0
M  V30 30 H 0.359475 1.648099 -2.198960 0
M  V30 31 H -1.603051 3.435496 -0.838910 0
M  V30 32 H -4.086990 3.434983 -0.397861 0
M  V30 33 H -5.356733 1.377352 -0.384453 0
M  V30 34 H 1.174837 3.270577 0.116553 0
M  V30 35 H 2.670829 3.909840 2.083826 0
M  V30 END ATOM
M  V30 BEGIN BOND
M  V30 1 2 1 2
M  V30 2 1 2 3
M  V30 3 1 2 4
M  V30 4 2 4 5
M  V30 5 1 5 6
M  V30 6 2 6 7
M  V30 7 1 7 8
M  V30 8 2 8 9
M  V30 9 1 8 10
M  V30 10 2 10 11
M  V30 11 1 11 12
M  V30 12 1 12 13
M  V30 13 2 13 14
M  V30 14 1 14 15
M  V30 15 2 15 16
M  V30 16 1 16 17
M  V30 17 1 17 18
M  V30 18 2 17 19
M  V30 19 1 19 20
M  V30 20 1 11 21
M  V30 21 1 21 22
M  V30 22 2 22 23
M  V30 23 1 23 24
M  V30 24 1 24 25
M  V30 25 1 9 4
M  V30 26 1 19 13
M  V30 27 2 25 21
M  V30 28 1 25 7
M  V30 29 1 3 26
M  V30 30 1 5 27
M  V30 31 1 6 28
M  V30 32 1 9 29
M  V30 33 1 12 30
M  V30 34 1 14 31
M  V30 35 1 15 32
M  V30 36 1 16 33
M  V30 37 1 22 34
M  V30 38 1 23 35
M  V30 END BOND
M  V30 END CTAB
M  END
>  <Dataset>  (166) 
ChEMBL_Kinases

>  <Ligand_Instance>  (166) 
nan

>  <PDB_ID>  (166) 
nan

>  <Standardized_SMILES>  (166) 
O=C(O)c1ccc2c(c1)nc(Nc1cccc(Cl)c1F)c1ccsc12

>  <Name>  (166) 
nan

>  <Pocket>  (166) 
nan

>  <ATP_Site>  (166) 
nan

>  <Peripheral>  (166) 
nan

>  <Num_H_Atoms_ProtBoundConf>  (166) 
nan

>  <Num_Resolved_Atoms>  (166) 
nan

>  <Num_Not_Resolved_Atoms>  (166) 
nan

$$$$
CHEMBL3700538
     RDKit          3D

  0  0  0  0  0  0  0  0  0  0999 V3000
M  V30 BEGIN CTAB
M  V30 COUNTS 35 38 0 0 0
M  V30 BEGIN ATOM
M  V30 1 O 0.640400 -6.270255 2.112135 0
M  V30 2 C 0.016085 -5.206405 1.864199 0
M  V30 3 O -1.356647 -5.255090 1.972473 0
M  V30 4 C 0.722270 -3.990282 1.482432 0
M  V30 5 C 2.097844 -3.997316 1.388615 0
M  V30 6 C 2.828736 -2.871081 1.029984 0
M  V30 7 C 2.098592 -1.737261 0.770924 0
M  V30 8 C 0.724846 -1.718702 0.861423 0
M  V30 9 C 0.012055 -2.841795 1.217981 0
M  V30 10 N 0.223577 -0.528267 0.571037 0
M  V30 11 C 0.825611 0.585362 0.224897 0
M  V30 12 N 0.012556 1.717493 -0.028132 0
M  V30 13 C -1.375046 1.901559 0.024687 0
M  V30 14 C -1.963266 3.110988 -0.325944 0
M  V30 15 C -3.305385 3.354987 -0.295531 0
M  V30 16 C -4.149503 2.350945 0.105681 0
M  V30 17 C -3.661195 1.120765 0.471411 0
M  V30 18 Br -4.863254 -0.245875 1.022157 0
M  V30 19 C -2.294737 0.952793 0.413930 0
M  V30 20 C 2.193487 0.593627 0.127445 0
M  V30 21 C 2.937104 1.679215 -0.220873 0
M  V30 22 C 4.413981 1.398396 -0.246954 0
M  V30 23 S 4.514587 -0.413255 0.241067 0
M  V30 24 C 2.813602 -0.588577 0.407316 0
M  V30 25 H -1.827285 -5.773013 2.730619 0
M  V30 26 H 2.614653 -4.927924 1.606952 0
M  V30 27 H 3.922122 -2.887138 0.958275 0
M  V30 28 H -1.044806 -2.762867 1.269953 0
M  V30 29 H 0.544499 2.590655 -0.309264 0
M  V30 30 H -1.330904 3.940619 -0.651842 0
M  V30 31 H -3.694507 4.307435 -0.578012 0
M  V30 32 H -5.205139 2.577167 0.118143 0
M  V30 33 H -1.993730 -0.022168 0.712040 0
M  V30 34 H 2.641431 2.679793 -0.473615 0
M  V30 35 H 5.161529 2.304019 -0.546321 0
M  V30 END ATOM
M  V30 BEGIN BOND
M  V30 1 2 1 2
M  V30 2 1 2 3
M  V30 3 1 2 4
M  V30 4 2 4 5
M  V30 5 1 5 6
M  V30 6 2 6 7
M  V30 7 1 7 8
M  V30 8 2 8 9
M  V30 9 1 8 10
M  V30 10 2 10 11
M  V30 11 1 11 12
M  V30 12 1 12 13
M  V30 13 2 13 14
M  V30 14 1 14 15
M  V30 15 2 15 16
M  V30 16 1 16 17
M  V30 17 1 17 18
M  V30 18 2 17 19
M  V30 19 1 11 20
M  V30 20 1 20 21
M  V30 21 2 21 22
M  V30 22 1 22 23
M  V30 23 1 23 24
M  V30 24 1 9 4
M  V30 25 1 19 13
M  V30 26 2 24 20
M  V30 27 1 24 7
M  V30 28 1 3 25
M  V30 29 1 5 26
M  V30 30 1 6 27
M  V30 31 1 9 28
M  V30 32 1 12 29
M  V30 33 1 14 30
M  V30 34 1 15 31
M  V30 35 1 16 32
M  V30 36 1 19 33
M  V30 37 1 21 34
M  V30 38 1 22 35
M  V30 END BOND
M  V30 END CTAB
M  END
>  <Dataset>  (167) 
ChEMBL_Kinases

>  <Ligand_Instance>  (167) 
nan

>  <PDB_ID>  (167) 
nan

>  <Standardized_SMILES>  (167) 
O=C(O)c1ccc2c(c1)nc(Nc1cccc(Br)c1)c1ccsc12

>  <Name>  (167) 
nan

>  <Pocket>  (167) 
nan

>  <ATP_Site>  (167) 
nan

>  <Peripheral>  (167) 
nan

>  <Num_H_Atoms_ProtBoundConf>  (167) 
nan

>  <Num_Resolved_Atoms>  (167) 
nan

>  <Num_Not_Resolved_Atoms>  (167) 
nan

$$$$
CHEMBL3700537
     RDKit          3D

  0  0  0  0  0  0  0  0  0  0999 V3000
M  V30 BEGIN CTAB
M  V30 COUNTS 45 48 0 0 0
M  V30 BEGIN ATOM
M  V30 1 C 0.511879 -4.675229 2.336356 0
M  V30 2 N 1.732697 -3.859837 2.318931 0
M  V30 3 C 1.991552 -3.095151 1.158611 0
M  V30 4 O 1.251654 -3.062209 0.116181 0
M  V30 5 C 3.144592 -2.180312 0.892072 0
M  V30 6 C 3.024254 -1.581503 -0.472176 0
M  V30 7 C 3.771162 -1.826768 -1.579891 0
M  V30 8 C 3.504618 -1.214013 -2.759139 0
M  V30 9 C 2.441959 -0.296541 -2.904206 0
M  V30 10 C 1.646775 -0.017502 -1.780028 0
M  V30 11 N 0.539958 0.909085 -1.906380 0
M  V30 12 C -0.313852 0.844332 -0.741752 0
M  V30 13 N -0.271542 1.766188 0.221271 0
M  V30 14 C -0.967433 1.824763 1.339776 0
M  V30 15 C -0.808834 2.840322 2.229921 0
M  V30 16 C -1.629878 2.745165 3.360264 0
M  V30 17 C -1.516968 3.799320 4.361091 0
M  V30 18 O -0.689595 4.741150 4.150910 0
M  V30 19 O -2.246287 3.856802 5.531625 0
M  V30 20 C -2.536405 1.707386 3.572592 0
M  V30 21 C -2.646895 0.715084 2.638095 0
M  V30 22 C -1.863463 0.759395 1.507399 0
M  V30 23 C -1.972018 -0.221908 0.580106 0
M  V30 24 S -2.985600 -1.634536 0.546510 0
M  V30 25 C -2.307695 -2.238557 -1.152648 0
M  V30 26 C -1.367815 -1.240700 -1.467450 0
M  V30 27 C -1.186551 -0.211499 -0.597553 0
M  V30 28 C 1.994477 -0.684050 -0.624385 0
M  V30 29 H -0.275413 -4.050384 2.854140 0
M  V30 30 H 0.632074 -5.589244 2.930438 0
M  V30 31 H 0.214418 -4.935818 1.302210 0
M  V30 32 H 2.452723 -3.763468 3.054717 0
M  V30 33 H 3.096402 -1.326198 1.597735 0
M  V30 34 H 4.083527 -2.736933 0.947904 0
M  V30 35 H 4.578007 -2.534336 -1.440649 0
M  V30 36 H 4.120162 -1.426843 -3.643716 0
M  V30 37 H 2.228749 0.193671 -3.854161 0
M  V30 38 H 0.506384 1.481768 -2.781453 0
M  V30 39 H -0.112945 3.646970 2.076076 0
M  V30 40 H -2.184314 4.591729 6.223085 0
M  V30 41 H -3.128165 1.720625 4.482730 0
M  V30 42 H -3.366708 -0.071007 2.846766 0
M  V30 43 H -2.708925 -3.139283 -1.572295 0
M  V30 44 H -0.907832 -1.460341 -2.412993 0
M  V30 45 H 1.355942 -0.442591 0.233508 0
M  V30 END ATOM
M  V30 BEGIN BOND
M  V30 1 1 1 2
M  V30 2 1 2 3
M  V30 3 2 3 4
M  V30 4 1 3 5
M  V30 5 1 5 6
M  V30 6 2 6 7
M  V30 7 1 7 8
M  V30 8 2 8 9
M  V30 9 1 9 10
M  V30 10 1 10 11
M  V30 11 1 11 12
M  V30 12 2 12 13
M  V30 13 1 13 14
M  V30 14 2 14 15
M  V30 15 1 15 16
M  V30 16 1 16 17
M  V30 17 2 17 18
M  V30 18 1 17 19
M  V30 19 2 16 20
M  V30 20 1 20 21
M  V30 21 2 21 22
M  V30 22 1 22 23
M  V30 23 1 23 24
M  V30 24 1 24 25
M  V30 25 2 25 26
M  V30 26 1 26 27
M  V30 27 2 10 28
M  V30 28 1 28 6
M  V30 29 1 27 12
M  V30 30 1 22 14
M  V30 31 2 27 23
M  V30 32 1 1 29
M  V30 33 1 1 30
M  V30 34 1 1 31
M  V30 35 1 2 32
M  V30 36 1 5 33
M  V30 37 1 5 34
M  V30 38 1 7 35
M  V30 39 1 8 36
M  V30 40 1 9 37
M  V30 41 1 11 38
M  V30 42 1 15 39
M  V30 43 1 19 40
M  V30 44 1 20 41
M  V30 45 1 21 42
M  V30 46 1 25 43
M  V30 47 1 26 44
M  V30 48 1 28 45
M  V30 END BOND
M  V30 END CTAB
M  END
>  <Dataset>  (168) 
ChEMBL_Kinases

>  <Ligand_Instance>  (168) 
nan

>  <PDB_ID>  (168) 
nan

>  <Standardized_SMILES>  (168) 
CNC(=O)Cc1cccc(Nc2nc3cc(C(=O)O)ccc3c3sccc23)c1

>  <Name>  (168) 
nan

>  <Pocket>  (168) 
nan

>  <ATP_Site>  (168) 
nan

>  <Peripheral>  (168) 
nan

>  <Num_H_Atoms_ProtBoundConf>  (168) 
nan

>  <Num_Resolved_Atoms>  (168) 
nan

>  <Num_Not_Resolved_Atoms>  (168) 
nan

$$$$
CHEMBL3700536
     RDKit          3D

  0  0  0  0  0  0  0  0  0  0999 V3000
M  V30 BEGIN CTAB
M  V30 COUNTS 46 50 0 0 0
M  V30 BEGIN ATOM
M  V30 1 O 1.294134 -4.908616 2.565343 0
M  V30 2 C 1.127264 -5.456043 1.467051 0
M  V30 3 O 1.324820 -6.842722 1.406840 0
M  V30 4 C 0.741726 -4.726120 0.263210 0
M  V30 5 C 0.561978 -5.360055 -0.949265 0
M  V30 6 C 0.194557 -4.678601 -2.106233 0
M  V30 7 C 0.012064 -3.317966 -1.997742 0
M  V30 8 C 0.191898 -2.686547 -0.786539 0
M  V30 9 C 0.554578 -3.361410 0.354024 0
M  V30 10 N -0.023425 -1.379464 -0.858041 0
M  V30 11 C -0.372281 -0.633316 -1.890454 0
M  V30 12 N -0.540151 0.760383 -1.695763 0
M  V30 13 C -0.402542 1.568623 -0.549782 0
M  V30 14 C -0.621768 2.949938 -0.602480 0
M  V30 15 C -0.497309 3.765948 0.490804 0
M  V30 16 C -0.142594 3.235630 1.708855 0
M  V30 17 C 0.090463 1.892960 1.848486 0
M  V30 18 C 0.462847 1.326954 3.121014 0
M  V30 19 O 0.682197 0.082909 3.266955 0
M  V30 20 N 0.609322 2.098884 4.280778 0
M  V30 21 C 0.976121 1.598217 5.571993 0
M  V30 22 C 1.749748 2.375736 6.552131 0
M  V30 23 C 0.246123 2.135688 6.764030 0
M  V30 24 C -0.052833 1.134228 0.709863 0
M  V30 25 C -0.558511 -1.232693 -3.108312 0
M  V30 26 C -0.914178 -0.616539 -4.257466 0
M  V30 27 C -1.042353 -1.530688 -5.430833 0
M  V30 28 S -0.621714 -3.219560 -4.713361 0
M  V30 29 C -0.349175 -2.598699 -3.102446 0
M  V30 30 H 2.105037 -7.267521 1.917724 0
M  V30 31 H 0.709056 -6.435817 -1.022759 0
M  V30 32 H 0.054705 -5.194912 -3.065005 0
M  V30 33 H 0.678840 -2.799212 1.275070 0
M  V30 34 H -0.819584 1.308679 -2.557248 0
M  V30 35 H -0.905655 3.412149 -1.552180 0
M  V30 36 H -0.684054 4.821244 0.365201 0
M  V30 37 H -0.067768 3.934375 2.504517 0
M  V30 38 H 0.456963 3.129942 4.289953 0
M  V30 39 H 1.141650 0.501601 5.579161 0
M  V30 40 H 2.376860 1.836052 7.287505 0
M  V30 41 H 2.001819 3.435025 6.429235 0
M  V30 42 H -0.073850 1.486513 7.596917 0
M  V30 43 H -0.444117 2.986980 6.568301 0
M  V30 44 H 0.142342 0.087477 0.878690 0
M  V30 45 H -1.114967 0.421931 -4.444748 0
M  V30 46 H -1.349989 -1.088032 -6.485096 0
M  V30 END ATOM
M  V30 BEGIN BOND
M  V30 1 2 1 2
M  V30 2 1 2 3
M  V30 3 1 2 4
M  V30 4 2 4 5
M  V30 5 1 5 6
M  V30 6 2 6 7
M  V30 7 1 7 8
M  V30 8 2 8 9
M  V30 9 1 8 10
M  V30 10 2 10 11
M  V30 11 1 11 12
M  V30 12 1 12 13
M  V30 13 2 13 14
M  V30 14 1 14 15
M  V30 15 2 15 16
M  V30 16 1 16 17
M  V30 17 1 17 18
M  V30 18 2 18 19
M  V30 19 1 18 20
M  V30 20 1 20 21
M  V30 21 1 21 22
M  V30 22 1 22 23
M  V30 23 2 17 24
M  V30 24 1 11 25
M  V30 25 1 25 26
M  V30 26 2 26 27
M  V30 27 1 27 28
M  V30 28 1 28 29
M  V30 29 1 9 4
M  V30 30 1 24 13
M  V30 31 2 29 25
M  V30 32 1 29 7
M  V30 33 1 23 21
M  V30 34 1 3 30
M  V30 35 1 5 31
M  V30 36 1 6 32
M  V30 37 1 9 33
M  V30 38 1 12 34
M  V30 39 1 14 35
M  V30 40 1 15 36
M  V30 41 1 16 37
M  V30 42 1 20 38
M  V30 43 1 21 39
M  V30 44 1 22 40
M  V30 45 1 22 41
M  V30 46 1 23 42
M  V30 47 1 23 43
M  V30 48 1 24 44
M  V30 49 1 26 45
M  V30 50 1 27 46
M  V30 END BOND
M  V30 END CTAB
M  END
>  <Dataset>  (169) 
ChEMBL_Kinases

>  <Ligand_Instance>  (169) 
nan

>  <PDB_ID>  (169) 
nan

>  <Standardized_SMILES>  (169) 
O=C(O)c1ccc2c(c1)nc(Nc1cccc(C(=O)NC3CC3)c1)c1ccsc12

>  <Name>  (169) 
nan

>  <Pocket>  (169) 
nan

>  <ATP_Site>  (169) 
nan

>  <Peripheral>  (169) 
nan

>  <Num_H_Atoms_ProtBoundConf>  (169) 
nan

>  <Num_Resolved_Atoms>  (169) 
nan

>  <Num_Not_Resolved_Atoms>  (169) 
nan

$$$$
CHEMBL3700535
     RDKit          3D

  0  0  0  0  0  0  0  0  0  0999 V3000
M  V30 BEGIN CTAB
M  V30 COUNTS 53 56 0 0 0
M  V30 BEGIN ATOM
M  V30 1 C 5.544400 0.944256 5.064579 0
M  V30 2 N 5.322563 0.020199 3.944292 0
M  V30 3 C 5.136735 -1.313146 4.494912 0
M  V30 4 C 4.109888 0.455042 3.274475 0
M  V30 5 C 3.784843 -0.392572 2.049925 0
M  V30 6 N 2.557914 0.139430 1.485293 0
M  V30 7 C 2.337127 1.433257 1.001530 0
M  V30 8 O 3.278995 2.263596 1.032410 0
M  V30 9 C 1.074910 1.896802 0.457465 0
M  V30 10 C 0.971732 3.239646 0.099742 0
M  V30 11 C -0.209783 3.736689 -0.408888 0
M  V30 12 C -1.337908 2.974660 -0.597043 0
M  V30 13 C -1.235572 1.645835 -0.243423 0
M  V30 14 N -2.394094 0.847088 -0.410028 0
M  V30 15 C -2.761138 -0.522738 -0.529755 0
M  V30 16 N -3.106216 -0.961938 -1.740594 0
M  V30 17 C -3.478533 -2.205169 -2.069282 0
M  V30 18 C -3.834454 -2.622600 -3.316325 0
M  V30 19 C -4.207348 -3.925028 -3.527775 0
M  V30 20 C -4.602434 -4.414952 -4.833189 0
M  V30 21 O -4.943739 -5.631645 -5.012302 0
M  V30 22 O -4.646097 -3.627077 -5.975600 0
M  V30 23 C -4.214225 -4.794398 -2.462663 0
M  V30 24 C -3.860801 -4.417098 -1.173443 0
M  V30 25 C -3.498109 -3.105304 -1.023653 0
M  V30 26 C -3.148599 -2.692620 0.244224 0
M  V30 27 S -3.069898 -3.589540 1.768741 0
M  V30 28 C -2.496182 -2.084842 2.781607 0
M  V30 29 C -2.435952 -1.089736 1.841192 0
M  V30 30 C -2.756393 -1.361402 0.561920 0
M  V30 31 C -0.053312 1.131808 0.269555 0
M  V30 32 H 4.799418 1.755203 5.053006 0
M  V30 33 H 5.477966 0.437487 6.041358 0
M  V30 34 H 6.594718 1.347653 4.992787 0
M  V30 35 H 5.184524 -1.279467 5.620757 0
M  V30 36 H 4.131698 -1.690783 4.228761 0
M  V30 37 H 5.964876 -1.965261 4.183857 0
M  V30 38 H 4.250727 1.513459 2.991387 0
M  V30 39 H 3.296709 0.393138 4.028034 0
M  V30 40 H 4.619180 -0.241798 1.313598 0
M  V30 41 H 3.722147 -1.456088 2.255058 0
M  V30 42 H 1.741401 -0.516922 1.433429 0
M  V30 43 H 1.792020 3.933312 0.204717 0
M  V30 44 H -0.275656 4.779931 -0.683775 0
M  V30 45 H -2.255667 3.380861 -1.002558 0
M  V30 46 H -3.340352 1.310035 -0.473456 0
M  V30 47 H -3.816120 -1.895787 -4.138704 0
M  V30 48 H -5.348472 -3.701035 -6.691781 0
M  V30 49 H -4.506535 -5.821440 -2.616822 0
M  V30 50 H -3.882255 -5.141996 -0.350198 0
M  V30 51 H -2.281196 -2.086517 3.865436 0
M  V30 52 H -2.123042 -0.130991 2.223924 0
M  V30 53 H 0.011656 0.086521 0.540889 0
M  V30 END ATOM
M  V30 BEGIN BOND
M  V30 1 1 1 2
M  V30 2 1 2 3
M  V30 3 1 2 4
M  V30 4 1 4 5
M  V30 5 1 5 6
M  V30 6 1 6 7
M  V30 7 2 7 8
M  V30 8 1 7 9
M  V30 9 2 9 10
M  V30 10 1 10 11
M  V30 11 2 11 12
M  V30 12 1 12 13
M  V30 13 1 13 14
M  V30 14 1 14 15
M  V30 15 2 15 16
M  V30 16 1 16 17
M  V30 17 2 17 18
M  V30 18 1 18 19
M  V30 19 1 19 20
M  V30 20 2 20 21
M  V30 21 1 20 22
M  V30 22 2 19 23
M  V30 23 1 23 24
M  V30 24 2 24 25
M  V30 25 1 25 26
M  V30 26 1 26 27
M  V30 27 1 27 28
M  V30 28 2 28 29
M  V30 29 1 29 30
M  V30 30 2 13 31
M  V30 31 1 31 9
M  V30 32 1 30 15
M  V30 33 1 25 17
M  V30 34 2 30 26
M  V30 35 1 1 32
M  V30 36 1 1 33
M  V30 37 1 1 34
M  V30 38 1 3 35
M  V30 39 1 3 36
M  V30 40 1 3 37
M  V30 41 1 4 38
M  V30 42 1 4 39
M  V30 43 1 5 40
M  V30 44 1 5 41
M  V30 45 1 6 42
M  V30 46 1 10 43
M  V30 47 1 11 44
M  V30 48 1 12 45
M  V30 49 1 14 46
M  V30 50 1 18 47
M  V30 51 1 22 48
M  V30 52 1 23 49
M  V30 53 1 24 50
M  V30 54 1 28 51
M  V30 55 1 29 52
M  V30 56 1 31 53
M  V30 END BOND
M  V30 END CTAB
M  END
>  <Dataset>  (170) 
ChEMBL_Kinases

>  <Ligand_Instance>  (170) 
nan

>  <PDB_ID>  (170) 
nan

>  <Standardized_SMILES>  (170) 
CN(C)CCNC(=O)c1cccc(Nc2nc3cc(C(=O)O)ccc3c3sccc23)c1

>  <Name>  (170) 
nan

>  <Pocket>  (170) 
nan

>  <ATP_Site>  (170) 
nan

>  <Peripheral>  (170) 
nan

>  <Num_H_Atoms_ProtBoundConf>  (170) 
nan

>  <Num_Resolved_Atoms>  (170) 
nan

>  <Num_Not_Resolved_Atoms>  (170) 
nan

$$$$
CHEMBL3700534
     RDKit          3D

  0  0  0  0  0  0  0  0  0  0999 V3000
M  V30 BEGIN CTAB
M  V30 COUNTS 45 48 0 0 0
M  V30 BEGIN ATOM
M  V30 1 O 4.026931 -1.325103 -4.919680 0
M  V30 2 C 4.235735 -2.184767 -3.997747 0
M  V30 3 O 4.955886 -3.310750 -4.343339 0
M  V30 4 C 3.662312 -1.847801 -2.649555 0
M  V30 5 N 2.996047 -0.563607 -2.794984 0
M  V30 6 C 2.445000 -0.266978 -1.510328 0
M  V30 7 O 2.684940 -1.170033 -0.665836 0
M  V30 8 C 1.675807 0.946957 -1.174513 0
M  V30 9 C 1.449607 2.002071 -2.000143 0
M  V30 10 C 0.727817 3.104989 -1.645653 0
M  V30 11 C 0.173795 3.185760 -0.358917 0
M  V30 12 C 0.416603 2.097622 0.463331 0
M  V30 13 N -0.179122 2.242050 1.755567 0
M  V30 14 C -0.832979 1.084191 2.320576 0
M  V30 15 N -0.274837 -0.114796 2.466503 0
M  V30 16 C -0.792054 -1.228046 2.944853 0
M  V30 17 C -0.134003 -2.426915 3.052967 0
M  V30 18 C -0.819101 -3.500929 3.571307 0
M  V30 19 C -0.155279 -4.790346 3.697590 0
M  V30 20 O -0.663533 -5.843979 4.158451 0
M  V30 21 O 1.163178 -4.978832 3.300142 0
M  V30 22 C -2.131485 -3.388992 3.975866 0
M  V30 23 C -2.833522 -2.202841 3.886720 0
M  V30 24 C -2.099520 -1.173709 3.363309 0
M  V30 25 C -2.753404 0.056330 3.241980 0
M  V30 26 S -4.452010 0.538457 3.671953 0
M  V30 27 C -4.279545 2.296082 3.128168 0
M  V30 28 C -2.943583 2.333233 2.676327 0
M  V30 29 C -2.144243 1.231220 2.716298 0
M  V30 30 C 1.146848 0.992073 0.090793 0
M  V30 31 H 4.610191 -3.844932 -5.157319 0
M  V30 32 H 2.988676 -2.625891 -2.291842 0
M  V30 33 H 4.517822 -1.731435 -1.925260 0
M  V30 34 H 2.827502 0.151749 -3.555089 0
M  V30 35 H 1.867975 1.951404 -2.991640 0
M  V30 36 H 0.556755 3.931092 -2.313358 0
M  V30 37 H -0.392958 4.064625 -0.094562 0
M  V30 38 H -0.177034 3.109712 2.315660 0
M  V30 39 H 0.895814 -2.506088 2.736815 0
M  V30 40 H 1.757936 -5.705909 3.704514 0
M  V30 41 H -2.615693 -4.286775 4.380226 0
M  V30 42 H -3.862845 -2.129489 4.207640 0
M  V30 43 H -5.045486 2.956570 3.199398 0
M  V30 44 H -2.675353 3.312249 2.317175 0
M  V30 45 H 1.303245 0.187503 0.765780 0
M  V30 END ATOM
M  V30 BEGIN BOND
M  V30 1 2 1 2
M  V30 2 1 2 3
M  V30 3 1 2 4
M  V30 4 1 4 5
M  V30 5 1 5 6
M  V30 6 2 6 7
M  V30 7 1 6 8
M  V30 8 2 8 9
M  V30 9 1 9 10
M  V30 10 2 10 11
M  V30 11 1 11 12
M  V30 12 1 12 13
M  V30 13 1 13 14
M  V30 14 2 14 15
M  V30 15 1 15 16
M  V30 16 2 16 17
M  V30 17 1 17 18
M  V30 18 1 18 19
M  V30 19 2 19 20
M  V30 20 1 19 21
M  V30 21 2 18 22
M  V30 22 1 22 23
M  V30 23 2 23 24
M  V30 24 1 24 25
M  V30 25 1 25 26
M  V30 26 1 26 27
M  V30 27 2 27 28
M  V30 28 1 28 29
M  V30 29 2 12 30
M  V30 30 1 30 8
M  V30 31 1 29 14
M  V30 32 1 24 16
M  V30 33 2 29 25
M  V30 34 1 3 31
M  V30 35 1 4 32
M  V30 36 1 4 33
M  V30 37 1 5 34
M  V30 38 1 9 35
M  V30 39 1 10 36
M  V30 40 1 11 37
M  V30 41 1 13 38
M  V30 42 1 17 39
M  V30 43 1 21 40
M  V30 44 1 22 41
M  V30 45 1 23 42
M  V30 46 1 27 43
M  V30 47 1 28 44
M  V30 48 1 30 45
M  V30 END BOND
M  V30 END CTAB
M  END
>  <Dataset>  (171) 
ChEMBL_Kinases

>  <Ligand_Instance>  (171) 
nan

>  <PDB_ID>  (171) 
nan

>  <Standardized_SMILES>  (171) 
O=C(O)CNC(=O)c1cccc(Nc2nc3cc(C(=O)O)ccc3c3sccc23)c1

>  <Name>  (171) 
nan

>  <Pocket>  (171) 
nan

>  <ATP_Site>  (171) 
nan

>  <Peripheral>  (171) 
nan

>  <Num_H_Atoms_ProtBoundConf>  (171) 
nan

>  <Num_Resolved_Atoms>  (171) 
nan

>  <Num_Not_Resolved_Atoms>  (171) 
nan

$$$$
CHEMBL3700533
     RDKit          3D

  0  0  0  0  0  0  0  0  0  0999 V3000
M  V30 BEGIN CTAB
M  V30 COUNTS 50 54 0 0 0
M  V30 BEGIN ATOM
M  V30 1 O 5.784041 1.014021 3.765935 0
M  V30 2 C 5.611747 -0.221287 3.746381 0
M  V30 3 O 6.227682 -1.068059 4.680355 0
M  V30 4 C 4.743887 -0.852710 2.722789 0
M  V30 5 C 4.515755 -2.225066 2.617436 0
M  V30 6 C 3.662594 -2.677953 1.617421 0
M  V30 7 C 3.044497 -1.838668 0.745066 0
M  V30 8 C 3.265484 -0.487548 0.844414 0
M  V30 9 C 4.100546 -0.006189 1.817339 0
M  V30 10 N 2.585311 0.227452 -0.079632 0
M  V30 11 C 1.772543 -0.309013 -1.006991 0
M  V30 12 N 1.261311 0.809563 -1.754919 0
M  V30 13 C 0.024280 1.419974 -1.328462 0
M  V30 14 C 0.055254 2.816414 -1.396491 0
M  V30 15 C -1.084927 3.548796 -1.017619 0
M  V30 16 C -2.237625 2.911537 -0.578905 0
M  V30 17 C -2.228191 1.508886 -0.526598 0
M  V30 18 C -3.388735 0.714344 -0.086363 0
M  V30 19 O -4.410299 1.033232 -0.781634 0
M  V30 20 N -3.450103 -0.275365 0.949422 0
M  V30 21 C -2.450291 -0.794607 1.860692 0
M  V30 22 C -2.922120 -2.144013 2.353853 0
M  V30 23 O -3.458790 -2.934280 1.339147 0
M  V30 24 C -4.583991 -2.368731 0.738752 0
M  V30 25 C -4.732729 -0.908497 1.163520 0
M  V30 26 C -1.121345 0.771311 -0.893287 0
M  V30 27 C 1.555701 -1.660582 -1.102396 0
M  V30 28 C 0.737621 -2.191105 -2.041823 0
M  V30 29 C 0.661289 -3.622322 -1.959957 0
M  V30 30 S 1.798548 -4.059869 -0.507358 0
M  V30 31 C 2.232018 -2.441239 -0.176672 0
M  V30 32 H 7.090160 -0.761677 5.158013 0
M  V30 33 H 5.010995 -2.856564 3.322036 0
M  V30 34 H 3.515497 -3.758930 1.570940 0
M  V30 35 H 4.227029 1.052826 1.839298 0
M  V30 36 H 1.812821 1.116594 -2.560956 0
M  V30 37 H 0.843376 3.459190 -1.702701 0
M  V30 38 H -1.124338 4.653136 -1.044162 0
M  V30 39 H -3.130779 3.421063 -0.267151 0
M  V30 40 H -2.461889 -0.134119 2.768057 0
M  V30 41 H -1.429675 -0.838314 1.416634 0
M  V30 42 H -3.625438 -1.998071 3.206982 0
M  V30 43 H -2.018029 -2.687412 2.704658 0
M  V30 44 H -4.410740 -2.385004 -0.352446 0
M  V30 45 H -5.518884 -2.921080 0.996940 0
M  V30 46 H -5.037417 -0.844815 2.226732 0
M  V30 47 H -5.527934 -0.470048 0.496476 0
M  V30 48 H -1.070446 -0.311248 -0.874537 0
M  V30 49 H 0.146792 -1.759863 -2.825271 0
M  V30 50 H 0.039459 -4.305529 -2.633694 0
M  V30 END ATOM
M  V30 BEGIN BOND
M  V30 1 2 1 2
M  V30 2 1 2 3
M  V30 3 1 2 4
M  V30 4 2 4 5
M  V30 5 1 5 6
M  V30 6 2 6 7
M  V30 7 1 7 8
M  V30 8 2 8 9
M  V30 9 1 8 10
M  V30 10 2 10 11
M  V30 11 1 11 12
M  V30 12 1 12 13
M  V30 13 2 13 14
M  V30 14 1 14 15
M  V30 15 2 15 16
M  V30 16 1 16 17
M  V30 17 1 17 18
M  V30 18 2 18 19
M  V30 19 1 18 20
M  V30 20 1 20 21
M  V30 21 1 21 22
M  V30 22 1 22 23
M  V30 23 1 23 24
M  V30 24 1 24 25
M  V30 25 2 17 26
M  V30 26 1 11 27
M  V30 27 1 27 28
M  V30 28 2 28 29
M  V30 29 1 29 30
M  V30 30 1 30 31
M  V30 31 1 9 4
M  V30 32 1 26 13
M  V30 33 2 31 27
M  V30 34 1 31 7
M  V30 35 1 25 20
M  V30 36 1 3 32
M  V30 37 1 5 33
M  V30 38 1 6 34
M  V30 39 1 9 35
M  V30 40 1 12 36
M  V30 41 1 14 37
M  V30 42 1 15 38
M  V30 43 1 16 39
M  V30 44 1 21 40
M  V30 45 1 21 41
M  V30 46 1 22 42
M  V30 47 1 22 43
M  V30 48 1 24 44
M  V30 49 1 24 45
M  V30 50 1 25 46
M  V30 51 1 25 47
M  V30 52 1 26 48
M  V30 53 1 28 49
M  V30 54 1 29 50
M  V30 END BOND
M  V30 END CTAB
M  END
>  <Dataset>  (172) 
ChEMBL_Kinases

>  <Ligand_Instance>  (172) 
nan

>  <PDB_ID>  (172) 
nan

>  <Standardized_SMILES>  (172) 
O=C(O)c1ccc2c(c1)nc(Nc1cccc(C(=O)N3CCOCC3)c1)c1ccsc12

>  <Name>  (172) 
nan

>  <Pocket>  (172) 
nan

>  <ATP_Site>  (172) 
nan

>  <Peripheral>  (172) 
nan

>  <Num_H_Atoms_ProtBoundConf>  (172) 
nan

>  <Num_Resolved_Atoms>  (172) 
nan

>  <Num_Not_Resolved_Atoms>  (172) 
nan

$$$$
CHEMBL3700532
     RDKit          3D

  0  0  0  0  0  0  0  0  0  0999 V3000
M  V30 BEGIN CTAB
M  V30 COUNTS 48 51 0 0 0
M  V30 BEGIN ATOM
M  V30 1 C 3.559342 -5.963987 -3.500578 0
M  V30 2 C 4.734725 -5.416755 -2.742297 0
M  V30 3 C 4.309776 -4.923281 -1.352330 0
M  V30 4 N 3.331325 -3.888694 -1.496501 0
M  V30 5 C 2.832935 -3.323203 -0.293806 0
M  V30 6 O 3.316018 -3.804074 0.768944 0
M  V30 7 C 1.831293 -2.259193 -0.278503 0
M  V30 8 C 1.302516 -1.729699 -1.435172 0
M  V30 9 C 0.359478 -0.726987 -1.364718 0
M  V30 10 C -0.006569 -0.304066 -0.106214 0
M  V30 11 C 0.465567 -0.772234 1.097345 0
M  V30 12 N 0.080528 -0.331679 2.368155 0
M  V30 13 C -0.880346 0.655453 2.708475 0
M  V30 14 N -1.582337 1.329506 1.825098 0
M  V30 15 C -2.496488 2.260108 1.956623 0
M  V30 16 C -3.167019 2.897548 0.953568 0
M  V30 17 C -4.103565 3.858982 1.280029 0
M  V30 18 C -4.838199 4.559511 0.223996 0
M  V30 19 O -5.703893 5.445498 0.471342 0
M  V30 20 O -4.590358 4.254742 -1.106685 0
M  V30 21 C -4.367397 4.180542 2.603650 0
M  V30 22 C -3.698270 3.546580 3.656331 0
M  V30 23 C -2.795211 2.615792 3.251002 0
M  V30 24 C -2.062423 1.914135 4.220014 0
M  V30 25 S -2.198185 2.128199 6.087508 0
M  V30 26 C -0.951637 0.880409 6.422515 0
M  V30 27 C -0.544940 0.417668 5.177366 0
M  V30 28 C -1.092354 0.924971 4.040065 0
M  V30 29 C 1.405927 -1.774501 0.936662 0
M  V30 30 H 2.697983 -6.242357 -2.857962 0
M  V30 31 H 3.244635 -5.234399 -4.300687 0
M  V30 32 H 3.874718 -6.866115 -4.051669 0
M  V30 33 H 5.170092 -4.552621 -3.290764 0
M  V30 34 H 5.512523 -6.188123 -2.666969 0
M  V30 35 H 3.912885 -5.825761 -0.829628 0
M  V30 36 H 5.206319 -4.564116 -0.813542 0
M  V30 37 H 2.997081 -3.561839 -2.425570 0
M  V30 38 H 1.612552 -2.085352 -2.407720 0
M  V30 39 H -0.052736 -0.314456 -2.274217 0
M  V30 40 H -0.745944 0.481016 -0.126264 0
M  V30 41 H 0.590204 -0.815718 3.169834 0
M  V30 42 H -2.938860 2.624292 -0.070346 0
M  V30 43 H -5.207201 4.564048 -1.873643 0
M  V30 44 H -5.116042 4.948176 2.844526 0
M  V30 45 H -3.885757 3.779267 4.695243 0
M  V30 46 H -0.650844 0.615833 7.392651 0
M  V30 47 H 0.214351 -0.350842 5.176282 0
M  V30 48 H 1.857825 -2.229437 1.833290 0
M  V30 END ATOM
M  V30 BEGIN BOND
M  V30 1 1 1 2
M  V30 2 1 2 3
M  V30 3 1 3 4
M  V30 4 1 4 5
M  V30 5 2 5 6
M  V30 6 1 5 7
M  V30 7 2 7 8
M  V30 8 1 8 9
M  V30 9 2 9 10
M  V30 10 1 10 11
M  V30 11 1 11 12
M  V30 12 1 12 13
M  V30 13 2 13 14
M  V30 14 1 14 15
M  V30 15 2 15 16
M  V30 16 1 16 17
M  V30 17 1 17 18
M  V30 18 2 18 19
M  V30 19 1 18 20
M  V30 20 2 17 21
M  V30 21 1 21 22
M  V30 22 2 22 23
M  V30 23 1 23 24
M  V30 24 1 24 25
M  V30 25 1 25 26
M  V30 26 2 26 27
M  V30 27 1 27 28
M  V30 28 2 11 29
M  V30 29 1 29 7
M  V30 30 1 28 13
M  V30 31 1 23 15
M  V30 32 2 28 24
M  V30 33 1 1 30
M  V30 34 1 1 31
M  V30 35 1 1 32
M  V30 36 1 2 33
M  V30 37 1 2 34
M  V30 38 1 3 35
M  V30 39 1 3 36
M  V30 40 1 4 37
M  V30 41 1 8 38
M  V30 42 1 9 39
M  V30 43 1 10 40
M  V30 44 1 12 41
M  V30 45 1 16 42
M  V30 46 1 20 43
M  V30 47 1 21 44
M  V30 48 1 22 45
M  V30 49 1 26 46
M  V30 50 1 27 47
M  V30 51 1 29 48
M  V30 END BOND
M  V30 END CTAB
M  END
>  <Dataset>  (173) 
ChEMBL_Kinases

>  <Ligand_Instance>  (173) 
nan

>  <PDB_ID>  (173) 
nan

>  <Standardized_SMILES>  (173) 
CCCNC(=O)c1cccc(Nc2nc3cc(C(=O)O)ccc3c3sccc23)c1

>  <Name>  (173) 
nan

>  <Pocket>  (173) 
nan

>  <ATP_Site>  (173) 
nan

>  <Peripheral>  (173) 
nan

>  <Num_H_Atoms_ProtBoundConf>  (173) 
nan

>  <Num_Resolved_Atoms>  (173) 
nan

>  <Num_Not_Resolved_Atoms>  (173) 
nan

$$$$
CHEMBL3700531
     RDKit          3D

  0  0  0  0  0  0  0  0  0  0999 V3000
M  V30 BEGIN CTAB
M  V30 COUNTS 58 63 0 0 0
M  V30 BEGIN ATOM
M  V30 1 C 2.269692 -1.551816 4.207559 0
M  V30 2 C 2.440138 -2.112200 2.837641 0
M  V30 3 O 1.957540 -3.287858 2.658257 0
M  V30 4 N 3.118809 -1.299379 1.851709 0
M  V30 5 C 3.650772 0.051928 2.007891 0
M  V30 6 C 2.703323 0.924458 1.164367 0
M  V30 7 N 2.681353 0.403643 -0.192292 0
M  V30 8 C 1.873763 1.015701 -1.165030 0
M  V30 9 O 1.861721 0.581726 -2.370444 0
M  V30 10 C 0.933231 2.115732 -1.209795 0
M  V30 11 C 0.911400 3.390185 -1.706899 0
M  V30 12 C -0.218400 4.161085 -1.541538 0
M  V30 13 C -1.347153 3.719833 -0.896918 0
M  V30 14 C -1.385669 2.415022 -0.365209 0
M  V30 15 N -2.599149 1.994906 0.298867 0
M  V30 16 C -2.678103 0.581241 -0.026377 0
M  V30 17 N -2.336442 -0.352797 0.842887 0
M  V30 18 C -2.320912 -1.666284 0.678604 0
M  V30 19 C -1.948099 -2.635426 1.567969 0
M  V30 20 C -1.964324 -3.969100 1.239750 0
M  V30 21 C -1.555004 -5.020526 2.134862 0
M  V30 22 N -1.577202 -6.344400 1.825220 0
M  V30 23 N -1.147317 -7.025056 2.845957 0
M  V30 24 N -0.826586 -6.216449 3.852652 0
M  V30 25 N -1.086774 -4.985474 3.392494 0
M  V30 26 C -2.382120 -4.301410 -0.045997 0
M  V30 27 C -2.775067 -3.394044 -1.006467 0
M  V30 28 C -2.719598 -2.075671 -0.577423 0
M  V30 29 C -3.095787 -1.129208 -1.545948 0
M  V30 30 S -3.621733 -1.349447 -3.203681 0
M  V30 31 C -3.828086 0.432241 -3.551693 0
M  V30 32 C -3.459679 1.067534 -2.310997 0
M  V30 33 C -3.090375 0.230779 -1.309077 0
M  V30 34 C -0.212950 1.689077 -0.562620 0
M  V30 35 C 3.470306 -0.768710 -0.540172 0
M  V30 36 C 3.350178 -1.837859 0.515147 0
M  V30 37 H 2.435760 -2.422186 4.891767 0
M  V30 38 H 3.074892 -0.844477 4.475564 0
M  V30 39 H 1.260278 -1.181425 4.414331 0
M  V30 40 H 4.666555 0.071345 1.568446 0
M  V30 41 H 3.607842 0.434243 3.021138 0
M  V30 42 H 2.983776 1.969510 1.190442 0
M  V30 43 H 1.708276 0.813531 1.659215 0
M  V30 44 H 1.864911 3.593826 -2.185498 0
M  V30 45 H -0.106340 5.151326 -1.982790 0
M  V30 46 H -2.185577 4.384410 -0.815603 0
M  V30 47 H -3.116704 2.729622 0.820757 0
M  V30 48 H -1.641201 -2.321371 2.553925 0
M  V30 49 H -0.960377 -4.064925 3.907183 0
M  V30 50 H -2.405073 -5.330970 -0.331711 0
M  V30 51 H -3.089965 -3.692700 -1.979289 0
M  V30 52 H -4.153979 1.074350 -4.462506 0
M  V30 53 H -3.505038 2.149613 -2.287854 0
M  V30 54 H -0.377970 0.698868 -0.090916 0
M  V30 55 H 3.147204 -1.246228 -1.488436 0
M  V30 56 H 4.543254 -0.473171 -0.598749 0
M  V30 57 H 2.616371 -2.610623 0.256575 0
M  V30 58 H 4.332014 -2.372395 0.558021 0
M  V30 END ATOM
M  V30 BEGIN BOND
M  V30 1 1 1 2
M  V30 2 2 2 3
M  V30 3 1 2 4
M  V30 4 1 4 5
M  V30 5 1 5 6
M  V30 6 1 6 7
M  V30 7 1 7 8
M  V30 8 2 8 9
M  V30 9 1 8 10
M  V30 10 2 10 11
M  V30 11 1 11 12
M  V30 12 2 12 13
M  V30 13 1 13 14
M  V30 14 1 14 15
M  V30 15 1 15 16
M  V30 16 2 16 17
M  V30 17 1 17 18
M  V30 18 2 18 19
M  V30 19 1 19 20
M  V30 20 1 20 21
M  V30 21 2 21 22
M  V30 22 1 22 23
M  V30 23 2 23 24
M  V30 24 1 24 25
M  V30 25 2 20 26
M  V30 26 1 26 27
M  V30 27 2 27 28
M  V30 28 1 28 29
M  V30 29 1 29 30
M  V30 30 1 30 31
M  V30 31 2 31 32
M  V30 32 1 32 33
M  V30 33 2 14 34
M  V30 34 1 7 35
M  V30 35 1 35 36
M  V30 36 1 36 4
M  V30 37 1 34 10
M  V30 38 1 33 16
M  V30 39 1 28 18
M  V30 40 2 33 29
M  V30 41 1 25 21
M  V30 42 1 1 37
M  V30 43 1 1 38
M  V30 44 1 1 39
M  V30 45 1 5 40
M  V30 46 1 5 41
M  V30 47 1 6 42
M  V30 48 1 6 43
M  V30 49 1 11 44
M  V30 50 1 12 45
M  V30 51 1 13 46
M  V30 52 1 15 47
M  V30 53 1 19 48
M  V30 54 1 25 49
M  V30 55 1 26 50
M  V30 56 1 27 51
M  V30 57 1 31 52
M  V30 58 1 32 53
M  V30 59 1 34 54
M  V30 60 1 35 55
M  V30 61 1 35 56
M  V30 62 1 36 57
M  V30 63 1 36 58
M  V30 END BOND
M  V30 END CTAB
M  END
>  <Dataset>  (174) 
ChEMBL_Kinases

>  <Ligand_Instance>  (174) 
nan

>  <PDB_ID>  (174) 
nan

>  <Standardized_SMILES>  (174) 
CC(=O)N1CCN(C(=O)c2cccc(Nc3nc4cc(-c5nnn[nH]5)ccc4c4sccc34)c2)CC1

>  <Name>  (174) 
nan

>  <Pocket>  (174) 
nan

>  <ATP_Site>  (174) 
nan

>  <Peripheral>  (174) 
nan

>  <Num_H_Atoms_ProtBoundConf>  (174) 
nan

>  <Num_Resolved_Atoms>  (174) 
nan

>  <Num_Not_Resolved_Atoms>  (174) 
nan

$$$$
CHEMBL3700915
     RDKit          3D

  0  0  0  0  0  0  0  0  0  0999 V3000
M  V30 BEGIN CTAB
M  V30 COUNTS 71 75 0 0 0
M  V30 BEGIN ATOM
M  V30 1 N 2.428199 -1.059649 4.915464 0
M  V30 2 C 2.920119 -0.498709 4.033172 0
M  V30 3 C 3.522145 0.213822 2.948534 0
M  V30 4 C 4.891013 0.199150 2.786177 0
M  V30 5 C 5.455896 0.890476 1.735702 0
M  V30 6 C 4.615170 1.566273 0.895137 0
M  V30 7 C 3.248133 1.609009 1.017609 0
M  V30 8 N 2.327751 2.281137 0.190672 0
M  V30 9 C 2.569082 3.060639 -0.952012 0
M  V30 10 O 3.746757 3.232494 -1.357233 0
M  V30 11 N 1.804631 3.792980 -1.889270 0
M  V30 12 C 2.545601 4.492511 -2.954870 0
M  V30 13 C 2.049841 5.939827 -2.769739 0
M  V30 14 C 0.639127 5.744123 -2.179392 0
M  V30 15 C 0.509830 4.247573 -2.372760 0 CFG=2
M  V30 16 C -0.647167 3.728589 -1.657532 0
M  V30 17 C -1.611408 4.642561 -1.213445 0
M  V30 18 C -2.732507 4.194036 -0.543330 0
M  V30 19 C -2.955607 2.836599 -0.281087 0
M  V30 20 C -2.020537 1.915919 -0.708428 0
M  V30 21 C -2.232938 0.499637 -0.446301 0
M  V30 22 O -3.305638 0.228791 0.193791 0
M  V30 23 N -1.312810 -0.482206 -0.875371 0
M  V30 24 C -1.362817 -1.895515 -0.706847 0
M  V30 25 C -1.983727 -2.690322 -1.662971 0
M  V30 26 C -2.014973 -4.064943 -1.469272 0
M  V30 27 C -1.453158 -4.702968 -0.357917 0
M  V30 28 C -1.577911 -6.174277 -0.316250 0
M  V30 29 C -2.835996 -6.664017 0.349913 0
M  V30 30 N -2.892077 -6.217826 1.729135 0
M  V30 31 C -4.135208 -6.637606 2.364323 0
M  V30 32 C -3.795081 -6.448322 3.838140 0
M  V30 33 C -2.297370 -6.647850 3.949086 0
M  V30 34 C -1.869461 -6.923034 2.516193 0
M  V30 35 C -0.852100 -3.864248 0.554747 0
M  V30 36 C -0.799515 -2.496499 0.399848 0
M  V30 37 C -0.918423 2.411600 -1.372668 0
M  V30 38 C 2.727852 0.909442 2.073731 0
M  V30 39 H 5.531659 -0.347324 3.470900 0
M  V30 40 H 6.531271 0.894763 1.585494 0
M  V30 41 H 5.074425 2.091590 0.093491 0
M  V30 42 H 1.309631 2.260681 0.372124 0
M  V30 43 H 2.262067 4.126605 -3.947543 0
M  V30 44 H 3.636201 4.455691 -2.823562 0
M  V30 45 H 2.711376 6.493544 -2.091080 0
M  V30 46 H 1.931901 6.403271 -3.767800 0
M  V30 47 H -0.114562 6.314789 -2.719916 0
M  V30 48 H 0.717291 5.998268 -1.120003 0
M  V30 49 H 0.420084 4.083598 -3.485722 0
M  V30 50 H -1.547869 5.728262 -1.359180 0
M  V30 51 H -3.485641 4.912413 -0.197564 0
M  V30 52 H -3.856136 2.561580 0.248996 0
M  V30 53 H -0.444648 -0.254465 -1.394280 0
M  V30 54 H -2.430441 -2.237832 -2.535288 0
M  V30 55 H -2.512231 -4.620066 -2.249712 0
M  V30 56 H -1.515474 -6.631093 -1.316298 0
M  V30 57 H -0.728382 -6.638096 0.267365 0
M  V30 58 H -2.744200 -7.782797 0.381570 0
M  V30 59 H -3.757263 -6.453108 -0.202539 0
M  V30 60 H -4.977070 -5.952323 2.145584 0
M  V30 61 H -4.425951 -7.661708 2.131510 0
M  V30 62 H -4.353282 -7.183714 4.442119 0
M  V30 63 H -4.062297 -5.437059 4.191642 0
M  V30 64 H -1.807593 -5.741524 4.367488 0
M  V30 65 H -2.100465 -7.501314 4.627398 0
M  V30 66 H -0.867971 -6.514308 2.298700 0
M  V30 67 H -1.914406 -8.024153 2.363697 0
M  V30 68 H -0.416689 -4.354913 1.411569 0
M  V30 69 H -0.311691 -1.897959 1.154100 0
M  V30 70 H -0.150005 1.725077 -1.730662 0
M  V30 71 H 1.640912 0.884991 2.252324 0
M  V30 END ATOM
M  V30 BEGIN BOND
M  V30 1 3 1 2
M  V30 2 1 2 3
M  V30 3 2 3 4
M  V30 4 1 4 5
M  V30 5 2 5 6
M  V30 6 1 6 7
M  V30 7 1 7 8
M  V30 8 1 8 9
M  V30 9 2 9 10
M  V30 10 1 9 11
M  V30 11 1 11 12
M  V30 12 1 12 13
M  V30 13 1 13 14
M  V30 14 1 14 15
M  V30 15 1 15 16
M  V30 16 2 16 17
M  V30 17 1 17 18
M  V30 18 2 18 19
M  V30 19 1 19 20
M  V30 20 1 20 21
M  V30 21 2 21 22
M  V30 22 1 21 23
M  V30 23 1 23 24
M  V30 24 2 24 25
M  V30 25 1 25 26
M  V30 26 2 26 27
M  V30 27 1 27 28
M  V30 28 1 28 29
M  V30 29 1 29 30
M  V30 30 1 30 31
M  V30 31 1 31 32
M  V30 32 1 32 33
M  V30 33 1 33 34
M  V30 34 1 27 35
M  V30 35 2 35 36
M  V30 36 2 20 37
M  V30 37 2 7 38
M  V30 38 1 38 3
M  V30 39 1 15 11
M  V30 40 1 37 16
M  V30 41 1 36 24
M  V30 42 1 34 30
M  V30 43 1 4 39
M  V30 44 1 5 40
M  V30 45 1 6 41
M  V30 46 1 8 42
M  V30 47 1 12 43
M  V30 48 1 12 44
M  V30 49 1 13 45
M  V30 50 1 13 46
M  V30 51 1 14 47
M  V30 52 1 14 48
M  V30 53 1 15 49 CFG=3
M  V30 54 1 17 50
M  V30 55 1 18 51
M  V30 56 1 19 52
M  V30 57 1 23 53
M  V30 58 1 25 54
M  V30 59 1 26 55
M  V30 60 1 28 56
M  V30 61 1 28 57
M  V30 62 1 29 58
M  V30 63 1 29 59
M  V30 64 1 31 60
M  V30 65 1 31 61
M  V30 66 1 32 62
M  V30 67 1 32 63
M  V30 68 1 33 64
M  V30 69 1 33 65
M  V30 70 1 34 66
M  V30 71 1 34 67
M  V30 72 1 35 68
M  V30 73 1 36 69
M  V30 74 1 37 70
M  V30 75 1 38 71
M  V30 END BOND
M  V30 END CTAB
M  END
>  <Dataset>  (175) 
ChEMBL_Kinases

>  <Ligand_Instance>  (175) 
nan

>  <PDB_ID>  (175) 
nan

>  <Standardized_SMILES>  (175) 
N#Cc1cccc(NC(=O)N2CCC[C@@H]2c2cccc(C(=O)Nc3ccc(CCN4CCCC4)cc3)c2)c1

>  <Name>  (175) 
nan

>  <Pocket>  (175) 
nan

>  <ATP_Site>  (175) 
nan

>  <Peripheral>  (175) 
nan

>  <Num_H_Atoms_ProtBoundConf>  (175) 
nan

>  <Num_Resolved_Atoms>  (175) 
nan

>  <Num_Not_Resolved_Atoms>  (175) 
nan

$$$$
CHEMBL3700514
     RDKit          3D

  0  0  0  0  0  0  0  0  0  0999 V3000
M  V30 BEGIN CTAB
M  V30 COUNTS 35 38 0 0 0
M  V30 BEGIN ATOM
M  V30 1 O 0.649832 -6.228120 2.249152 0
M  V30 2 C 0.005219 -5.178824 1.990687 0
M  V30 3 O -1.362264 -5.204719 2.116760 0
M  V30 4 C 0.711962 -3.975856 1.569275 0
M  V30 5 C 2.086342 -3.985851 1.453336 0
M  V30 6 C 2.822446 -2.875671 1.057181 0
M  V30 7 C 2.090637 -1.743302 0.781405 0
M  V30 8 C 0.717668 -1.714516 0.891592 0
M  V30 9 C 0.012715 -2.825788 1.285381 0
M  V30 10 N 0.217580 -0.534377 0.581465 0
M  V30 11 C 0.820276 0.575978 0.196807 0
M  V30 12 N 0.007717 1.702091 -0.070099 0
M  V30 13 C -1.370924 1.888207 -0.006531 0
M  V30 14 C -1.949099 3.123220 -0.326164 0
M  V30 15 C -3.297189 3.368328 -0.282894 0
M  V30 16 C -4.149304 2.358570 0.093063 0
M  V30 17 C -3.671208 1.110515 0.425257 0
M  V30 18 Cl -4.776547 -0.159504 0.901017 0
M  V30 19 C -2.307556 0.947777 0.355987 0
M  V30 20 C 2.187030 0.566228 0.081456 0
M  V30 21 C 2.931699 1.642098 -0.305160 0
M  V30 22 C 4.404484 1.352166 -0.345782 0
M  V30 23 S 4.505299 -0.446364 0.184076 0
M  V30 24 C 2.806499 -0.615597 0.381756 0
M  V30 25 H -1.824886 -5.778679 2.831753 0
M  V30 26 H 2.624377 -4.897231 1.679703 0
M  V30 27 H 3.914214 -2.898350 0.969498 0
M  V30 28 H -1.042963 -2.745318 1.352637 0
M  V30 29 H 0.543237 2.560570 -0.373510 0
M  V30 30 H -1.316691 3.954050 -0.629563 0
M  V30 31 H -3.676980 4.341086 -0.541187 0
M  V30 32 H -5.199917 2.599725 0.111786 0
M  V30 33 H -2.007324 -0.041720 0.626179 0
M  V30 34 H 2.635726 2.637188 -0.577535 0
M  V30 35 H 5.152056 2.250535 -0.679494 0
M  V30 END ATOM
M  V30 BEGIN BOND
M  V30 1 2 1 2
M  V30 2 1 2 3
M  V30 3 1 2 4
M  V30 4 2 4 5
M  V30 5 1 5 6
M  V30 6 2 6 7
M  V30 7 1 7 8
M  V30 8 2 8 9
M  V30 9 1 8 10
M  V30 10 2 10 11
M  V30 11 1 11 12
M  V30 12 1 12 13
M  V30 13 2 13 14
M  V30 14 1 14 15
M  V30 15 2 15 16
M  V30 16 1 16 17
M  V30 17 1 17 18
M  V30 18 2 17 19
M  V30 19 1 11 20
M  V30 20 1 20 21
M  V30 21 2 21 22
M  V30 22 1 22 23
M  V30 23 1 23 24
M  V30 24 1 9 4
M  V30 25 1 19 13
M  V30 26 2 24 20
M  V30 27 1 24 7
M  V30 28 1 3 25
M  V30 29 1 5 26
M  V30 30 1 6 27
M  V30 31 1 9 28
M  V30 32 1 12 29
M  V30 33 1 14 30
M  V30 34 1 15 31
M  V30 35 1 16 32
M  V30 36 1 19 33
M  V30 37 1 21 34
M  V30 38 1 22 35
M  V30 END BOND
M  V30 END CTAB
M  END
>  <Dataset>  (176) 
ChEMBL_Kinases

>  <Ligand_Instance>  (176) 
nan

>  <PDB_ID>  (176) 
nan

>  <Standardized_SMILES>  (176) 
O=C(O)c1ccc2c(c1)nc(Nc1cccc(Cl)c1)c1ccsc12

>  <Name>  (176) 
nan

>  <Pocket>  (176) 
nan

>  <ATP_Site>  (176) 
nan

>  <Peripheral>  (176) 
nan

>  <Num_H_Atoms_ProtBoundConf>  (176) 
nan

>  <Num_Resolved_Atoms>  (176) 
nan

>  <Num_Not_Resolved_Atoms>  (176) 
nan

$$$$
CHEMBL3700515
     RDKit          3D

  0  0  0  0  0  0  0  0  0  0999 V3000
M  V30 BEGIN CTAB
M  V30 COUNTS 35 38 0 0 0
M  V30 BEGIN ATOM
M  V30 1 O 1.446077 -6.532771 1.479866 0
M  V30 2 C 1.068853 -5.600432 0.728308 0
M  V30 3 O 0.468810 -6.195498 -0.362045 0
M  V30 4 C 1.252482 -4.182365 0.999007 0
M  V30 5 C 1.888147 -3.837650 2.170185 0
M  V30 6 C 2.081607 -2.489441 2.463144 0
M  V30 7 C 1.611190 -1.567436 1.536764 0
M  V30 8 C 0.980192 -1.955822 0.376892 0
M  V30 9 C 0.781752 -3.279924 0.073037 0
M  V30 10 N 0.617754 -0.904192 -0.352534 0
M  V30 11 C 0.806258 0.383349 -0.064173 0
M  V30 12 N 0.271652 1.240956 -1.094626 0
M  V30 13 C -1.069945 1.605676 -0.819343 0
M  V30 14 C -1.353451 2.963898 -0.670777 0
M  V30 15 C -2.628849 3.419704 -0.400299 0
M  V30 16 Cl -2.997835 5.127483 -0.211275 0
M  V30 17 C -3.685490 2.520068 -0.266052 0
M  V30 18 C -3.420407 1.185332 -0.409563 0
M  V30 19 C -2.150113 0.771733 -0.676129 0
M  V30 20 F -1.932637 -0.543664 -0.811792 0
M  V30 21 C 1.440133 0.760875 1.100689 0
M  V30 22 C 1.620971 2.077975 1.372349 0
M  V30 23 C 2.320020 2.223842 2.671723 0
M  V30 24 S 2.594833 0.461506 3.273685 0
M  V30 25 C 1.847327 -0.259663 1.912738 0
M  V30 26 H -0.289305 -6.870009 -0.318241 0
M  V30 27 H 2.231760 -4.603209 2.851468 0
M  V30 28 H 2.581881 -2.205708 3.384093 0
M  V30 29 H 0.282185 -3.507748 -0.850228 0
M  V30 30 H 0.749143 1.591167 -1.961917 0
M  V30 31 H -0.596705 3.717187 -0.759245 0
M  V30 32 H -4.696728 2.820140 -0.055822 0
M  V30 33 H -4.215475 0.470576 -0.310730 0
M  V30 34 H 1.389156 3.002555 0.892659 0
M  V30 35 H 2.598920 3.320055 3.137475 0
M  V30 END ATOM
M  V30 BEGIN BOND
M  V30 1 2 1 2
M  V30 2 1 2 3
M  V30 3 1 2 4
M  V30 4 2 4 5
M  V30 5 1 5 6
M  V30 6 2 6 7
M  V30 7 1 7 8
M  V30 8 2 8 9
M  V30 9 1 8 10
M  V30 10 2 10 11
M  V30 11 1 11 12
M  V30 12 1 12 13
M  V30 13 2 13 14
M  V30 14 1 14 15
M  V30 15 1 15 16
M  V30 16 2 15 17
M  V30 17 1 17 18
M  V30 18 2 18 19
M  V30 19 1 19 20
M  V30 20 1 11 21
M  V30 21 1 21 22
M  V30 22 2 22 23
M  V30 23 1 23 24
M  V30 24 1 24 25
M  V30 25 1 9 4
M  V30 26 1 19 13
M  V30 27 2 25 21
M  V30 28 1 25 7
M  V30 29 1 3 26
M  V30 30 1 5 27
M  V30 31 1 6 28
M  V30 32 1 9 29
M  V30 33 1 12 30
M  V30 34 1 14 31
M  V30 35 1 17 32
M  V30 36 1 18 33
M  V30 37 1 22 34
M  V30 38 1 23 35
M  V30 END BOND
M  V30 END CTAB
M  END
>  <Dataset>  (177) 
ChEMBL_Kinases

>  <Ligand_Instance>  (177) 
nan

>  <PDB_ID>  (177) 
nan

>  <Standardized_SMILES>  (177) 
O=C(O)c1ccc2c(c1)nc(Nc1cc(Cl)ccc1F)c1ccsc12

>  <Name>  (177) 
nan

>  <Pocket>  (177) 
nan

>  <ATP_Site>  (177) 
nan

>  <Peripheral>  (177) 
nan

>  <Num_H_Atoms_ProtBoundConf>  (177) 
nan

>  <Num_Resolved_Atoms>  (177) 
nan

>  <Num_Not_Resolved_Atoms>  (177) 
nan

$$$$
CHEMBL3700516
     RDKit          3D

  0  0  0  0  0  0  0  0  0  0999 V3000
M  V30 BEGIN CTAB
M  V30 COUNTS 42 45 0 0 0
M  V30 BEGIN ATOM
M  V30 1 C -2.253145 -6.243798 0.915512 0
M  V30 2 C -1.627279 -5.444942 -0.218766 0
M  V30 3 O -1.040604 -4.256579 0.243261 0
M  V30 4 C -0.420010 -3.424459 -0.700338 0
M  V30 5 C -0.435173 -3.843087 -2.037774 0
M  V30 6 C 0.161233 -3.065612 -3.015997 0
M  V30 7 C 0.776824 -1.878539 -2.711103 0
M  V30 8 C 0.772721 -1.498999 -1.387800 0
M  V30 9 N 1.419016 -0.275328 -1.066701 0
M  V30 10 C 1.616369 0.448965 0.144732 0
M  V30 11 N 0.670236 1.352065 0.338431 0
M  V30 12 C 0.561958 2.195698 1.376435 0
M  V30 13 C -0.415201 3.139304 1.587792 0
M  V30 14 C -0.311002 3.893779 2.735014 0
M  V30 15 C -1.350110 4.901714 2.963077 0
M  V30 16 O -2.272371 5.034594 2.118230 0
M  V30 17 O -1.388623 5.735645 4.067077 0
M  V30 18 C 0.711278 3.732743 3.644248 0
M  V30 19 C 1.695852 2.783931 3.433694 0
M  V30 20 C 1.596231 2.027093 2.287841 0
M  V30 21 C 2.620298 1.095965 2.142056 0
M  V30 22 S 3.986606 0.696600 3.105624 0
M  V30 23 C 4.560663 -0.643436 1.902246 0
M  V30 24 C 3.607643 -0.647325 0.842429 0
M  V30 25 C 2.653589 0.263958 1.037338 0
M  V30 26 C 0.192286 -2.233090 -0.361200 0
M  V30 27 H -2.441624 -7.294265 0.605119 0
M  V30 28 H -1.571157 -6.310456 1.797280 0
M  V30 29 H -3.235708 -5.834141 1.224542 0
M  V30 30 H -2.461825 -5.261039 -0.950741 0
M  V30 31 H -0.817336 -6.058025 -0.641984 0
M  V30 32 H -0.911685 -4.784534 -2.348620 0
M  V30 33 H 0.150389 -3.391925 -4.066915 0
M  V30 34 H 1.244247 -1.269653 -3.478604 0
M  V30 35 H 1.891231 0.325063 -1.760172 0
M  V30 36 H -1.180699 3.204725 0.830998 0
M  V30 37 H -1.708804 6.697127 4.029167 0
M  V30 38 H 0.745138 4.356115 4.534319 0
M  V30 39 H 2.504500 2.657406 4.155088 0
M  V30 40 H 5.551698 -1.394128 1.968995 0
M  V30 41 H 3.813488 -1.370565 0.077302 0
M  V30 42 H 0.203751 -1.911109 0.670582 0
M  V30 END ATOM
M  V30 BEGIN BOND
M  V30 1 1 1 2
M  V30 2 1 2 3
M  V30 3 1 3 4
M  V30 4 2 4 5
M  V30 5 1 5 6
M  V30 6 2 6 7
M  V30 7 1 7 8
M  V30 8 1 8 9
M  V30 9 1 9 10
M  V30 10 2 10 11
M  V30 11 1 11 12
M  V30 12 2 12 13
M  V30 13 1 13 14
M  V30 14 1 14 15
M  V30 15 2 15 16
M  V30 16 1 15 17
M  V30 17 2 14 18
M  V30 18 1 18 19
M  V30 19 2 19 20
M  V30 20 1 20 21
M  V30 21 1 21 22
M  V30 22 1 22 23
M  V30 23 2 23 24
M  V30 24 1 24 25
M  V30 25 2 8 26
M  V30 26 1 26 4
M  V30 27 1 25 10
M  V30 28 1 20 12
M  V30 29 2 25 21
M  V30 30 1 1 27
M  V30 31 1 1 28
M  V30 32 1 1 29
M  V30 33 1 2 30
M  V30 34 1 2 31
M  V30 35 1 5 32
M  V30 36 1 6 33
M  V30 37 1 7 34
M  V30 38 1 9 35
M  V30 39 1 13 36
M  V30 40 1 17 37
M  V30 41 1 18 38
M  V30 42 1 19 39
M  V30 43 1 23 40
M  V30 44 1 24 41
M  V30 45 1 26 42
M  V30 END BOND
M  V30 END CTAB
M  END
>  <Dataset>  (178) 
ChEMBL_Kinases

>  <Ligand_Instance>  (178) 
nan

>  <PDB_ID>  (178) 
nan

>  <Standardized_SMILES>  (178) 
CCOc1cccc(Nc2nc3cc(C(=O)O)ccc3c3sccc23)c1

>  <Name>  (178) 
nan

>  <Pocket>  (178) 
nan

>  <ATP_Site>  (178) 
nan

>  <Peripheral>  (178) 
nan

>  <Num_H_Atoms_ProtBoundConf>  (178) 
nan

>  <Num_Resolved_Atoms>  (178) 
nan

>  <Num_Not_Resolved_Atoms>  (178) 
nan

$$$$
CHEMBL3700517
     RDKit          3D

  0  0  0  0  0  0  0  0  0  0999 V3000
M  V30 BEGIN CTAB
M  V30 COUNTS 46 50 0 0 0
M  V30 BEGIN ATOM
M  V30 1 O 5.835360 -1.102953 1.822130 0
M  V30 2 C 5.458293 -1.819803 0.859709 0
M  V30 3 O 6.311128 -2.912838 0.625904 0
M  V30 4 C 4.289232 -1.626987 0.020811 0
M  V30 5 C 4.014411 -2.518764 -1.008520 0
M  V30 6 C 2.896147 -2.307754 -1.787359 0
M  V30 7 C 2.095846 -1.214101 -1.507705 0
M  V30 8 C 2.366498 -0.325611 -0.484904 0
M  V30 9 C 3.468331 -0.546584 0.270895 0
M  V30 10 N 1.459983 0.638787 -0.411807 0
M  V30 11 C 0.402837 0.790212 -1.190740 0
M  V30 12 N -0.383325 1.948925 -0.841215 0
M  V30 13 C -1.428220 1.775533 0.112866 0
M  V30 14 C -2.239780 2.828096 0.514310 0
M  V30 15 C -3.261574 2.707636 1.433353 0
M  V30 16 C -3.508650 1.472977 2.000480 0
M  V30 17 C -2.728338 0.395143 1.633310 0
M  V30 18 O -2.906750 -0.899394 2.158134 0
M  V30 19 C -2.193104 -1.229438 3.316551 0
M  V30 20 C -2.606165 -1.058385 4.627582 0
M  V30 21 C -1.757321 -1.447318 5.644111 0
M  V30 22 C -0.520377 -1.996433 5.375595 0
M  V30 23 C -0.118938 -2.162329 4.067139 0
M  V30 24 C -0.948950 -1.781624 3.033613 0
M  V30 25 C -1.715061 0.564133 0.707758 0
M  V30 26 C 0.088773 -0.087988 -2.241909 0
M  V30 27 C -0.963852 0.024519 -3.051516 0
M  V30 28 C -1.028911 -0.941577 -3.965601 0
M  V30 29 S 0.375999 -1.997142 -3.689024 0
M  V30 30 C 0.969816 -1.071412 -2.353919 0
M  V30 31 H 6.864783 -3.318949 1.380150 0
M  V30 32 H 4.694240 -3.363356 -1.171096 0
M  V30 33 H 2.659061 -3.000316 -2.607199 0
M  V30 34 H 3.631545 0.187033 1.063366 0
M  V30 35 H -0.245067 2.891361 -1.230175 0
M  V30 36 H -2.087407 3.813537 0.100462 0
M  V30 37 H -3.861161 3.564814 1.707174 0
M  V30 38 H -4.293818 1.311514 2.726402 0
M  V30 39 H -3.593629 -0.618929 4.734655 0
M  V30 40 H -2.158406 -1.278400 6.637575 0
M  V30 41 H 0.012548 -2.243363 6.286271 0
M  V30 42 H 0.870011 -2.602449 3.960510 0
M  V30 43 H -0.522631 -1.961993 2.059683 0
M  V30 44 H -1.106848 -0.297765 0.427828 0
M  V30 45 H -1.754589 0.798324 -3.047606 0
M  V30 46 H -1.943676 -1.025061 -4.830129 0
M  V30 END ATOM
M  V30 BEGIN BOND
M  V30 1 2 1 2
M  V30 2 1 2 3
M  V30 3 1 2 4
M  V30 4 2 4 5
M  V30 5 1 5 6
M  V30 6 2 6 7
M  V30 7 1 7 8
M  V30 8 2 8 9
M  V30 9 1 8 10
M  V30 10 2 10 11
M  V30 11 1 11 12
M  V30 12 1 12 13
M  V30 13 2 13 14
M  V30 14 1 14 15
M  V30 15 2 15 16
M  V30 16 1 16 17
M  V30 17 1 17 18
M  V30 18 1 18 19
M  V30 19 2 19 20
M  V30 20 1 20 21
M  V30 21 2 21 22
M  V30 22 1 22 23
M  V30 23 2 23 24
M  V30 24 2 17 25
M  V30 25 1 11 26
M  V30 26 1 26 27
M  V30 27 2 27 28
M  V30 28 1 28 29
M  V30 29 1 29 30
M  V30 30 1 9 4
M  V30 31 1 25 13
M  V30 32 2 30 26
M  V30 33 1 30 7
M  V30 34 1 24 19
M  V30 35 1 3 31
M  V30 36 1 5 32
M  V30 37 1 6 33
M  V30 38 1 9 34
M  V30 39 1 12 35
M  V30 40 1 14 36
M  V30 41 1 15 37
M  V30 42 1 16 38
M  V30 43 1 20 39
M  V30 44 1 21 40
M  V30 45 1 22 41
M  V30 46 1 23 42
M  V30 47 1 24 43
M  V30 48 1 25 44
M  V30 49 1 27 45
M  V30 50 1 28 46
M  V30 END BOND
M  V30 END CTAB
M  END
>  <Dataset>  (179) 
ChEMBL_Kinases

>  <Ligand_Instance>  (179) 
nan

>  <PDB_ID>  (179) 
nan

>  <Standardized_SMILES>  (179) 
O=C(O)c1ccc2c(c1)nc(Nc1cccc(Oc3ccccc3)c1)c1ccsc12

>  <Name>  (179) 
nan

>  <Pocket>  (179) 
nan

>  <ATP_Site>  (179) 
nan

>  <Peripheral>  (179) 
nan

>  <Num_H_Atoms_ProtBoundConf>  (179) 
nan

>  <Num_Resolved_Atoms>  (179) 
nan

>  <Num_Not_Resolved_Atoms>  (179) 
nan

$$$$
CHEMBL3700518
     RDKit          3D

  0  0  0  0  0  0  0  0  0  0999 V3000
M  V30 BEGIN CTAB
M  V30 COUNTS 42 45 0 0 0
M  V30 BEGIN ATOM
M  V30 1 C 0.122666 -3.559490 4.663534 0
M  V30 2 N 0.634305 -2.950263 3.429206 0
M  V30 3 C 1.920286 -3.360582 3.026233 0
M  V30 4 O 2.483126 -4.205251 3.774515 0
M  V30 5 C 2.634855 -2.905474 1.852415 0
M  V30 6 C 3.886144 -3.428407 1.608129 0
M  V30 7 C 4.598908 -3.022805 0.503134 0
M  V30 8 C 4.072001 -2.098618 -0.360312 0
M  V30 9 C 2.806373 -1.526503 -0.172221 0
M  V30 10 N 2.283306 -0.576853 -1.078162 0
M  V30 11 C 1.095639 0.198632 -1.024452 0
M  V30 12 N 0.274943 0.101719 0.014977 0
M  V30 13 C -0.866755 0.728771 0.255895 0
M  V30 14 C -1.635420 0.549282 1.372141 0
M  V30 15 C -2.810346 1.260057 1.518890 0
M  V30 16 C -3.678437 1.119054 2.683612 0
M  V30 17 O -4.755923 1.790986 2.788032 0
M  V30 18 O -3.334565 0.241230 3.700922 0
M  V30 19 C -3.174855 2.146012 0.510843 0
M  V30 20 C -2.391758 2.331084 -0.629894 0
M  V30 21 C -1.224114 1.605956 -0.745852 0
M  V30 22 C -0.417427 1.755788 -1.854011 0
M  V30 23 S -0.695603 2.800276 -3.206034 0
M  V30 24 C 0.891120 2.281263 -4.098471 0
M  V30 25 C 1.460520 1.311964 -3.179854 0
M  V30 26 C 0.758654 1.065794 -2.032412 0
M  V30 27 C 2.169831 -1.990942 0.954663 0
M  V30 28 H 0.605193 -3.098433 5.537878 0
M  V30 29 H -0.979579 -3.437240 4.705426 0
M  V30 30 H 0.335569 -4.649609 4.669821 0
M  V30 31 H 0.136458 -2.254624 2.838853 0
M  V30 32 H 4.362007 -4.158572 2.244882 0
M  V30 33 H 5.580530 -3.415792 0.287560 0
M  V30 34 H 4.673066 -1.800939 -1.231455 0
M  V30 35 H 2.900211 -0.440451 -1.932416 0
M  V30 36 H -1.321579 -0.147849 2.136356 0
M  V30 37 H -3.672213 0.369427 4.664383 0
M  V30 38 H -4.100643 2.723799 0.598701 0
M  V30 39 H -2.699687 3.035628 -1.412111 0
M  V30 40 H 1.357167 2.579465 -5.073132 0
M  V30 41 H 2.394793 0.871108 -3.491381 0
M  V30 42 H 1.186127 -1.631146 1.212883 0
M  V30 END ATOM
M  V30 BEGIN BOND
M  V30 1 1 1 2
M  V30 2 1 2 3
M  V30 3 2 3 4
M  V30 4 1 3 5
M  V30 5 2 5 6
M  V30 6 1 6 7
M  V30 7 2 7 8
M  V30 8 1 8 9
M  V30 9 1 9 10
M  V30 10 1 10 11
M  V30 11 2 11 12
M  V30 12 1 12 13
M  V30 13 2 13 14
M  V30 14 1 14 15
M  V30 15 1 15 16
M  V30 16 2 16 17
M  V30 17 1 16 18
M  V30 18 2 15 19
M  V30 19 1 19 20
M  V30 20 2 20 21
M  V30 21 1 21 22
M  V30 22 1 22 23
M  V30 23 1 23 24
M  V30 24 2 24 25
M  V30 25 1 25 26
M  V30 26 2 9 27
M  V30 27 1 27 5
M  V30 28 1 26 11
M  V30 29 1 21 13
M  V30 30 2 26 22
M  V30 31 1 1 28
M  V30 32 1 1 29
M  V30 33 1 1 30
M  V30 34 1 2 31
M  V30 35 1 6 32
M  V30 36 1 7 33
M  V30 37 1 8 34
M  V30 38 1 10 35
M  V30 39 1 14 36
M  V30 40 1 18 37
M  V30 41 1 19 38
M  V30 42 1 20 39
M  V30 43 1 24 40
M  V30 44 1 25 41
M  V30 45 1 27 42
M  V30 END BOND
M  V30 END CTAB
M  END
>  <Dataset>  (180) 
ChEMBL_Kinases

>  <Ligand_Instance>  (180) 
nan

>  <PDB_ID>  (180) 
nan

>  <Standardized_SMILES>  (180) 
CNC(=O)c1cccc(Nc2nc3cc(C(=O)O)ccc3c3sccc23)c1

>  <Name>  (180) 
nan

>  <Pocket>  (180) 
nan

>  <ATP_Site>  (180) 
nan

>  <Peripheral>  (180) 
nan

>  <Num_H_Atoms_ProtBoundConf>  (180) 
nan

>  <Num_Resolved_Atoms>  (180) 
nan

>  <Num_Not_Resolved_Atoms>  (180) 
nan

$$$$
CHEMBL3700519
     RDKit          3D

  0  0  0  0  0  0  0  0  0  0999 V3000
M  V30 BEGIN CTAB
M  V30 COUNTS 40 43 0 0 0
M  V30 BEGIN ATOM
M  V30 1 N 2.023654 -4.586878 1.768125 0
M  V30 2 S 2.358068 -4.668603 0.073618 0
M  V30 3 O 1.425764 -5.654610 -0.573666 0
M  V30 4 O 3.782565 -5.131374 -0.117210 0
M  V30 5 C 2.234840 -3.068297 -0.623652 0
M  V30 6 C 3.309937 -2.220878 -0.864053 0
M  V30 7 C 3.104850 -0.954898 -1.409168 0
M  V30 8 C 1.791161 -0.568848 -1.703106 0
M  V30 9 C 0.715179 -1.433620 -1.455020 0
M  V30 10 N -0.495645 -0.751330 -1.844977 0
M  V30 11 C -0.924914 -0.238896 -0.558494 0
M  V30 12 N -0.250251 0.839090 -0.142681 0
M  V30 13 C -0.427371 1.520940 0.989150 0
M  V30 14 C 0.311320 2.604399 1.350936 0
M  V30 15 C -0.009375 3.169749 2.569069 0
M  V30 16 C 0.780197 4.327576 2.970466 0
M  V30 17 O 1.700626 4.821503 2.276049 0
M  V30 18 O 0.661087 5.061153 4.145202 0
M  V30 19 C -1.009243 2.688081 3.386378 0
M  V30 20 C -1.746940 1.568464 2.975749 0
M  V30 21 C -1.436940 0.991977 1.760433 0
M  V30 22 C -2.199473 -0.114626 1.431915 0
M  V30 23 S -3.459529 -0.935932 2.182734 0
M  V30 24 C -3.666709 -2.231869 0.814168 0
M  V30 25 C -2.650664 -1.849381 -0.151617 0
M  V30 26 C -1.933029 -0.752001 0.230241 0
M  V30 27 C 0.971370 -2.673971 -0.916595 0
M  V30 28 H 2.881542 -4.195503 2.209031 0
M  V30 29 H 1.213882 -3.906483 1.866971 0
M  V30 30 H 4.306537 -2.613837 -0.600101 0
M  V30 31 H 3.964552 -0.320355 -1.581762 0
M  V30 32 H 1.764837 0.442384 -2.123429 0
M  V30 33 H -0.714294 -0.829013 -2.851810 0
M  V30 34 H 1.094610 2.974004 0.696575 0
M  V30 35 H 1.490989 5.323302 4.685574 0
M  V30 36 H -1.244364 3.156231 4.350539 0
M  V30 37 H -2.549398 1.164995 3.609634 0
M  V30 38 H -4.386808 -3.122908 0.700153 0
M  V30 39 H -2.608619 -2.476937 -1.022334 0
M  V30 40 H 0.029477 -3.201249 -0.797205 0
M  V30 END ATOM
M  V30 BEGIN BOND
M  V30 1 1 1 2
M  V30 2 2 2 3
M  V30 3 2 2 4
M  V30 4 1 2 5
M  V30 5 2 5 6
M  V30 6 1 6 7
M  V30 7 2 7 8
M  V30 8 1 8 9
M  V30 9 1 9 10
M  V30 10 1 10 11
M  V30 11 2 11 12
M  V30 12 1 12 13
M  V30 13 2 13 14
M  V30 14 1 14 15
M  V30 15 1 15 16
M  V30 16 2 16 17
M  V30 17 1 16 18
M  V30 18 2 15 19
M  V30 19 1 19 20
M  V30 20 2 20 21
M  V30 21 1 21 22
M  V30 22 1 22 23
M  V30 23 1 23 24
M  V30 24 2 24 25
M  V30 25 1 25 26
M  V30 26 2 9 27
M  V30 27 1 27 5
M  V30 28 1 26 11
M  V30 29 1 21 13
M  V30 30 2 26 22
M  V30 31 1 1 28
M  V30 32 1 1 29
M  V30 33 1 6 30
M  V30 34 1 7 31
M  V30 35 1 8 32
M  V30 36 1 10 33
M  V30 37 1 14 34
M  V30 38 1 18 35
M  V30 39 1 19 36
M  V30 40 1 20 37
M  V30 41 1 24 38
M  V30 42 1 25 39
M  V30 43 1 27 40
M  V30 END BOND
M  V30 END CTAB
M  END
>  <Dataset>  (181) 
ChEMBL_Kinases

>  <Ligand_Instance>  (181) 
nan

>  <PDB_ID>  (181) 
nan

>  <Standardized_SMILES>  (181) 
NS(=O)(=O)c1cccc(Nc2nc3cc(C(=O)O)ccc3c3sccc23)c1

>  <Name>  (181) 
nan

>  <Pocket>  (181) 
nan

>  <ATP_Site>  (181) 
nan

>  <Peripheral>  (181) 
nan

>  <Num_H_Atoms_ProtBoundConf>  (181) 
nan

>  <Num_Resolved_Atoms>  (181) 
nan

>  <Num_Not_Resolved_Atoms>  (181) 
nan

$$$$
CHEMBL3700520
     RDKit          3D

  0  0  0  0  0  0  0  0  0  0999 V3000
M  V30 BEGIN CTAB
M  V30 COUNTS 36 39 0 0 0
M  V30 BEGIN ATOM
M  V30 1 N -0.606916 -6.845426 1.814183 0
M  V30 2 C 0.228877 -6.043932 1.656700 0
M  V30 3 C 1.264862 -5.076766 1.457745 0
M  V30 4 C 2.591817 -5.350362 1.694725 0
M  V30 5 C 3.580542 -4.442569 1.514385 0
M  V30 6 C 3.254877 -3.190067 1.075860 0
M  V30 7 C 1.940975 -2.782745 0.797380 0
M  V30 8 N 1.472368 -1.553521 0.324087 0
M  V30 9 C 0.512959 -0.539105 0.542279 0
M  V30 10 N 0.509142 0.350722 -0.456600 0
M  V30 11 C -0.233338 1.431460 -0.612587 0
M  V30 12 C -0.193367 2.318196 -1.663077 0
M  V30 13 C -1.070548 3.377711 -1.595546 0
M  V30 14 C -1.064508 4.350902 -2.673333 0
M  V30 15 O -1.802502 5.360989 -2.770687 0
M  V30 16 O -0.305919 4.452325 -3.824730 0
M  V30 17 C -1.962980 3.600175 -0.570868 0
M  V30 18 C -1.976817 2.686893 0.471279 0
M  V30 19 C -1.108040 1.620000 0.426778 0
M  V30 20 C -1.165039 0.734550 1.509271 0
M  V30 21 S -2.157514 0.765768 2.921843 0
M  V30 22 C -1.385200 -0.816171 3.617272 0
M  V30 23 C -0.427008 -1.183269 2.641753 0
M  V30 24 C -0.359433 -0.358742 1.590214 0
M  V30 25 C 1.009417 -3.798951 1.018589 0
M  V30 26 H 2.878371 -6.329440 2.040413 0
M  V30 27 H 4.643223 -4.564101 1.671919 0
M  V30 28 H 3.989359 -2.386869 0.900048 0
M  V30 29 H 2.165517 -1.492117 -0.476004 0
M  V30 30 H 0.510880 2.123963 -2.453294 0
M  V30 31 H 0.381396 5.221801 -3.964136 0
M  V30 32 H -2.626527 4.463382 -0.592000 0
M  V30 33 H -2.675812 2.833848 1.306533 0
M  V30 34 H -1.640144 -1.409446 4.671729 0
M  V30 35 H 0.079559 -2.074108 2.951516 0
M  V30 36 H -0.038864 -3.581850 0.831347 0
M  V30 END ATOM
M  V30 BEGIN BOND
M  V30 1 3 1 2
M  V30 2 1 2 3
M  V30 3 2 3 4
M  V30 4 1 4 5
M  V30 5 2 5 6
M  V30 6 1 6 7
M  V30 7 1 7 8
M  V30 8 1 8 9
M  V30 9 2 9 10
M  V30 10 1 10 11
M  V30 11 2 11 12
M  V30 12 1 12 13
M  V30 13 1 13 14
M  V30 14 2 14 15
M  V30 15 1 14 16
M  V30 16 2 13 17
M  V30 17 1 17 18
M  V30 18 2 18 19
M  V30 19 1 19 20
M  V30 20 1 20 21
M  V30 21 1 21 22
M  V30 22 2 22 23
M  V30 23 1 23 24
M  V30 24 2 7 25
M  V30 25 1 25 3
M  V30 26 1 24 9
M  V30 27 1 19 11
M  V30 28 2 24 20
M  V30 29 1 4 26
M  V30 30 1 5 27
M  V30 31 1 6 28
M  V30 32 1 8 29
M  V30 33 1 12 30
M  V30 34 1 16 31
M  V30 35 1 17 32
M  V30 36 1 18 33
M  V30 37 1 22 34
M  V30 38 1 23 35
M  V30 39 1 25 36
M  V30 END BOND
M  V30 END CTAB
M  END
>  <Dataset>  (182) 
ChEMBL_Kinases

>  <Ligand_Instance>  (182) 
nan

>  <PDB_ID>  (182) 
nan

>  <Standardized_SMILES>  (182) 
N#Cc1cccc(Nc2nc3cc(C(=O)O)ccc3c3sccc23)c1

>  <Name>  (182) 
nan

>  <Pocket>  (182) 
nan

>  <ATP_Site>  (182) 
nan

>  <Peripheral>  (182) 
nan

>  <Num_H_Atoms_ProtBoundConf>  (182) 
nan

>  <Num_Resolved_Atoms>  (182) 
nan

>  <Num_Not_Resolved_Atoms>  (182) 
nan

$$$$
CHEMBL3700530
     RDKit          3D

  0  0  0  0  0  0  0  0  0  0999 V3000
M  V30 BEGIN CTAB
M  V30 COUNTS 51 55 0 0 0
M  V30 BEGIN ATOM
M  V30 1 C -0.076548 -0.543925 4.685478 0
M  V30 2 O 0.409690 -1.442734 3.764024 0
M  V30 3 C 1.652330 -1.983724 4.099014 0
M  V30 4 C 2.707882 -0.905770 4.236005 0
M  V30 5 N 2.868805 -0.165053 2.978176 0
M  V30 6 C 3.294926 -0.852901 1.780488 0
M  V30 7 O 3.538796 -2.094779 1.796169 0
M  V30 8 C 3.377488 0.100941 0.648980 0
M  V30 9 C 4.565888 0.704304 0.295997 0
M  V30 10 C 4.486211 1.566144 -0.772499 0
M  V30 11 C 3.294756 1.788451 -1.420317 0
M  V30 12 C 2.094510 1.164181 -1.048916 0
M  V30 13 N 0.966085 1.521609 -1.862567 0
M  V30 14 C -0.012278 0.468621 -1.658056 0
M  V30 15 N -1.106693 0.681217 -0.931603 0
M  V30 16 C -2.069972 -0.189546 -0.634730 0
M  V30 17 C -3.193198 0.026862 0.096453 0
M  V30 18 C -4.068719 -1.016333 0.273881 0
M  V30 19 C -5.297292 -0.835496 1.031962 0
M  V30 20 N -5.718459 0.292786 1.610116 0
M  V30 21 N -6.868204 0.125636 2.208830 0
M  V30 22 N -7.256088 -1.153384 2.042914 0
M  V30 23 N -6.293230 -1.707826 1.331496 0
M  V30 24 C -3.889467 -2.296310 -0.245689 0
M  V30 25 C -2.733607 -2.482489 -0.987665 0
M  V30 26 C -1.831639 -1.431984 -1.178656 0
M  V30 27 C -0.730785 -1.714941 -1.931736 0
M  V30 28 S -0.219624 -3.195418 -2.716925 0
M  V30 29 C 1.376233 -2.411385 -3.428457 0
M  V30 30 C 1.302194 -1.101943 -2.961651 0
M  V30 31 C 0.235404 -0.771225 -2.208619 0
M  V30 32 C 2.167486 0.312329 0.007164 0
M  V30 33 H -0.203478 -1.047149 5.655100 0
M  V30 34 H -1.113796 -0.274601 4.343364 0
M  V30 35 H 0.521341 0.385014 4.773375 0
M  V30 36 H 1.983321 -2.759868 3.398681 0
M  V30 37 H 1.545727 -2.445142 5.101361 0
M  V30 38 H 3.687131 -1.344391 4.462857 0
M  V30 39 H 2.446572 -0.211909 5.038054 0
M  V30 40 H 2.657180 0.872359 3.015146 0
M  V30 41 H 5.471523 0.481504 0.846370 0
M  V30 42 H 5.403907 2.064465 -1.085859 0
M  V30 43 H 3.346898 2.486118 -2.245381 0
M  V30 44 H 0.950605 2.372716 -2.434403 0
M  V30 45 H -3.341022 0.998190 0.499046 0
M  V30 46 H -6.313543 -2.720726 1.041994 0
M  V30 47 H -4.559413 -3.118058 -0.113958 0
M  V30 48 H -2.571846 -3.461407 -1.400325 0
M  V30 49 H 1.963594 -3.145350 -4.032121 0
M  V30 50 H 2.163282 -0.561949 -3.308411 0
M  V30 51 H 1.236835 -0.152440 0.270709 0
M  V30 END ATOM
M  V30 BEGIN BOND
M  V30 1 1 1 2
M  V30 2 1 2 3
M  V30 3 1 3 4
M  V30 4 1 4 5
M  V30 5 1 5 6
M  V30 6 2 6 7
M  V30 7 1 6 8
M  V30 8 2 8 9
M  V30 9 1 9 10
M  V30 10 2 10 11
M  V30 11 1 11 12
M  V30 12 1 12 13
M  V30 13 1 13 14
M  V30 14 2 14 15
M  V30 15 1 15 16
M  V30 16 2 16 17
M  V30 17 1 17 18
M  V30 18 1 18 19
M  V30 19 2 19 20
M  V30 20 1 20 21
M  V30 21 2 21 22
M  V30 22 1 22 23
M  V30 23 2 18 24
M  V30 24 1 24 25
M  V30 25 2 25 26
M  V30 26 1 26 27
M  V30 27 1 27 28
M  V30 28 1 28 29
M  V30 29 2 29 30
M  V30 30 1 30 31
M  V30 31 2 12 32
M  V30 32 1 32 8
M  V30 33 1 31 14
M  V30 34 1 26 16
M  V30 35 2 31 27
M  V30 36 1 23 19
M  V30 37 1 1 33
M  V30 38 1 1 34
M  V30 39 1 1 35
M  V30 40 1 3 36
M  V30 41 1 3 37
M  V30 42 1 4 38
M  V30 43 1 4 39
M  V30 44 1 5 40
M  V30 45 1 9 41
M  V30 46 1 10 42
M  V30 47 1 11 43
M  V30 48 1 13 44
M  V30 49 1 17 45
M  V30 50 1 23 46
M  V30 51 1 24 47
M  V30 52 1 25 48
M  V30 53 1 29 49
M  V30 54 1 30 50
M  V30 55 1 32 51
M  V30 END BOND
M  V30 END CTAB
M  END
>  <Dataset>  (183) 
ChEMBL_Kinases

>  <Ligand_Instance>  (183) 
nan

>  <PDB_ID>  (183) 
nan

>  <Standardized_SMILES>  (183) 
COCCNC(=O)c1cccc(Nc2nc3cc(-c4nnn[nH]4)ccc3c3sccc23)c1

>  <Name>  (183) 
nan

>  <Pocket>  (183) 
nan

>  <ATP_Site>  (183) 
nan

>  <Peripheral>  (183) 
nan

>  <Num_H_Atoms_ProtBoundConf>  (183) 
nan

>  <Num_Resolved_Atoms>  (183) 
nan

>  <Num_Not_Resolved_Atoms>  (183) 
nan

$$$$
CHEMBL3700522
     RDKit          3D

  0  0  0  0  0  0  0  0  0  0999 V3000
M  V30 BEGIN CTAB
M  V30 COUNTS 50 54 0 0 0
M  V30 BEGIN ATOM
M  V30 1 C -0.037777 4.950880 2.134809 0
M  V30 2 C -0.254580 3.713991 2.940648 0
M  V30 3 C 0.859933 2.729469 2.934185 0
M  V30 4 N 1.237391 2.153425 1.702014 0
M  V30 5 C 1.761653 2.538893 0.448139 0
M  V30 6 O 1.997379 3.755461 0.311313 0
M  V30 7 C 2.050056 1.672561 -0.681190 0
M  V30 8 C 2.616728 2.259204 -1.791680 0
M  V30 9 C 2.920640 1.489732 -2.905882 0
M  V30 10 C 2.684536 0.127948 -2.977682 0
M  V30 11 C 2.118169 -0.427442 -1.853082 0
M  V30 12 N 1.840778 -1.830955 -1.825371 0
M  V30 13 C 1.178917 -2.430486 -0.700507 0
M  V30 14 N -0.130069 -2.497970 -0.919347 0
M  V30 15 C -1.031621 -3.000049 -0.066077 0
M  V30 16 C -2.373040 -3.091806 -0.243947 0
M  V30 17 C -3.169805 -3.644142 0.745781 0
M  V30 18 C -4.610855 -3.740959 0.554259 0
M  V30 19 N -5.309166 -3.335861 -0.521274 0
M  V30 20 N -6.608675 -3.593803 -0.320118 0
M  V30 21 N -6.714926 -4.158235 0.879097 0
M  V30 22 N -5.511087 -4.249877 1.412496 0
M  V30 23 C -2.590232 -4.104428 1.922472 0
M  V30 24 C -1.215290 -4.015663 2.116204 0
M  V30 25 C -0.465919 -3.458249 1.101635 0
M  V30 26 C 0.879318 -3.401145 1.353483 0
M  V30 27 S 1.855288 -3.891548 2.710272 0
M  V30 28 C 3.448889 -3.365024 1.998846 0
M  V30 29 C 3.103872 -2.804138 0.664720 0
M  V30 30 C 1.775778 -2.880064 0.457472 0
M  V30 31 C 1.814672 0.317303 -0.751749 0
M  V30 32 H -0.343583 4.818831 1.054692 0
M  V30 33 H -0.778704 5.726009 2.531097 0
M  V30 34 H 0.985656 5.363203 2.198545 0
M  V30 35 H -1.169804 3.216206 2.515533 0
M  V30 36 H -0.489633 4.061343 3.994487 0
M  V30 37 H 1.778232 3.250857 3.389251 0
M  V30 38 H 0.630888 1.912629 3.669672 0
M  V30 39 H 1.101063 1.089053 1.652093 0
M  V30 40 H 2.858623 3.332360 -1.868923 0
M  V30 41 H 3.372684 1.981236 -3.779942 0
M  V30 42 H 2.927486 -0.452151 -3.851604 0
M  V30 43 H 2.105596 -2.455366 -2.609658 0
M  V30 44 H -2.772144 -2.713831 -1.188923 0
M  V30 45 H -5.356094 -4.661572 2.351417 0
M  V30 46 H -3.187378 -4.546676 2.726921 0
M  V30 47 H -0.766085 -4.380242 3.043801 0
M  V30 48 H 4.597236 -3.375583 2.344042 0
M  V30 49 H 3.912965 -2.429612 0.067604 0
M  V30 50 H 1.373565 -0.165157 0.099218 0
M  V30 END ATOM
M  V30 BEGIN BOND
M  V30 1 1 1 2
M  V30 2 1 2 3
M  V30 3 1 3 4
M  V30 4 1 4 5
M  V30 5 2 5 6
M  V30 6 1 5 7
M  V30 7 2 7 8
M  V30 8 1 8 9
M  V30 9 2 9 10
M  V30 10 1 10 11
M  V30 11 1 11 12
M  V30 12 1 12 13
M  V30 13 2 13 14
M  V30 14 1 14 15
M  V30 15 2 15 16
M  V30 16 1 16 17
M  V30 17 1 17 18
M  V30 18 2 18 19
M  V30 19 1 19 20
M  V30 20 2 20 21
M  V30 21 1 21 22
M  V30 22 2 17 23
M  V30 23 1 23 24
M  V30 24 2 24 25
M  V30 25 1 25 26
M  V30 26 1 26 27
M  V30 27 1 27 28
M  V30 28 2 28 29
M  V30 29 1 29 30
M  V30 30 2 11 31
M  V30 31 1 31 7
M  V30 32 1 30 13
M  V30 33 1 25 15
M  V30 34 2 30 26
M  V30 35 1 22 18
M  V30 36 1 1 32
M  V30 37 1 1 33
M  V30 38 1 1 34
M  V30 39 1 2 35
M  V30 40 1 2 36
M  V30 41 1 3 37
M  V30 42 1 3 38
M  V30 43 1 4 39
M  V30 44 1 8 40
M  V30 45 1 9 41
M  V30 46 1 10 42
M  V30 47 1 12 43
M  V30 48 1 16 44
M  V30 49 1 22 45
M  V30 50 1 23 46
M  V30 51 1 24 47
M  V30 52 1 28 48
M  V30 53 1 29 49
M  V30 54 1 31 50
M  V30 END BOND
M  V30 END CTAB
M  END
>  <Dataset>  (184) 
ChEMBL_Kinases

>  <Ligand_Instance>  (184) 
nan

>  <PDB_ID>  (184) 
nan

>  <Standardized_SMILES>  (184) 
CCCNC(=O)c1cccc(Nc2nc3cc(-c4nnn[nH]4)ccc3c3sccc23)c1

>  <Name>  (184) 
nan

>  <Pocket>  (184) 
nan

>  <ATP_Site>  (184) 
nan

>  <Peripheral>  (184) 
nan

>  <Num_H_Atoms_ProtBoundConf>  (184) 
nan

>  <Num_Resolved_Atoms>  (184) 
nan

>  <Num_Not_Resolved_Atoms>  (184) 
nan

$$$$
CHEMBL3700523
     RDKit          3D

  0  0  0  0  0  0  0  0  0  0999 V3000
M  V30 BEGIN CTAB
M  V30 COUNTS 52 57 0 0 0
M  V30 BEGIN ATOM
M  V30 1 O -0.190740 -2.299111 4.256295 0
M  V30 2 C -0.019772 -2.391136 3.012832 0
M  V30 3 C 1.305854 -2.240187 2.468039 0
M  V30 4 C 2.326990 -2.166503 3.395853 0
M  V30 5 C 3.623144 -2.024643 2.960071 0
M  V30 6 C 3.975048 -1.948559 1.635561 0
M  V30 7 C 3.001960 -2.013559 0.661727 0
M  V30 8 N 3.096837 -1.976729 -0.783579 0
M  V30 9 C 2.101351 -1.060916 -1.315415 0
M  V30 10 N 1.695561 -0.084394 -0.513840 0
M  V30 11 C 0.745390 0.840583 -0.783335 0
M  V30 12 C 0.460776 1.778617 0.185043 0
M  V30 13 C -0.532757 2.663436 -0.205555 0
M  V30 14 C -0.914173 3.732189 0.714313 0
M  V30 15 N -1.913606 4.613741 0.610300 0
M  V30 16 N -1.923199 5.395036 1.667641 0
M  V30 17 N -0.917407 5.014710 2.461878 0
M  V30 18 N -0.283800 3.994831 1.896543 0
M  V30 19 C -1.148283 2.573513 -1.456236 0
M  V30 20 C -0.799858 1.586596 -2.391297 0
M  V30 21 C 0.172986 0.716076 -2.014928 0
M  V30 22 C 0.556424 -0.266562 -2.871822 0
M  V30 23 S -0.016316 -0.630906 -4.457526 0
M  V30 24 C 1.133258 -2.116368 -4.714667 0
M  V30 25 C 1.886669 -2.162395 -3.444355 0
M  V30 26 C 1.534035 -1.189279 -2.556820 0
M  V30 27 C 1.696269 -2.161474 1.170662 0
M  V30 28 N -1.328359 -2.638271 2.537376 0
M  V30 29 C -2.365382 -2.693357 3.543836 0
M  V30 30 C -3.436042 -1.641639 3.338322 0
M  V30 31 O -3.355519 -1.122957 2.055766 0
M  V30 32 C -3.358289 -2.247413 1.210138 0
M  V30 33 C -1.965595 -2.865634 1.256887 0
M  V30 34 H 2.169579 -2.215743 4.462252 0
M  V30 35 H 4.471625 -1.956494 3.662379 0
M  V30 36 H 4.955359 -1.833228 1.202530 0
M  V30 37 H 3.754337 -2.494565 -1.405577 0
M  V30 38 H 0.972172 1.801525 1.129847 0
M  V30 39 H 0.545523 3.494724 2.296423 0
M  V30 40 H -1.929194 3.260490 -1.771282 0
M  V30 41 H -1.248775 1.491502 -3.355888 0
M  V30 42 H 1.295874 -2.867634 -5.581258 0
M  V30 43 H 2.608311 -2.953102 -3.387446 0
M  V30 44 H 0.886083 -2.223521 0.444994 0
M  V30 45 H -1.997334 -2.532620 4.582368 0
M  V30 46 H -2.854019 -3.681896 3.487724 0
M  V30 47 H -3.383291 -0.828744 4.074967 0
M  V30 48 H -4.454948 -2.105069 3.404428 0
M  V30 49 H -4.156427 -2.956900 1.493425 0
M  V30 50 H -3.603653 -1.849455 0.193732 0
M  V30 51 H -1.442679 -2.449930 0.397964 0
M  V30 52 H -2.067657 -3.963216 1.122401 0
M  V30 END ATOM
M  V30 BEGIN BOND
M  V30 1 2 1 2
M  V30 2 1 2 3
M  V30 3 2 3 4
M  V30 4 1 4 5
M  V30 5 2 5 6
M  V30 6 1 6 7
M  V30 7 1 7 8
M  V30 8 1 8 9
M  V30 9 2 9 10
M  V30 10 1 10 11
M  V30 11 2 11 12
M  V30 12 1 12 13
M  V30 13 1 13 14
M  V30 14 2 14 15
M  V30 15 1 15 16
M  V30 16 2 16 17
M  V30 17 1 17 18
M  V30 18 2 13 19
M  V30 19 1 19 20
M  V30 20 2 20 21
M  V30 21 1 21 22
M  V30 22 1 22 23
M  V30 23 1 23 24
M  V30 24 2 24 25
M  V30 25 1 25 26
M  V30 26 2 7 27
M  V30 27 1 2 28
M  V30 28 1 28 29
M  V30 29 1 29 30
M  V30 30 1 30 31
M  V30 31 1 31 32
M  V30 32 1 32 33
M  V30 33 1 27 3
M  V30 34 1 33 28
M  V30 35 1 26 9
M  V30 36 1 21 11
M  V30 37 2 26 22
M  V30 38 1 18 14
M  V30 39 1 4 34
M  V30 40 1 5 35
M  V30 41 1 6 36
M  V30 42 1 8 37
M  V30 43 1 12 38
M  V30 44 1 18 39
M  V30 45 1 19 40
M  V30 46 1 20 41
M  V30 47 1 24 42
M  V30 48 1 25 43
M  V30 49 1 27 44
M  V30 50 1 29 45
M  V30 51 1 29 46
M  V30 52 1 30 47
M  V30 53 1 30 48
M  V30 54 1 32 49
M  V30 55 1 32 50
M  V30 56 1 33 51
M  V30 57 1 33 52
M  V30 END BOND
M  V30 END CTAB
M  END
>  <Dataset>  (185) 
ChEMBL_Kinases

>  <Ligand_Instance>  (185) 
nan

>  <PDB_ID>  (185) 
nan

>  <Standardized_SMILES>  (185) 
O=C(c1cccc(Nc2nc3cc(-c4nnn[nH]4)ccc3c3sccc23)c1)N1CCOCC1

>  <Name>  (185) 
nan

>  <Pocket>  (185) 
nan

>  <ATP_Site>  (185) 
nan

>  <Peripheral>  (185) 
nan

>  <Num_H_Atoms_ProtBoundConf>  (185) 
nan

>  <Num_Resolved_Atoms>  (185) 
nan

>  <Num_Not_Resolved_Atoms>  (185) 
nan

$$$$
CHEMBL3700524
     RDKit          3D

  0  0  0  0  0  0  0  0  0  0999 V3000
M  V30 BEGIN CTAB
M  V30 COUNTS 55 59 0 0 0
M  V30 BEGIN ATOM
M  V30 1 C 1.965292 -0.590370 3.234943 0
M  V30 2 N 3.265415 -0.055667 3.533821 0
M  V30 3 C 3.896719 -0.881095 4.561083 0
M  V30 4 C 4.163955 0.060066 2.444093 0
M  V30 5 C 3.820750 1.101826 1.417946 0
M  V30 6 N 2.565032 0.834280 0.799531 0
M  V30 7 C 2.368168 1.902067 -0.157734 0
M  V30 8 O 3.344458 2.728790 -0.158070 0
M  V30 9 C 1.268924 2.153113 -1.073838 0
M  V30 10 C 1.386078 3.290161 -1.835324 0
M  V30 11 C 0.429104 3.648350 -2.739281 0
M  V30 12 C -0.673817 2.843613 -2.881985 0
M  V30 13 C -0.861363 1.669502 -2.140285 0
M  V30 14 N -2.015910 0.878116 -2.333512 0
M  V30 15 C -2.482153 -0.303218 -1.698494 0
M  V30 16 N -1.823925 -0.884144 -0.714302 0
M  V30 17 C -2.102286 -1.970331 -0.017089 0
M  V30 18 C -1.378726 -2.540592 1.009219 0
M  V30 19 C -1.841289 -3.694126 1.624832 0
M  V30 20 C -1.087961 -4.308280 2.711009 0
M  V30 21 N -1.435019 -5.429696 3.386983 0
M  V30 22 N -0.516296 -5.690785 4.302762 0
M  V30 23 N 0.431264 -4.770666 4.250875 0
M  V30 24 N 0.070122 -3.942249 3.282948 0
M  V30 25 C -3.027695 -4.298208 1.231000 0
M  V30 26 C -3.778776 -3.756134 0.207302 0
M  V30 27 C -3.266771 -2.613005 -0.361926 0
M  V30 28 C -3.990517 -2.052397 -1.378835 0
M  V30 29 S -5.574452 -2.622625 -2.101983 0
M  V30 30 C -5.739283 -1.274765 -3.353632 0
M  V30 31 C -4.518657 -0.480314 -3.093110 0
M  V30 32 C -3.657525 -0.871596 -2.113649 0
M  V30 33 C 0.156822 1.362758 -1.233250 0
M  V30 34 H 1.560968 -1.106791 4.163684 0
M  V30 35 H 1.226543 0.192644 2.981940 0
M  V30 36 H 2.005068 -1.304867 2.395630 0
M  V30 37 H 4.358104 -1.770314 4.091350 0
M  V30 38 H 4.732412 -0.285679 4.985522 0
M  V30 39 H 3.204551 -1.153294 5.380654 0
M  V30 40 H 4.307936 -0.951030 1.955937 0
M  V30 41 H 5.181972 0.286164 2.856584 0
M  V30 42 H 4.637803 1.126716 0.637977 0
M  V30 43 H 3.830804 2.127403 1.873264 0
M  V30 44 H 1.687616 0.250295 0.670670 0
M  V30 45 H 2.221852 3.998506 -1.800231 0
M  V30 46 H 0.493442 4.535552 -3.350953 0
M  V30 47 H -1.428444 3.162856 -3.621613 0
M  V30 48 H -2.640072 1.257203 -3.106833 0
M  V30 49 H -0.460792 -2.049538 1.294392 0
M  V30 50 H 0.536810 -3.088286 2.921443 0
M  V30 51 H -3.411596 -5.205614 1.700234 0
M  V30 52 H -4.691716 -4.227413 -0.090366 0
M  V30 53 H -6.462581 -1.049028 -4.090027 0
M  V30 54 H -4.392165 0.385057 -3.720659 0
M  V30 55 H 0.086886 0.486146 -0.633398 0
M  V30 END ATOM
M  V30 BEGIN BOND
M  V30 1 1 1 2
M  V30 2 1 2 3
M  V30 3 1 2 4
M  V30 4 1 4 5
M  V30 5 1 5 6
M  V30 6 1 6 7
M  V30 7 2 7 8
M  V30 8 1 7 9
M  V30 9 2 9 10
M  V30 10 1 10 11
M  V30 11 2 11 12
M  V30 12 1 12 13
M  V30 13 1 13 14
M  V30 14 1 14 15
M  V30 15 2 15 16
M  V30 16 1 16 17
M  V30 17 2 17 18
M  V30 18 1 18 19
M  V30 19 1 19 20
M  V30 20 2 20 21
M  V30 21 1 21 22
M  V30 22 2 22 23
M  V30 23 1 23 24
M  V30 24 2 19 25
M  V30 25 1 25 26
M  V30 26 2 26 27
M  V30 27 1 27 28
M  V30 28 1 28 29
M  V30 29 1 29 30
M  V30 30 2 30 31
M  V30 31 1 31 32
M  V30 32 2 13 33
M  V30 33 1 33 9
M  V30 34 1 32 15
M  V30 35 1 27 17
M  V30 36 2 32 28
M  V30 37 1 24 20
M  V30 38 1 1 34
M  V30 39 1 1 35
M  V30 40 1 1 36
M  V30 41 1 3 37
M  V30 42 1 3 38
M  V30 43 1 3 39
M  V30 44 1 4 40
M  V30 45 1 4 41
M  V30 46 1 5 42
M  V30 47 1 5 43
M  V30 48 1 6 44
M  V30 49 1 10 45
M  V30 50 1 11 46
M  V30 51 1 12 47
M  V30 52 1 14 48
M  V30 53 1 18 49
M  V30 54 1 24 50
M  V30 55 1 25 51
M  V30 56 1 26 52
M  V30 57 1 30 53
M  V30 58 1 31 54
M  V30 59 1 33 55
M  V30 END BOND
M  V30 END CTAB
M  END
>  <Dataset>  (186) 
ChEMBL_Kinases

>  <Ligand_Instance>  (186) 
nan

>  <PDB_ID>  (186) 
nan

>  <Standardized_SMILES>  (186) 
CN(C)CCNC(=O)c1cccc(Nc2nc3cc(-c4nnn[nH]4)ccc3c3sccc23)c1

>  <Name>  (186) 
nan

>  <Pocket>  (186) 
nan

>  <ATP_Site>  (186) 
nan

>  <Peripheral>  (186) 
nan

>  <Num_H_Atoms_ProtBoundConf>  (186) 
nan

>  <Num_Resolved_Atoms>  (186) 
nan

>  <Num_Not_Resolved_Atoms>  (186) 
nan

$$$$
CHEMBL3700525
     RDKit          3D

  0  0  0  0  0  0  0  0  0  0999 V3000
M  V30 BEGIN CTAB
M  V30 COUNTS 50 54 0 0 0
M  V30 BEGIN ATOM
M  V30 1 C 3.801455 -3.695663 2.359041 0
M  V30 2 O 3.864063 -2.280675 2.469731 0
M  V30 3 C 3.700904 -1.634846 3.691183 0
M  V30 4 O 3.488475 -2.313570 4.751858 0
M  V30 5 C 3.726353 -0.207849 4.034976 0
M  V30 6 N 3.946875 0.657248 2.882169 0
M  V30 7 C 2.876475 0.452896 1.949600 0
M  V30 8 O 2.036142 -0.396596 2.344488 0
M  V30 9 C 2.787516 1.171406 0.671168 0
M  V30 10 C 3.721386 2.086974 0.196123 0
M  V30 11 C 3.468690 2.684041 -1.035279 0
M  V30 12 C 2.343502 2.398165 -1.778339 0
M  V30 13 C 1.403110 1.480244 -1.306155 0
M  V30 14 N 0.228232 1.187546 -2.050868 0
M  V30 15 C -0.739411 0.196675 -1.734213 0
M  V30 16 N -1.416433 0.419678 -0.608899 0
M  V30 17 C -2.381359 -0.346062 -0.089653 0
M  V30 18 C -3.074810 -0.114812 1.078002 0
M  V30 19 C -4.035847 -1.026018 1.457200 0
M  V30 20 C -4.770728 -0.800833 2.697860 0
M  V30 21 N -4.603091 0.236035 3.559431 0
M  V30 22 N -5.471794 0.045557 4.555947 0
M  V30 23 N -6.171979 -1.054356 4.361315 0
M  V30 24 N -5.741539 -1.572367 3.222269 0
M  V30 25 C -4.330939 -2.154892 0.718357 0
M  V30 26 C -3.626750 -2.391437 -0.469142 0
M  V30 27 C -2.670862 -1.469768 -0.829755 0
M  V30 28 C -2.024762 -1.767678 -1.989444 0
M  V30 29 S -2.151405 -3.091984 -3.151221 0
M  V30 30 C -0.795070 -2.438601 -4.304710 0
M  V30 31 C -0.364564 -1.230345 -3.664652 0
M  V30 32 C -0.996904 -0.912224 -2.501730 0
M  V30 33 C 1.674873 0.908881 -0.096420 0
M  V30 34 H 4.385962 -3.998035 1.443369 0
M  V30 35 H 4.138796 -4.229332 3.245243 0
M  V30 36 H 2.738918 -3.932880 2.063713 0
M  V30 37 H 4.487616 -0.039871 4.832803 0
M  V30 38 H 2.727231 0.089935 4.462115 0
M  V30 39 H 4.704385 1.351052 2.645412 0
M  V30 40 H 4.581242 2.266865 0.827546 0
M  V30 41 H 4.210305 3.390115 -1.379203 0
M  V30 42 H 2.183976 2.883352 -2.730963 0
M  V30 43 H 0.029931 1.732889 -2.917743 0
M  V30 44 H -2.814795 0.770002 1.616895 0
M  V30 45 H -6.140443 -2.458962 2.836776 0
M  V30 46 H -5.096046 -2.857676 1.042025 0
M  V30 47 H -3.865211 -3.270129 -1.033642 0
M  V30 48 H -0.412238 -2.866162 -5.245702 0
M  V30 49 H 0.416407 -0.697585 -4.170736 0
M  V30 50 H 0.925682 0.200214 0.241120 0
M  V30 END ATOM
M  V30 BEGIN BOND
M  V30 1 1 1 2
M  V30 2 1 2 3
M  V30 3 2 3 4
M  V30 4 1 3 5
M  V30 5 1 5 6
M  V30 6 1 6 7
M  V30 7 2 7 8
M  V30 8 1 7 9
M  V30 9 2 9 10
M  V30 10 1 10 11
M  V30 11 2 11 12
M  V30 12 1 12 13
M  V30 13 1 13 14
M  V30 14 1 14 15
M  V30 15 2 15 16
M  V30 16 1 16 17
M  V30 17 2 17 18
M  V30 18 1 18 19
M  V30 19 1 19 20
M  V30 20 2 20 21
M  V30 21 1 21 22
M  V30 22 2 22 23
M  V30 23 1 23 24
M  V30 24 2 19 25
M  V30 25 1 25 26
M  V30 26 2 26 27
M  V30 27 1 27 28
M  V30 28 1 28 29
M  V30 29 1 29 30
M  V30 30 2 30 31
M  V30 31 1 31 32
M  V30 32 2 13 33
M  V30 33 1 33 9
M  V30 34 1 32 15
M  V30 35 1 27 17
M  V30 36 2 32 28
M  V30 37 1 24 20
M  V30 38 1 1 34
M  V30 39 1 1 35
M  V30 40 1 1 36
M  V30 41 1 5 37
M  V30 42 1 5 38
M  V30 43 1 6 39
M  V30 44 1 10 40
M  V30 45 1 11 41
M  V30 46 1 12 42
M  V30 47 1 14 43
M  V30 48 1 18 44
M  V30 49 1 24 45
M  V30 50 1 25 46
M  V30 51 1 26 47
M  V30 52 1 30 48
M  V30 53 1 31 49
M  V30 54 1 33 50
M  V30 END BOND
M  V30 END CTAB
M  END
>  <Dataset>  (187) 
ChEMBL_Kinases

>  <Ligand_Instance>  (187) 
nan

>  <PDB_ID>  (187) 
nan

>  <Standardized_SMILES>  (187) 
COC(=O)CNC(=O)c1cccc(Nc2nc3cc(-c4nnn[nH]4)ccc3c3sccc23)c1

>  <Name>  (187) 
nan

>  <Pocket>  (187) 
nan

>  <ATP_Site>  (187) 
nan

>  <Peripheral>  (187) 
nan

>  <Num_H_Atoms_ProtBoundConf>  (187) 
nan

>  <Num_Resolved_Atoms>  (187) 
nan

>  <Num_Not_Resolved_Atoms>  (187) 
nan

$$$$
CHEMBL3700526
     RDKit          3D

  0  0  0  0  0  0  0  0  0  0999 V3000
M  V30 BEGIN CTAB
M  V30 COUNTS 53 58 0 0 0
M  V30 BEGIN ATOM
M  V30 1 O 2.156835 0.923499 4.119046 0
M  V30 2 C 1.366859 0.577983 3.189858 0
M  V30 3 N 1.452586 -0.750918 2.770548 0
M  V30 4 C 2.326487 -1.802969 3.251033 0
M  V30 5 C 3.676192 -1.565081 2.677081 0
M  V30 6 C 4.736706 -0.858325 3.173564 0
M  V30 7 C 5.906477 -0.772702 2.448367 0
M  V30 8 C 6.072901 -1.369232 1.228757 0
M  V30 9 N 5.014402 -2.072397 0.737390 0
M  V30 10 C 3.876593 -2.162168 1.430984 0
M  V30 11 C 0.479683 1.581490 2.676038 0
M  V30 12 C 0.544056 2.867612 3.223613 0
M  V30 13 C -0.286367 3.867949 2.765929 0
M  V30 14 C -1.178834 3.582492 1.763023 0
M  V30 15 C -1.318806 2.344108 1.157466 0
M  V30 16 N -2.243746 2.109109 0.139894 0
M  V30 17 C -2.547222 0.923693 -0.580871 0
M  V30 18 N -1.918452 -0.219944 -0.337942 0
M  V30 19 C -2.080038 -1.406056 -0.914582 0
M  V30 20 C -1.360278 -2.531747 -0.573125 0
M  V30 21 C -1.638246 -3.694345 -1.260392 0
M  V30 22 C -0.899988 -4.907218 -0.931748 0
M  V30 23 N -1.016275 -6.129499 -1.474278 0
M  V30 24 N -0.157529 -6.937572 -0.883055 0
M  V30 25 N 0.518446 -6.278551 0.032205 0
M  V30 26 N 0.058333 -5.033185 -0.002401 0
M  V30 27 C -2.606360 -3.746719 -2.264277 0
M  V30 28 C -3.313810 -2.615009 -2.591173 0
M  V30 29 C -3.032870 -1.467431 -1.906168 0
M  V30 30 C -3.719918 -0.318517 -2.206654 0
M  V30 31 S -4.979895 -0.084804 -3.408943 0
M  V30 32 C -5.234675 1.756996 -3.028418 0
M  V30 33 C -4.292022 1.954783 -1.999552 0
M  V30 34 C -3.508553 0.921284 -1.560690 0
M  V30 35 C -0.447042 1.419011 1.684920 0
M  V30 36 H 0.800765 -1.037057 2.003972 0
M  V30 37 H 2.360999 -1.772777 4.365696 0
M  V30 38 H 1.962325 -2.803467 2.981157 0
M  V30 39 H 4.540134 -0.412758 4.144702 0
M  V30 40 H 6.665650 -0.175609 2.970735 0
M  V30 41 H 7.042575 -1.225071 0.762014 0
M  V30 42 H 3.127437 -2.742804 0.931366 0
M  V30 43 H 1.224214 3.142359 4.009485 0
M  V30 44 H -0.240203 4.854555 3.182844 0
M  V30 45 H -1.817374 4.416135 1.435078 0
M  V30 46 H -2.804142 2.974909 -0.124944 0
M  V30 47 H -0.615088 -2.457514 0.211684 0
M  V30 48 H 0.421118 -4.287007 0.625286 0
M  V30 49 H -2.809414 -4.672188 -2.792791 0
M  V30 50 H -4.066497 -2.659237 -3.372852 0
M  V30 51 H -5.904020 2.364321 -3.499417 0
M  V30 52 H -4.267866 2.967472 -1.622880 0
M  V30 53 H -0.440179 0.406134 1.311020 0
M  V30 END ATOM
M  V30 BEGIN BOND
M  V30 1 2 1 2
M  V30 2 1 2 3
M  V30 3 1 3 4
M  V30 4 1 4 5
M  V30 5 2 5 6
M  V30 6 1 6 7
M  V30 7 2 7 8
M  V30 8 1 8 9
M  V30 9 2 9 10
M  V30 10 1 2 11
M  V30 11 2 11 12
M  V30 12 1 12 13
M  V30 13 2 13 14
M  V30 14 1 14 15
M  V30 15 1 15 16
M  V30 16 1 16 17
M  V30 17 2 17 18
M  V30 18 1 18 19
M  V30 19 2 19 20
M  V30 20 1 20 21
M  V30 21 1 21 22
M  V30 22 2 22 23
M  V30 23 1 23 24
M  V30 24 2 24 25
M  V30 25 1 25 26
M  V30 26 2 21 27
M  V30 27 1 27 28
M  V30 28 2 28 29
M  V30 29 1 29 30
M  V30 30 1 30 31
M  V30 31 1 31 32
M  V30 32 2 32 33
M  V30 33 1 33 34
M  V30 34 2 15 35
M  V30 35 1 10 5
M  V30 36 1 35 11
M  V30 37 1 34 17
M  V30 38 1 29 19
M  V30 39 2 34 30
M  V30 40 1 26 22
M  V30 41 1 3 36
M  V30 42 1 4 37
M  V30 43 1 4 38
M  V30 44 1 6 39
M  V30 45 1 7 40
M  V30 46 1 8 41
M  V30 47 1 10 42
M  V30 48 1 12 43
M  V30 49 1 13 44
M  V30 50 1 14 45
M  V30 51 1 16 46
M  V30 52 1 20 47
M  V30 53 1 26 48
M  V30 54 1 27 49
M  V30 55 1 28 50
M  V30 56 1 32 51
M  V30 57 1 33 52
M  V30 58 1 35 53
M  V30 END BOND
M  V30 END CTAB
M  END
>  <Dataset>  (188) 
ChEMBL_Kinases

>  <Ligand_Instance>  (188) 
nan

>  <PDB_ID>  (188) 
nan

>  <Standardized_SMILES>  (188) 
O=C(NCc1cccnc1)c1cccc(Nc2nc3cc(-c4nnn[nH]4)ccc3c3sccc23)c1

>  <Name>  (188) 
nan

>  <Pocket>  (188) 
nan

>  <ATP_Site>  (188) 
nan

>  <Peripheral>  (188) 
nan

>  <Num_H_Atoms_ProtBoundConf>  (188) 
nan

>  <Num_Resolved_Atoms>  (188) 
nan

>  <Num_Not_Resolved_Atoms>  (188) 
nan

$$$$
CHEMBL3700527
     RDKit          3D

  0  0  0  0  0  0  0  0  0  0999 V3000
M  V30 BEGIN CTAB
M  V30 COUNTS 47 51 0 0 0
M  V30 BEGIN ATOM
M  V30 1 C 3.254052 -3.920909 -1.576876 0
M  V30 2 N 3.058754 -3.136549 -0.395272 0
M  V30 3 C 2.535147 -3.998448 0.677666 0
M  V30 4 C 3.291747 -1.726868 -0.166254 0
M  V30 5 O 3.719384 -1.223416 -1.225773 0
M  V30 6 C 2.991094 -1.256851 1.164981 0
M  V30 7 C 4.022687 -0.790328 1.970398 0
M  V30 8 C 3.745442 -0.367630 3.236266 0
M  V30 9 C 2.491444 -0.368238 3.790000 0
M  V30 10 C 1.432341 -0.829483 3.006663 0
M  V30 11 N 0.087027 -0.969950 3.347686 0
M  V30 12 C -1.026695 -0.493797 2.609524 0
M  V30 13 N -0.690291 0.295208 1.589813 0
M  V30 14 C -1.496551 0.897275 0.723197 0
M  V30 15 C -1.135684 1.713034 -0.301994 0
M  V30 16 C -2.173913 2.250796 -1.072356 0
M  V30 17 C -1.819616 3.147373 -2.166109 0
M  V30 18 N -2.672173 3.748166 -3.030059 0
M  V30 19 N -2.025234 4.498996 -3.898694 0
M  V30 20 N -0.727013 4.387903 -3.598239 0
M  V30 21 N -0.602678 3.571562 -2.551657 0
M  V30 22 C -3.505033 1.990716 -0.838982 0
M  V30 23 C -3.830769 1.157400 0.210814 0
M  V30 24 C -2.827527 0.608453 0.995684 0
M  V30 25 C -3.261588 -0.187563 2.014782 0
M  V30 26 S -4.837130 -0.681831 2.529371 0
M  V30 27 C -4.198195 -1.729288 3.966716 0
M  V30 28 C -2.728742 -1.576313 3.894845 0
M  V30 29 C -2.343147 -0.771986 2.867309 0
M  V30 30 C 1.710084 -1.260199 1.718096 0
M  V30 31 H 3.970538 -4.745296 -1.289008 0
M  V30 32 H 3.701115 -3.390540 -2.424300 0
M  V30 33 H 2.281305 -4.343730 -1.883693 0
M  V30 34 H 2.744727 -3.518500 1.671344 0
M  V30 35 H 1.450209 -4.158113 0.512743 0
M  V30 36 H 3.019343 -4.985748 0.699984 0
M  V30 37 H 5.062492 -0.738399 1.646962 0
M  V30 38 H 4.540813 0.009349 3.898941 0
M  V30 39 H 2.191474 -0.047209 4.781584 0
M  V30 40 H 0.112920 -1.494222 4.245493 0
M  V30 41 H -0.094782 1.897207 -0.458284 0
M  V30 42 H 0.306327 3.340513 -2.144095 0
M  V30 43 H -4.288062 2.433693 -1.467610 0
M  V30 44 H -4.888032 0.947178 0.397546 0
M  V30 45 H -4.740342 -2.381134 4.774779 0
M  V30 46 H -2.193006 -2.108579 4.649272 0
M  V30 47 H 0.975825 -1.637977 1.018391 0
M  V30 END ATOM
M  V30 BEGIN BOND
M  V30 1 1 1 2
M  V30 2 1 2 3
M  V30 3 1 2 4
M  V30 4 2 4 5
M  V30 5 1 4 6
M  V30 6 2 6 7
M  V30 7 1 7 8
M  V30 8 2 8 9
M  V30 9 1 9 10
M  V30 10 1 10 11
M  V30 11 1 11 12
M  V30 12 2 12 13
M  V30 13 1 13 14
M  V30 14 2 14 15
M  V30 15 1 15 16
M  V30 16 1 16 17
M  V30 17 2 17 18
M  V30 18 1 18 19
M  V30 19 2 19 20
M  V30 20 1 20 21
M  V30 21 2 16 22
M  V30 22 1 22 23
M  V30 23 2 23 24
M  V30 24 1 24 25
M  V30 25 1 25 26
M  V30 26 1 26 27
M  V30 27 2 27 28
M  V30 28 1 28 29
M  V30 29 2 10 30
M  V30 30 1 30 6
M  V30 31 1 29 12
M  V30 32 1 24 14
M  V30 33 2 29 25
M  V30 34 1 21 17
M  V30 35 1 1 31
M  V30 36 1 1 32
M  V30 37 1 1 33
M  V30 38 1 3 34
M  V30 39 1 3 35
M  V30 40 1 3 36
M  V30 41 1 7 37
M  V30 42 1 8 38
M  V30 43 1 9 39
M  V30 44 1 11 40
M  V30 45 1 15 41
M  V30 46 1 21 42
M  V30 47 1 22 43
M  V30 48 1 23 44
M  V30 49 1 27 45
M  V30 50 1 28 46
M  V30 51 1 30 47
M  V30 END BOND
M  V30 END CTAB
M  END
>  <Dataset>  (189) 
ChEMBL_Kinases

>  <Ligand_Instance>  (189) 
nan

>  <PDB_ID>  (189) 
nan

>  <Standardized_SMILES>  (189) 
CN(C)C(=O)c1cccc(Nc2nc3cc(-c4nnn[nH]4)ccc3c3sccc23)c1

>  <Name>  (189) 
nan

>  <Pocket>  (189) 
nan

>  <ATP_Site>  (189) 
nan

>  <Peripheral>  (189) 
nan

>  <Num_H_Atoms_ProtBoundConf>  (189) 
nan

>  <Num_Resolved_Atoms>  (189) 
nan

>  <Num_Not_Resolved_Atoms>  (189) 
nan

$$$$
CHEMBL3700528
     RDKit          3D

  0  0  0  0  0  0  0  0  0  0999 V3000
M  V30 BEGIN CTAB
M  V30 COUNTS 48 53 0 0 0
M  V30 BEGIN ATOM
M  V30 1 O 3.967054 -3.096720 -1.390401 0
M  V30 2 C 3.112750 -2.404908 -0.783654 0
M  V30 3 N 2.339796 -2.968730 0.267815 0
M  V30 4 C 2.570691 -4.359733 0.609583 0
M  V30 5 C 1.370437 -5.155878 1.160279 0
M  V30 6 C 2.495488 -4.753914 2.073693 0
M  V30 7 C 2.953590 -1.016996 -1.202536 0
M  V30 8 C 3.768223 -0.558401 -2.228813 0
M  V30 9 C 3.671426 0.756432 -2.686236 0
M  V30 10 C 2.758634 1.617990 -2.118266 0
M  V30 11 C 1.955572 1.153494 -1.101337 0
M  V30 12 N 0.999636 2.007482 -0.491817 0
M  V30 13 C 0.103958 1.688653 0.565224 0
M  V30 14 N -1.065350 1.177911 0.183662 0
M  V30 15 C -2.072332 0.800438 0.981887 0
M  V30 16 C -3.266310 0.275694 0.538674 0
M  V30 17 C -4.193920 -0.059654 1.502336 0
M  V30 18 C -5.461538 -0.616921 1.044837 0
M  V30 19 N -6.534912 -1.025710 1.752947 0
M  V30 20 N -7.450648 -1.456211 0.927678 0
M  V30 21 N -7.005662 -1.340743 -0.314094 0
M  V30 22 N -5.789605 -0.827718 -0.241784 0
M  V30 23 C -3.947508 0.118124 2.850944 0
M  V30 24 C -2.729497 0.652485 3.287875 0
M  V30 25 C -1.810590 0.983638 2.315207 0
M  V30 26 C -0.624395 1.507080 2.799472 0
M  V30 27 S -0.038785 1.840024 4.396863 0
M  V30 28 C 1.634895 2.507306 3.793834 0
M  V30 29 C 1.544632 2.392267 2.389739 0
M  V30 30 C 0.397661 1.885162 1.896151 0
M  V30 31 C 2.049966 -0.148146 -0.646913 0
M  V30 32 H 1.628029 -2.404790 0.779983 0
M  V30 33 H 3.315882 -4.908299 0.019281 0
M  V30 34 H 1.331478 -6.227962 0.894146 0
M  V30 35 H 0.436799 -4.592920 1.317953 0
M  V30 36 H 3.187420 -5.544849 2.438356 0
M  V30 37 H 2.338280 -3.908198 2.772203 0
M  V30 38 H 4.507248 -1.181768 -2.720148 0
M  V30 39 H 4.300454 1.119892 -3.482849 0
M  V30 40 H 2.708019 2.630368 -2.495393 0
M  V30 41 H 0.900048 3.008159 -0.824250 0
M  V30 42 H -3.395040 0.161709 -0.535186 0
M  V30 43 H -5.192893 -0.626280 -1.096805 0
M  V30 44 H -4.724170 -0.169917 3.533879 0
M  V30 45 H -2.581398 0.772898 4.340730 0
M  V30 46 H 2.447050 2.881601 4.417613 0
M  V30 47 H 2.419634 2.729194 1.858551 0
M  V30 48 H 1.413825 -0.479846 0.143813 0
M  V30 END ATOM
M  V30 BEGIN BOND
M  V30 1 2 1 2
M  V30 2 1 2 3
M  V30 3 1 3 4
M  V30 4 1 4 5
M  V30 5 1 5 6
M  V30 6 1 2 7
M  V30 7 2 7 8
M  V30 8 1 8 9
M  V30 9 2 9 10
M  V30 10 1 10 11
M  V30 11 1 11 12
M  V30 12 1 12 13
M  V30 13 2 13 14
M  V30 14 1 14 15
M  V30 15 2 15 16
M  V30 16 1 16 17
M  V30 17 1 17 18
M  V30 18 2 18 19
M  V30 19 1 19 20
M  V30 20 2 20 21
M  V30 21 1 21 22
M  V30 22 2 17 23
M  V30 23 1 23 24
M  V30 24 2 24 25
M  V30 25 1 25 26
M  V30 26 1 26 27
M  V30 27 1 27 28
M  V30 28 2 28 29
M  V30 29 1 29 30
M  V30 30 2 11 31
M  V30 31 1 6 4
M  V30 32 1 31 7
M  V30 33 1 30 13
M  V30 34 1 25 15
M  V30 35 2 30 26
M  V30 36 1 22 18
M  V30 37 1 3 32
M  V30 38 1 4 33
M  V30 39 1 5 34
M  V30 40 1 5 35
M  V30 41 1 6 36
M  V30 42 1 6 37
M  V30 43 1 8 38
M  V30 44 1 9 39
M  V30 45 1 10 40
M  V30 46 1 12 41
M  V30 47 1 16 42
M  V30 48 1 22 43
M  V30 49 1 23 44
M  V30 50 1 24 45
M  V30 51 1 28 46
M  V30 52 1 29 47
M  V30 53 1 31 48
M  V30 END BOND
M  V30 END CTAB
M  END
>  <Dataset>  (190) 
ChEMBL_Kinases

>  <Ligand_Instance>  (190) 
nan

>  <PDB_ID>  (190) 
nan

>  <Standardized_SMILES>  (190) 
O=C(NC1CC1)c1cccc(Nc2nc3cc(-c4nnn[nH]4)ccc3c3sccc23)c1

>  <Name>  (190) 
nan

>  <Pocket>  (190) 
nan

>  <ATP_Site>  (190) 
nan

>  <Peripheral>  (190) 
nan

>  <Num_H_Atoms_ProtBoundConf>  (190) 
nan

>  <Num_Resolved_Atoms>  (190) 
nan

>  <Num_Not_Resolved_Atoms>  (190) 
nan

$$$$
CHEMBL3700529
     RDKit          3D

  0  0  0  0  0  0  0  0  0  0999 V3000
M  V30 BEGIN CTAB
M  V30 COUNTS 53 58 0 0 0
M  V30 BEGIN ATOM
M  V30 1 C 4.866143 -1.110867 4.973097 0
M  V30 2 C 4.878643 -0.814919 3.502793 0
M  V30 3 C 4.041515 -1.382628 2.549623 0
M  V30 4 C 4.344706 -0.868424 1.302763 0
M  V30 5 C 3.563790 -1.325601 0.104354 0
M  V30 6 N 2.431880 -0.385053 0.023475 0
M  V30 7 C 2.538691 0.944016 -0.462604 0
M  V30 8 O 3.623339 1.399889 -0.862378 0
M  V30 9 C 1.394157 1.840276 -0.518489 0
M  V30 10 C 1.577085 3.134755 -1.017157 0
M  V30 11 C 0.505903 4.030953 -1.072558 0
M  V30 12 C -0.767175 3.674957 -0.639170 0
M  V30 13 C -0.958981 2.394817 -0.143165 0
M  V30 14 N -2.214846 1.970225 0.346596 0
M  V30 15 C -2.651744 0.643907 0.640054 0
M  V30 16 N -2.297756 -0.227704 -0.306967 0
M  V30 17 C -2.557366 -1.535696 -0.315974 0
M  V30 18 C -2.188448 -2.426249 -1.295019 0
M  V30 19 C -2.538508 -3.750755 -1.143670 0
M  V30 20 C -2.182997 -4.734379 -2.146461 0
M  V30 21 N -2.434135 -6.053904 -2.116163 0
M  V30 22 N -1.968336 -6.663365 -3.192689 0
M  V30 23 N -1.405448 -5.711932 -3.929757 0
M  V30 24 N -1.527517 -4.548650 -3.312861 0
M  V30 25 C -3.242755 -4.141579 -0.023860 0
M  V30 26 C -3.626593 -3.250536 0.980606 0
M  V30 27 C -3.262330 -1.932486 0.800870 0
M  V30 28 C -3.656374 -1.084250 1.812847 0
M  V30 29 S -4.532631 -1.364353 3.284852 0
M  V30 30 C -4.459447 0.442890 3.819103 0
M  V30 31 C -3.716009 1.128762 2.732406 0
M  V30 32 C -3.352273 0.252260 1.753846 0
M  V30 33 C 0.114587 1.553152 -0.108366 0
M  V30 34 N 5.335542 -0.024462 1.542520 0
M  V30 35 O 5.629807 -0.004202 2.802386 0
M  V30 36 H 4.297214 -2.074077 5.109320 0
M  V30 37 H 5.865456 -1.265185 5.384717 0
M  V30 38 H 4.320043 -0.308683 5.546169 0
M  V30 39 H 3.289729 -2.112473 2.824618 0
M  V30 40 H 4.200083 -1.234784 -0.775341 0
M  V30 41 H 3.150458 -2.328150 0.265212 0
M  V30 42 H 1.486061 -0.708668 0.343663 0
M  V30 43 H 2.544735 3.507903 -1.381313 0
M  V30 44 H 0.645091 5.045374 -1.462742 0
M  V30 45 H -1.555927 4.394060 -0.700408 0
M  V30 46 H -3.009329 2.582791 0.558370 0
M  V30 47 H -1.634881 -2.050881 -2.149838 0
M  V30 48 H -1.186120 -3.612390 -3.640378 0
M  V30 49 H -3.497324 -5.172403 0.065893 0
M  V30 50 H -4.187444 -3.587216 1.861221 0
M  V30 51 H -4.822466 1.083029 4.740806 0
M  V30 52 H -3.557911 2.182981 2.839322 0
M  V30 53 H -0.065518 0.575926 0.273429 0
M  V30 END ATOM
M  V30 BEGIN BOND
M  V30 1 1 1 2
M  V30 2 2 2 3
M  V30 3 1 3 4
M  V30 4 1 4 5
M  V30 5 1 5 6
M  V30 6 1 6 7
M  V30 7 2 7 8
M  V30 8 1 7 9
M  V30 9 2 9 10
M  V30 10 1 10 11
M  V30 11 2 11 12
M  V30 12 1 12 13
M  V30 13 1 13 14
M  V30 14 1 14 15
M  V30 15 2 15 16
M  V30 16 1 16 17
M  V30 17 2 17 18
M  V30 18 1 18 19
M  V30 19 1 19 20
M  V30 20 2 20 21
M  V30 21 1 21 22
M  V30 22 2 22 23
M  V30 23 1 23 24
M  V30 24 2 19 25
M  V30 25 1 25 26
M  V30 26 2 26 27
M  V30 27 1 27 28
M  V30 28 1 28 29
M  V30 29 1 29 30
M  V30 30 2 30 31
M  V30 31 1 31 32
M  V30 32 2 13 33
M  V30 33 2 4 34
M  V30 34 1 34 35
M  V30 35 1 35 2
M  V30 36 1 33 9
M  V30 37 1 32 15
M  V30 38 1 27 17
M  V30 39 2 32 28
M  V30 40 1 24 20
M  V30 41 1 1 36
M  V30 42 1 1 37
M  V30 43 1 1 38
M  V30 44 1 3 39
M  V30 45 1 5 40
M  V30 46 1 5 41
M  V30 47 1 6 42
M  V30 48 1 10 43
M  V30 49 1 11 44
M  V30 50 1 12 45
M  V30 51 1 14 46
M  V30 52 1 18 47
M  V30 53 1 24 48
M  V30 54 1 25 49
M  V30 55 1 26 50
M  V30 56 1 30 51
M  V30 57 1 31 52
M  V30 58 1 33 53
M  V30 END BOND
M  V30 END CTAB
M  END
>  <Dataset>  (191) 
ChEMBL_Kinases

>  <Ligand_Instance>  (191) 
nan

>  <PDB_ID>  (191) 
nan

>  <Standardized_SMILES>  (191) 
Cc1cc(CNC(=O)c2cccc(Nc3nc4cc(-c5nnn[nH]5)ccc4c4sccc34)c2)no1

>  <Name>  (191) 
nan

>  <Pocket>  (191) 
nan

>  <ATP_Site>  (191) 
nan

>  <Peripheral>  (191) 
nan

>  <Num_H_Atoms_ProtBoundConf>  (191) 
nan

>  <Num_Resolved_Atoms>  (191) 
nan

>  <Num_Not_Resolved_Atoms>  (191) 
nan

$$$$
CHEMBL3700521
     RDKit          3D

  0  0  0  0  0  0  0  0  0  0999 V3000
M  V30 BEGIN CTAB
M  V30 COUNTS 37 40 0 0 0
M  V30 BEGIN ATOM
M  V30 1 C -1.469775 -5.505119 3.072464 0
M  V30 2 C -0.497114 -5.091125 2.473818 0
M  V30 3 C 0.638052 -4.605091 1.756130 0
M  V30 4 C 1.649239 -5.474948 1.408992 0
M  V30 5 C 2.753674 -5.014291 0.727951 0
M  V30 6 C 2.923184 -3.698625 0.357254 0
M  V30 7 C 1.914144 -2.819770 0.701728 0
M  V30 8 N 2.030867 -1.437579 0.372043 0
M  V30 9 C 1.148372 -0.310515 0.572046 0
M  V30 10 N 0.721591 0.252955 -0.551103 0
M  V30 11 C -0.089529 1.298814 -0.687204 0
M  V30 12 C -0.516251 1.865355 -1.861368 0
M  V30 13 C -1.362438 2.954539 -1.748390 0
M  V30 14 C -1.844273 3.598744 -2.965201 0
M  V30 15 O -2.614765 4.591438 -2.961003 0
M  V30 16 O -1.468826 3.140128 -4.224420 0
M  V30 17 C -1.761749 3.452359 -0.527850 0
M  V30 18 C -1.330090 2.877880 0.654846 0
M  V30 19 C -0.479146 1.781898 0.542588 0
M  V30 20 C -0.085749 1.259912 1.764326 0
M  V30 21 S -0.429708 1.674749 3.395295 0
M  V30 22 C 0.623265 0.313266 4.123794 0
M  V30 23 C 1.167423 -0.365709 2.968077 0
M  V30 24 C 0.748072 0.188655 1.815151 0
M  V30 25 C 0.793565 -3.265807 1.387505 0
M  V30 26 H -2.311897 -5.857144 3.600388 0
M  V30 27 H 1.613898 -6.540324 1.655055 0
M  V30 28 H 3.591768 -5.661252 0.422451 0
M  V30 29 H 3.807963 -3.360006 -0.185350 0
M  V30 30 H 2.898670 -1.118777 -0.111232 0
M  V30 31 H -0.173760 1.430995 -2.768286 0
M  V30 32 H -1.541938 3.749505 -5.053061 0
M  V30 33 H -2.428727 4.304969 -0.429365 0
M  V30 34 H -1.650880 3.277442 1.604727 0
M  V30 35 H 0.855747 -0.003917 5.253793 0
M  V30 36 H 1.809999 -1.194651 3.202183 0
M  V30 37 H -0.035233 -2.645377 1.684201 0
M  V30 END ATOM
M  V30 BEGIN BOND
M  V30 1 3 1 2
M  V30 2 1 2 3
M  V30 3 2 3 4
M  V30 4 1 4 5
M  V30 5 2 5 6
M  V30 6 1 6 7
M  V30 7 1 7 8
M  V30 8 1 8 9
M  V30 9 2 9 10
M  V30 10 1 10 11
M  V30 11 2 11 12
M  V30 12 1 12 13
M  V30 13 1 13 14
M  V30 14 2 14 15
M  V30 15 1 14 16
M  V30 16 2 13 17
M  V30 17 1 17 18
M  V30 18 2 18 19
M  V30 19 1 19 20
M  V30 20 1 20 21
M  V30 21 1 21 22
M  V30 22 2 22 23
M  V30 23 1 23 24
M  V30 24 2 7 25
M  V30 25 1 25 3
M  V30 26 1 24 9
M  V30 27 1 19 11
M  V30 28 2 24 20
M  V30 29 1 1 26
M  V30 30 1 4 27
M  V30 31 1 5 28
M  V30 32 1 6 29
M  V30 33 1 8 30
M  V30 34 1 12 31
M  V30 35 1 16 32
M  V30 36 1 17 33
M  V30 37 1 18 34
M  V30 38 1 22 35
M  V30 39 1 23 36
M  V30 40 1 25 37
M  V30 END BOND
M  V30 END CTAB
M  END
>  <Dataset>  (192) 
ChEMBL_Kinases

>  <Ligand_Instance>  (192) 
nan

>  <PDB_ID>  (192) 
nan

>  <Standardized_SMILES>  (192) 
C#Cc1cccc(Nc2nc3cc(C(=O)O)ccc3c3sccc23)c1

>  <Name>  (192) 
nan

>  <Pocket>  (192) 
nan

>  <ATP_Site>  (192) 
nan

>  <Peripheral>  (192) 
nan

>  <Num_H_Atoms_ProtBoundConf>  (192) 
nan

>  <Num_Resolved_Atoms>  (192) 
nan

>  <Num_Not_Resolved_Atoms>  (192) 
nan

$$$$
CHEMBL3700914
     RDKit          3D

  0  0  0  0  0  0  0  0  0  0999 V3000
M  V30 BEGIN CTAB
M  V30 COUNTS 72 76 0 0 0
M  V30 BEGIN ATOM
M  V30 1 N 2.207525 3.423647 4.947905 0
M  V30 2 C 2.591773 3.676909 3.886569 0
M  V30 3 C 3.051631 3.996934 2.545558 0
M  V30 4 C 4.348461 3.679409 2.194868 0
M  V30 5 C 4.805657 3.977451 0.910480 0
M  V30 6 C 3.954588 4.584883 0.011372 0
M  V30 7 C 2.657780 4.906764 0.350330 0
M  V30 8 N 1.647409 5.521601 -0.429600 0
M  V30 9 C 0.911962 4.474545 -1.095847 0
M  V30 10 O 1.385272 3.326412 -0.790384 0
M  V30 11 N -0.201215 4.700123 -1.981469 0
M  V30 12 C -0.834633 5.934166 -2.415446 0
M  V30 13 C -2.219053 5.521417 -2.865287 0
M  V30 14 C -1.983881 4.144982 -3.383218 0
M  V30 15 C -0.870264 3.597875 -2.579865 0 CFG=2
M  V30 16 C -1.334434 2.600893 -1.554065 0
M  V30 17 C -1.944556 3.127087 -0.414082 0
M  V30 18 C -2.402315 2.261881 0.584927 0
M  V30 19 C -2.237446 0.881496 0.418795 0
M  V30 20 C -1.629407 0.398211 -0.721018 0
M  V30 21 C -1.503539 -1.040590 -0.805176 0
M  V30 22 O -1.960387 -1.757901 0.130018 0
M  V30 23 N -0.896705 -1.781793 -1.866024 0
M  V30 24 C -0.992992 -3.174356 -1.534958 0
M  V30 25 C -1.984468 -4.089876 -1.821254 0
M  V30 26 C -1.829098 -5.384867 -1.375940 0
M  V30 27 C -0.718589 -5.815939 -0.650218 0
M  V30 28 C -0.780173 -7.245931 -0.283664 0
M  V30 29 C -1.469703 -7.466483 1.044394 0
M  V30 30 N -0.818019 -6.827509 2.155553 0
M  V30 31 C -1.647181 -7.064788 3.355222 0
M  V30 32 C -1.050688 -6.316344 4.532863 0
M  V30 33 O 0.254048 -5.879850 4.233411 0
M  V30 34 C 1.033136 -6.941912 3.755848 0
M  V30 35 C 0.484231 -7.422187 2.434658 0
M  V30 36 C 0.249980 -4.874316 -0.384657 0
M  V30 37 C 0.120845 -3.571659 -0.817340 0
M  V30 38 C -1.171769 1.234427 -1.716827 0
M  V30 39 C 2.200193 4.610334 1.630927 0
M  V30 40 H 5.048513 3.202314 2.870033 0
M  V30 41 H 5.817263 3.755276 0.567835 0
M  V30 42 H 4.200157 4.863381 -1.013301 0
M  V30 43 H 1.342549 6.503485 -0.611591 0
M  V30 44 H -0.854028 6.699284 -1.607190 0
M  V30 45 H -0.317903 6.421475 -3.265157 0
M  V30 46 H -2.928749 5.482085 -2.019122 0
M  V30 47 H -2.595085 6.164295 -3.688103 0
M  V30 48 H -2.889205 3.497234 -3.314037 0
M  V30 49 H -1.680239 4.188497 -4.463411 0
M  V30 50 H -0.198356 3.005451 -3.262533 0
M  V30 51 H -2.107445 4.155396 -0.207934 0
M  V30 52 H -2.881899 2.639887 1.482961 0
M  V30 53 H -2.614816 0.256951 1.232857 0
M  V30 54 H -0.507040 -1.226686 -2.657143 0
M  V30 55 H -2.785409 -3.661086 -2.377414 0
M  V30 56 H -2.673593 -6.023609 -1.659065 0
M  V30 57 H 0.277073 -7.616639 -0.156809 0
M  V30 58 H -1.294426 -7.841352 -1.047280 0
M  V30 59 H -2.500852 -7.022487 0.991429 0
M  V30 60 H -1.605977 -8.560282 1.159034 0
M  V30 61 H -2.658596 -6.729846 3.100761 0
M  V30 62 H -1.700839 -8.138042 3.606989 0
M  V30 63 H -1.053929 -6.969656 5.426784 0
M  V30 64 H -1.633938 -5.400414 4.800601 0
M  V30 65 H 1.035604 -7.753007 4.513135 0
M  V30 66 H 2.058823 -6.569873 3.637223 0
M  V30 67 H 0.421558 -8.528707 2.490662 0
M  V30 68 H 1.172194 -7.098450 1.638528 0
M  V30 69 H 1.089491 -5.250313 0.174928 0
M  V30 70 H 0.975521 -2.955909 -0.520834 0
M  V30 71 H -0.696505 0.853090 -2.606202 0
M  V30 72 H 1.198378 4.814980 2.016641 0
M  V30 END ATOM
M  V30 BEGIN BOND
M  V30 1 3 1 2
M  V30 2 1 2 3
M  V30 3 2 3 4
M  V30 4 1 4 5
M  V30 5 2 5 6
M  V30 6 1 6 7
M  V30 7 1 7 8
M  V30 8 1 8 9
M  V30 9 2 9 10
M  V30 10 1 9 11
M  V30 11 1 11 12
M  V30 12 1 12 13
M  V30 13 1 13 14
M  V30 14 1 14 15
M  V30 15 1 15 16
M  V30 16 2 16 17
M  V30 17 1 17 18
M  V30 18 2 18 19
M  V30 19 1 19 20
M  V30 20 1 20 21
M  V30 21 2 21 22
M  V30 22 1 21 23
M  V30 23 1 23 24
M  V30 24 2 24 25
M  V30 25 1 25 26
M  V30 26 2 26 27
M  V30 27 1 27 28
M  V30 28 1 28 29
M  V30 29 1 29 30
M  V30 30 1 30 31
M  V30 31 1 31 32
M  V30 32 1 32 33
M  V30 33 1 33 34
M  V30 34 1 34 35
M  V30 35 1 27 36
M  V30 36 2 36 37
M  V30 37 2 20 38
M  V30 38 2 7 39
M  V30 39 1 39 3
M  V30 40 1 15 11
M  V30 41 1 38 16
M  V30 42 1 37 24
M  V30 43 1 35 30
M  V30 44 1 4 40
M  V30 45 1 5 41
M  V30 46 1 6 42
M  V30 47 1 8 43
M  V30 48 1 12 44
M  V30 49 1 12 45
M  V30 50 1 13 46
M  V30 51 1 13 47
M  V30 52 1 14 48
M  V30 53 1 14 49
M  V30 54 1 15 50 CFG=3
M  V30 55 1 17 51
M  V30 56 1 18 52
M  V30 57 1 19 53
M  V30 58 1 23 54
M  V30 59 1 25 55
M  V30 60 1 26 56
M  V30 61 1 28 57
M  V30 62 1 28 58
M  V30 63 1 29 59
M  V30 64 1 29 60
M  V30 65 1 31 61
M  V30 66 1 31 62
M  V30 67 1 32 63
M  V30 68 1 32 64
M  V30 69 1 34 65
M  V30 70 1 34 66
M  V30 71 1 35 67
M  V30 72 1 35 68
M  V30 73 1 36 69
M  V30 74 1 37 70
M  V30 75 1 38 71
M  V30 76 1 39 72
M  V30 END BOND
M  V30 END CTAB
M  END
>  <Dataset>  (193) 
ChEMBL_Kinases

>  <Ligand_Instance>  (193) 
nan

>  <PDB_ID>  (193) 
nan

>  <Standardized_SMILES>  (193) 
N#Cc1cccc(NC(=O)N2CCC[C@@H]2c2cccc(C(=O)Nc3ccc(CCN4CCOCC4)cc3)c2)c1

>  <Name>  (193) 
nan

>  <Pocket>  (193) 
nan

>  <ATP_Site>  (193) 
nan

>  <Peripheral>  (193) 
nan

>  <Num_H_Atoms_ProtBoundConf>  (193) 
nan

>  <Num_Resolved_Atoms>  (193) 
nan

>  <Num_Not_Resolved_Atoms>  (193) 
nan

$$$$
CHEMBL3700913
     RDKit          3D

  0  0  0  0  0  0  0  0  0  0999 V3000
M  V30 BEGIN CTAB
M  V30 COUNTS 61 65 0 0 0
M  V30 BEGIN ATOM
M  V30 1 C 7.571438 -0.922379 5.908417 0
M  V30 2 N 6.547979 -0.854733 4.884379 0
M  V30 3 C 7.116047 -0.201882 3.724744 0
M  V30 4 C 6.193553 -0.279010 2.523184 0
M  V30 5 C 4.902935 0.347045 2.953243 0
M  V30 6 N 3.993364 0.883212 2.162482 0
M  V30 7 C 2.986399 1.376435 2.443085 0
M  V30 8 N 1.825653 2.026261 1.819027 0
M  V30 9 C 0.791343 1.114619 1.491780 0
M  V30 10 O 1.010673 -0.110580 1.778236 0
M  V30 11 C -0.457473 1.556368 0.861076 0
M  V30 12 C -0.757300 2.859964 0.517173 0
M  V30 13 C -1.962538 3.185052 -0.071847 0
M  V30 14 C -2.895370 2.199766 -0.327919 0
M  V30 15 C -2.638893 0.873548 0.000445 0
M  V30 16 C -3.655314 -0.174111 -0.279379 0 CFG=1
M  V30 17 C -4.896162 0.100623 0.549395 0
M  V30 18 N -5.906052 -0.594852 -0.226547 0
M  V30 19 C -5.610896 -0.132412 -1.569170 0
M  V30 20 C -4.087369 -0.268807 -1.698061 0 CFG=2
M  V30 21 C -3.884351 -1.641348 -2.282056 0
M  V30 22 O -4.825693 -2.366192 -2.744648 0
M  V30 23 N -2.604382 -2.293557 -2.385272 0
M  V30 24 C -2.780246 -3.573890 -2.983300 0
M  V30 25 C -2.681714 -3.549721 -4.367280 0
M  V30 26 C -2.824270 -4.699338 -5.120341 0
M  V30 27 C -3.071226 -5.891429 -4.448437 0
M  V30 28 C -3.228727 -7.124227 -5.187202 0
M  V30 29 N -3.357178 -8.137075 -5.770488 0
M  V30 30 C -3.172704 -5.935740 -3.070599 0
M  V30 31 C -3.026072 -4.768184 -2.333189 0
M  V30 32 C -1.409749 0.595698 0.592265 0
M  V30 33 S 3.038562 1.183403 4.358420 0
M  V30 34 C 4.601395 0.383716 4.315427 0
M  V30 35 C 5.423469 -0.136716 5.429897 0
M  V30 36 H 8.269405 -0.047505 5.823420 0
M  V30 37 H 8.141355 -1.863493 5.901943 0
M  V30 38 H 7.106017 -0.826605 6.911934 0
M  V30 39 H 7.320950 0.870764 3.944818 0
M  V30 40 H 8.070893 -0.702061 3.483696 0
M  V30 41 H 6.040142 -1.342586 2.232566 0
M  V30 42 H 6.678466 0.231389 1.689443 0
M  V30 43 H 1.736902 3.046007 1.622317 0
M  V30 44 H -0.006869 3.611499 0.729988 0
M  V30 45 H -2.120476 4.228246 -0.310868 0
M  V30 46 H -3.833597 2.472962 -0.789962 0
M  V30 47 H -3.228731 -1.143710 0.053682 0
M  V30 48 H -5.105380 1.170399 0.650168 0
M  V30 49 H -4.733364 -0.335178 1.546993 0
M  V30 50 H -5.748139 -1.601319 -0.132471 0
M  V30 51 H -5.943332 0.902734 -1.721503 0
M  V30 52 H -6.133333 -0.746182 -2.312819 0
M  V30 53 H -3.693076 0.494210 -2.381329 0
M  V30 54 H -1.779993 -1.736209 -2.015127 0
M  V30 55 H -2.488980 -2.647085 -4.961567 0
M  V30 56 H -2.746305 -4.681519 -6.218428 0
M  V30 57 H -3.361885 -6.826012 -2.498132 0
M  V30 58 H -3.080831 -4.659111 -1.262241 0
M  V30 59 H -1.210627 -0.433208 0.846736 0
M  V30 60 H 4.860515 -0.843479 6.077608 0
M  V30 61 H 5.693329 0.716911 6.077624 0
M  V30 END ATOM
M  V30 BEGIN BOND
M  V30 1 1 1 2
M  V30 2 1 2 3
M  V30 3 1 3 4
M  V30 4 1 4 5
M  V30 5 1 5 6
M  V30 6 2 6 7
M  V30 7 1 7 8
M  V30 8 1 8 9
M  V30 9 2 9 10
M  V30 10 1 9 11
M  V30 11 2 11 12
M  V30 12 1 12 13
M  V30 13 2 13 14
M  V30 14 1 14 15
M  V30 15 1 15 16
M  V30 16 1 16 17
M  V30 17 1 17 18
M  V30 18 1 18 19
M  V30 19 1 19 20
M  V30 20 1 20 21
M  V30 21 2 21 22
M  V30 22 1 21 23
M  V30 23 1 23 24
M  V30 24 2 24 25
M  V30 25 1 25 26
M  V30 26 2 26 27
M  V30 27 1 27 28
M  V30 28 3 28 29
M  V30 29 1 27 30
M  V30 30 2 30 31
M  V30 31 2 15 32
M  V30 32 1 7 33
M  V30 33 1 33 34
M  V30 34 1 34 35
M  V30 35 1 35 2
M  V30 36 2 34 5
M  V30 37 1 32 11
M  V30 38 1 20 16
M  V30 39 1 31 24
M  V30 40 1 1 36
M  V30 41 1 1 37
M  V30 42 1 1 38
M  V30 43 1 3 39
M  V30 44 1 3 40
M  V30 45 1 4 41
M  V30 46 1 4 42
M  V30 47 1 8 43
M  V30 48 1 12 44
M  V30 49 1 13 45
M  V30 50 1 14 46
M  V30 51 1 16 47 CFG=1
M  V30 52 1 17 48
M  V30 53 1 17 49
M  V30 54 1 18 50
M  V30 55 1 19 51
M  V30 56 1 19 52
M  V30 57 1 20 53 CFG=3
M  V30 58 1 23 54
M  V30 59 1 25 55
M  V30 60 1 26 56
M  V30 61 1 30 57
M  V30 62 1 31 58
M  V30 63 1 32 59
M  V30 64 1 35 60
M  V30 65 1 35 61
M  V30 END BOND
M  V30 END CTAB
M  END
>  <Dataset>  (194) 
ChEMBL_Kinases

>  <Ligand_Instance>  (194) 
nan

>  <PDB_ID>  (194) 
nan

>  <Standardized_SMILES>  (194) 
CN1CCc2nc(NC(=O)c3cccc([C@H]4CNC[C@@H]4C(=O)Nc4ccc(C#N)cc4)c3)sc2C1

>  <Name>  (194) 
nan

>  <Pocket>  (194) 
nan

>  <ATP_Site>  (194) 
nan

>  <Peripheral>  (194) 
nan

>  <Num_H_Atoms_ProtBoundConf>  (194) 
nan

>  <Num_Resolved_Atoms>  (194) 
nan

>  <Num_Not_Resolved_Atoms>  (194) 
nan

$$$$
CHEMBL3700912
     RDKit          3D

  0  0  0  0  0  0  0  0  0  0999 V3000
M  V30 BEGIN CTAB
M  V30 COUNTS 61 64 0 0 0
M  V30 BEGIN ATOM
M  V30 1 C 4.057727 -1.895400 2.117587 0
M  V30 2 C 4.059346 -1.389267 3.540945 0
M  V30 3 C 2.831426 -0.618112 3.889384 0 CFG=1
M  V30 4 N 2.602310 0.558913 3.085707 0
M  V30 5 C 2.418050 1.944570 3.157669 0
M  V30 6 O 2.458025 2.371557 4.350808 0
M  V30 7 C 2.211904 2.709737 1.937548 0
M  V30 8 C 2.190562 2.312653 0.620577 0
M  V30 9 C 1.971686 3.222375 -0.387556 0
M  V30 10 C 1.767606 4.562401 -0.088905 0
M  V30 11 O 1.551484 5.433018 -1.155043 0
M  V30 12 C 1.539771 4.968813 -2.512684 0
M  V30 13 C 1.783245 4.990584 1.221137 0
M  V30 14 Cl 1.519934 6.687611 1.531285 0
M  V30 15 C 2.004296 4.065495 2.220266 0
M  V30 16 C 1.606548 -1.493729 3.898270 0
M  V30 17 C 1.150953 -2.095028 5.052320 0
M  V30 18 C 0.037571 -2.901278 5.137073 0
M  V30 19 C -0.680629 -3.129722 3.990001 0
M  V30 20 C -0.269112 -2.546671 2.784000 0
M  V30 21 C -1.000284 -2.751837 1.541177 0
M  V30 22 O -0.631277 -2.232016 0.449338 0
M  V30 23 N -2.153427 -3.531285 1.468760 0
M  V30 24 C -2.839125 -3.672971 0.120479 0
M  V30 25 N -2.797104 -4.381477 -0.807713 0
M  V30 26 C -3.535083 -4.273791 -1.887193 0
M  V30 27 C -4.459905 -3.210342 -1.931776 0
M  V30 28 S -4.134728 -2.416564 -0.271210 0
M  V30 29 C -5.318593 -3.040106 -3.133609 0
M  V30 30 N -4.546464 -3.104748 -4.350499 0
M  V30 31 C -4.007946 -1.784615 -4.670034 0
M  V30 32 C -3.445910 -4.032583 -4.274438 0
M  V30 33 C -3.627767 -5.057352 -3.148393 0
M  V30 34 C 0.854931 -1.748736 2.762264 0
M  V30 35 H 4.992733 -2.514150 2.012799 0
M  V30 36 H 4.163243 -1.061718 1.405395 0
M  V30 37 H 3.218956 -2.581720 1.893734 0
M  V30 38 H 4.944863 -0.730152 3.642473 0
M  V30 39 H 4.197095 -2.242423 4.209175 0
M  V30 40 H 2.952327 -0.315110 4.973836 0
M  V30 41 H 2.587963 0.088028 2.135802 0
M  V30 42 H 2.358038 1.263278 0.504884 0
M  V30 43 H 1.976543 2.797386 -1.383502 0
M  V30 44 H 1.127977 5.752191 -3.156117 0
M  V30 45 H 0.824665 4.121367 -2.556573 0
M  V30 46 H 2.526934 4.583500 -2.805608 0
M  V30 47 H 1.996202 4.508515 3.208457 0
M  V30 48 H 1.749775 -1.890834 5.946549 0
M  V30 49 H -0.225487 -3.319428 6.096636 0
M  V30 50 H -1.559721 -3.758639 4.024376 0
M  V30 51 H -2.558668 -4.010155 2.273966 0
M  V30 52 H -6.127733 -3.766306 -3.064724 0
M  V30 53 H -5.760463 -2.024463 -3.073954 0
M  V30 54 H -3.114072 -1.902632 -5.316737 0
M  V30 55 H -3.632246 -1.368164 -3.713245 0
M  V30 56 H -4.753422 -1.146143 -5.177656 0
M  V30 57 H -3.217381 -4.540984 -5.230620 0
M  V30 58 H -2.539078 -3.456060 -3.998326 0
M  V30 59 H -4.633426 -5.545344 -3.244360 0
M  V30 60 H -2.845850 -5.809402 -3.248871 0
M  V30 61 H 1.152398 -1.311152 1.820101 0
M  V30 END ATOM
M  V30 BEGIN BOND
M  V30 1 1 1 2
M  V30 2 1 2 3
M  V30 3 1 3 4
M  V30 4 1 4 5
M  V30 5 2 5 6
M  V30 6 1 5 7
M  V30 7 2 7 8
M  V30 8 1 8 9
M  V30 9 2 9 10
M  V30 10 1 10 11
M  V30 11 1 11 12
M  V30 12 1 10 13
M  V30 13 1 13 14
M  V30 14 2 13 15
M  V30 15 1 3 16
M  V30 16 2 16 17
M  V30 17 1 17 18
M  V30 18 2 18 19
M  V30 19 1 19 20
M  V30 20 1 20 21
M  V30 21 2 21 22
M  V30 22 1 21 23
M  V30 23 1 23 24
M  V30 24 2 24 25
M  V30 25 1 25 26
M  V30 26 2 26 27
M  V30 27 1 27 28
M  V30 28 1 27 29
M  V30 29 1 29 30
M  V30 30 1 30 31
M  V30 31 1 30 32
M  V30 32 1 32 33
M  V30 33 2 20 34
M  V30 34 1 15 7
M  V30 35 1 34 16
M  V30 36 1 28 24
M  V30 37 1 33 26
M  V30 38 1 1 35
M  V30 39 1 1 36
M  V30 40 1 1 37
M  V30 41 1 2 38
M  V30 42 1 2 39
M  V30 43 1 3 40 CFG=1
M  V30 44 1 4 41
M  V30 45 1 8 42
M  V30 46 1 9 43
M  V30 47 1 12 44
M  V30 48 1 12 45
M  V30 49 1 12 46
M  V30 50 1 15 47
M  V30 51 1 17 48
M  V30 52 1 18 49
M  V30 53 1 19 50
M  V30 54 1 23 51
M  V30 55 1 29 52
M  V30 56 1 29 53
M  V30 57 1 31 54
M  V30 58 1 31 55
M  V30 59 1 31 56
M  V30 60 1 32 57
M  V30 61 1 32 58
M  V30 62 1 33 59
M  V30 63 1 33 60
M  V30 64 1 34 61
M  V30 END BOND
M  V30 END CTAB
M  END
>  <Dataset>  (195) 
ChEMBL_Kinases

>  <Ligand_Instance>  (195) 
nan

>  <PDB_ID>  (195) 
nan

>  <Standardized_SMILES>  (195) 
CC[C@@H](NC(=O)c1ccc(OC)c(Cl)c1)c1cccc(C(=O)Nc2nc3c(s2)CN(C)CC3)c1

>  <Name>  (195) 
nan

>  <Pocket>  (195) 
nan

>  <ATP_Site>  (195) 
nan

>  <Peripheral>  (195) 
nan

>  <Num_H_Atoms_ProtBoundConf>  (195) 
nan

>  <Num_Resolved_Atoms>  (195) 
nan

>  <Num_Not_Resolved_Atoms>  (195) 
nan

$$$$
CHEMBL3700911
     RDKit          3D

  0  0  0  0  0  0  0  0  0  0999 V3000
M  V30 BEGIN CTAB
M  V30 COUNTS 64 68 0 0 0
M  V30 BEGIN ATOM
M  V30 1 N 5.507885 -4.669800 4.243102 0
M  V30 2 C 5.302037 -3.604700 3.896846 0
M  V30 3 C 5.046551 -2.258022 3.453561 0
M  V30 4 C 4.255504 -1.383181 4.167281 0
M  V30 5 C 4.042006 -0.108516 3.701562 0
M  V30 6 C 4.592008 0.353435 2.527015 0
M  V30 7 N 4.295973 1.683290 2.159694 0
M  V30 8 C 4.718383 2.400627 1.019363 0
M  V30 9 O 5.466697 1.832382 0.180137 0
M  V30 10 C 4.484726 3.766105 0.521002 0
M  V30 11 O 3.660873 4.513239 1.352142 0
M  V30 12 C 2.352422 4.266603 1.695820 0
M  V30 13 C 1.918419 5.271987 2.558534 0
M  V30 14 C 0.619474 5.294207 3.081597 0
M  V30 15 C -0.256725 4.289153 2.731349 0
M  V30 16 C 0.160851 3.299253 1.885823 0
M  V30 17 C -0.654959 2.174705 1.430026 0
M  V30 18 O -0.294644 1.221979 0.655466 0
M  V30 19 N -1.992129 2.033373 1.828549 0
M  V30 20 C -2.544102 0.820371 1.217706 0
M  V30 21 N -3.117079 0.684989 0.125608 0
M  V30 22 C -3.568782 -0.475431 -0.305409 0
M  V30 23 C -3.367779 -1.613525 0.560024 0
M  V30 24 S -2.514261 -0.828863 1.950057 0
M  V30 25 C -3.950015 -2.885256 -0.106680 0
M  V30 26 C -3.235408 -3.035723 -1.417872 0 CFG=1
M  V30 27 N -3.585488 -4.196663 -2.137950 0
M  V30 28 C -3.512274 -5.437363 -1.417311 0
M  V30 29 C -4.178507 -6.479780 -2.332436 0
M  V30 30 O -3.551509 -6.524159 -3.556304 0
M  V30 31 C -3.739011 -5.298560 -4.230739 0
M  V30 32 C -2.945121 -4.290622 -3.431117 0
M  V30 33 C -3.544212 -1.827898 -2.317721 0
M  V30 34 C -4.276396 -0.735258 -1.583157 0
M  V30 35 C 1.435316 3.268625 1.366427 0
M  V30 36 C 5.359842 -0.546714 1.866496 0
M  V30 37 C 5.615303 -1.834882 2.273391 0
M  V30 38 H 3.800621 -1.683758 5.087529 0
M  V30 39 H 3.404223 0.549076 4.307127 0
M  V30 40 H 3.703488 2.285969 2.756374 0
M  V30 41 H 4.141823 3.779458 -0.545098 0
M  V30 42 H 5.497123 4.275370 0.555419 0
M  V30 43 H 2.480456 6.139565 2.936671 0
M  V30 44 H 0.227630 6.031482 3.743206 0
M  V30 45 H -1.265968 4.238716 3.091067 0
M  V30 46 H -2.461603 2.713002 2.458280 0
M  V30 47 H -5.009498 -2.678257 -0.204134 0
M  V30 48 H -3.688763 -3.709874 0.550110 0
M  V30 49 H -2.151550 -3.013999 -1.225164 0
M  V30 50 H -2.463980 -5.772216 -1.302847 0
M  V30 51 H -4.086018 -5.354508 -0.496532 0
M  V30 52 H -4.190370 -7.472485 -1.865484 0
M  V30 53 H -5.215456 -6.089908 -2.516437 0
M  V30 54 H -3.353183 -5.369594 -5.259878 0
M  V30 55 H -4.794741 -4.981283 -4.211919 0
M  V30 56 H -2.864466 -3.300990 -3.868955 0
M  V30 57 H -1.897842 -4.648276 -3.255029 0
M  V30 58 H -2.641225 -1.399796 -2.774571 0
M  V30 59 H -4.270825 -2.146964 -3.128755 0
M  V30 60 H -4.323229 0.121905 -2.251505 0
M  V30 61 H -5.351716 -1.025943 -1.389535 0
M  V30 62 H 1.913832 2.561597 0.692435 0
M  V30 63 H 5.826299 -0.266356 0.941271 0
M  V30 64 H 6.239534 -2.506720 1.698186 0
M  V30 END ATOM
M  V30 BEGIN BOND
M  V30 1 3 1 2
M  V30 2 1 2 3
M  V30 3 2 3 4
M  V30 4 1 4 5
M  V30 5 2 5 6
M  V30 6 1 6 7
M  V30 7 1 7 8
M  V30 8 2 8 9
M  V30 9 1 8 10
M  V30 10 1 10 11
M  V30 11 1 11 12
M  V30 12 2 12 13
M  V30 13 1 13 14
M  V30 14 2 14 15
M  V30 15 1 15 16
M  V30 16 1 16 17
M  V30 17 2 17 18
M  V30 18 1 17 19
M  V30 19 1 19 20
M  V30 20 2 20 21
M  V30 21 1 21 22
M  V30 22 2 22 23
M  V30 23 1 23 24
M  V30 24 1 23 25
M  V30 25 1 25 26
M  V30 26 1 26 27
M  V30 27 1 27 28
M  V30 28 1 28 29
M  V30 29 1 29 30
M  V30 30 1 30 31
M  V30 31 1 31 32
M  V30 32 1 26 33
M  V30 33 1 33 34
M  V30 34 2 16 35
M  V30 35 1 6 36
M  V30 36 2 36 37
M  V30 37 1 37 3
M  V30 38 1 35 12
M  V30 39 1 24 20
M  V30 40 1 32 27
M  V30 41 1 34 22
M  V30 42 1 4 38
M  V30 43 1 5 39
M  V30 44 1 7 40
M  V30 45 1 10 41
M  V30 46 1 10 42
M  V30 47 1 13 43
M  V30 48 1 14 44
M  V30 49 1 15 45
M  V30 50 1 19 46
M  V30 51 1 25 47
M  V30 52 1 25 48
M  V30 53 1 26 49 CFG=1
M  V30 54 1 28 50
M  V30 55 1 28 51
M  V30 56 1 29 52
M  V30 57 1 29 53
M  V30 58 1 31 54
M  V30 59 1 31 55
M  V30 60 1 32 56
M  V30 61 1 32 57
M  V30 62 1 33 58
M  V30 63 1 33 59
M  V30 64 1 34 60
M  V30 65 1 34 61
M  V30 66 1 35 62
M  V30 67 1 36 63
M  V30 68 1 37 64
M  V30 END BOND
M  V30 END CTAB
M  END
>  <Dataset>  (196) 
ChEMBL_Kinases

>  <Ligand_Instance>  (196) 
nan

>  <PDB_ID>  (196) 
nan

>  <Standardized_SMILES>  (196) 
N#Cc1ccc(NC(=O)COc2cccc(C(=O)Nc3nc4c(s3)C[C@@H](N3CCOCC3)CC4)c2)cc1

>  <Name>  (196) 
nan

>  <Pocket>  (196) 
nan

>  <ATP_Site>  (196) 
nan

>  <Peripheral>  (196) 
nan

>  <Num_H_Atoms_ProtBoundConf>  (196) 
nan

>  <Num_Resolved_Atoms>  (196) 
nan

>  <Num_Not_Resolved_Atoms>  (196) 
nan

$$$$
CHEMBL3700910
     RDKit          3D

  0  0  0  0  0  0  0  0  0  0999 V3000
M  V30 BEGIN CTAB
M  V30 COUNTS 60 63 0 0 0
M  V30 BEGIN ATOM
M  V30 1 C 1.674917 -1.838116 4.202275 0
M  V30 2 C 1.119149 -0.691252 5.021375 0
M  V30 3 C 0.289298 0.249849 4.213282 0 CFG=1
M  V30 4 N 1.071827 0.834903 3.138817 0
M  V30 5 C 1.361695 2.220537 2.961157 0
M  V30 6 O 0.939140 3.103283 3.767234 0
M  V30 7 N 2.142582 2.538923 1.839034 0
M  V30 8 C 2.511544 3.883002 1.533899 0
M  V30 9 C 1.587341 4.506255 0.722354 0
M  V30 10 C 1.749950 5.810693 0.306584 0
M  V30 11 C 2.891328 6.476308 0.741890 0
M  V30 12 C 3.097916 7.838546 0.330108 0
M  V30 13 N 3.270337 8.932245 -0.020182 0
M  V30 14 C 3.819849 5.857907 1.554166 0
M  V30 15 C 3.642278 4.546059 1.963716 0
M  V30 16 C -0.925641 -0.310117 3.628715 0
M  V30 17 C -2.176566 -0.121456 4.195335 0
M  V30 18 C -3.389563 -0.590884 3.748258 0
M  V30 19 C -3.326946 -1.347592 2.578414 0
M  V30 20 C -2.108959 -1.591383 1.934869 0
M  V30 21 C -2.150762 -2.394199 0.717413 0
M  V30 22 O -3.273148 -2.811828 0.331964 0
M  V30 23 N -0.999491 -2.708177 -0.021763 0
M  V30 24 C -0.990278 -3.496750 -1.229069 0
M  V30 25 N -1.099332 -3.202570 -2.473295 0
M  V30 26 C -1.049040 -4.181396 -3.354090 0
M  V30 27 C -0.889535 -5.465111 -3.004621 0
M  V30 28 S -0.786760 -5.389857 -1.225389 0
M  V30 29 C -0.832423 -6.597146 -3.994908 0
M  V30 30 N -1.708400 -6.147315 -5.089701 0
M  V30 31 C -2.993626 -5.905510 -4.490043 0
M  V30 32 C -1.071623 -4.985145 -5.620339 0
M  V30 33 C -1.183844 -3.753141 -4.794114 0
M  V30 34 C -0.952127 -1.077187 2.462846 0
M  V30 35 H 2.339424 -2.486426 4.808787 0
M  V30 36 H 2.278524 -1.527709 3.337871 0
M  V30 37 H 0.873017 -2.506783 3.828948 0
M  V30 38 H 0.624257 -1.105501 5.895792 0
M  V30 39 H 2.000567 -0.115588 5.377980 0
M  V30 40 H -0.034792 1.091624 4.860539 0
M  V30 41 H 1.421118 0.107431 2.472648 0
M  V30 42 H 2.505869 1.836341 1.156576 0
M  V30 43 H 0.664619 4.055449 0.336010 0
M  V30 44 H 1.051467 6.345185 -0.331789 0
M  V30 45 H 4.700370 6.338368 1.903057 0
M  V30 46 H 4.295940 3.958219 2.595834 0
M  V30 47 H -2.200922 0.478915 5.117836 0
M  V30 48 H -4.289330 -0.371091 4.284294 0
M  V30 49 H -4.277409 -1.729330 2.206859 0
M  V30 50 H -0.055234 -2.378721 0.269115 0
M  V30 51 H 0.190300 -6.771977 -4.363779 0
M  V30 52 H -1.244109 -7.523073 -3.542465 0
M  V30 53 H -3.779205 -6.641714 -4.823781 0
M  V30 54 H -3.425903 -4.911884 -4.752355 0
M  V30 55 H -2.989629 -5.980326 -3.371678 0
M  V30 56 H -1.456049 -4.833124 -6.661831 0
M  V30 57 H 0.009509 -5.241321 -5.770138 0
M  V30 58 H -2.148130 -3.289329 -5.014966 0
M  V30 59 H -0.351912 -3.074364 -5.102880 0
M  V30 60 H -0.006769 -1.260607 1.972194 0
M  V30 END ATOM
M  V30 BEGIN BOND
M  V30 1 1 1 2
M  V30 2 1 2 3
M  V30 3 1 3 4
M  V30 4 1 4 5
M  V30 5 2 5 6
M  V30 6 1 5 7
M  V30 7 1 7 8
M  V30 8 2 8 9
M  V30 9 1 9 10
M  V30 10 2 10 11
M  V30 11 1 11 12
M  V30 12 3 12 13
M  V30 13 1 11 14
M  V30 14 2 14 15
M  V30 15 1 3 16
M  V30 16 2 16 17
M  V30 17 1 17 18
M  V30 18 2 18 19
M  V30 19 1 19 20
M  V30 20 1 20 21
M  V30 21 2 21 22
M  V30 22 1 21 23
M  V30 23 1 23 24
M  V30 24 2 24 25
M  V30 25 1 25 26
M  V30 26 2 26 27
M  V30 27 1 27 28
M  V30 28 1 27 29
M  V30 29 1 29 30
M  V30 30 1 30 31
M  V30 31 1 30 32
M  V30 32 1 32 33
M  V30 33 2 20 34
M  V30 34 1 15 8
M  V30 35 1 34 16
M  V30 36 1 28 24
M  V30 37 1 33 26
M  V30 38 1 1 35
M  V30 39 1 1 36
M  V30 40 1 1 37
M  V30 41 1 2 38
M  V30 42 1 2 39
M  V30 43 1 3 40 CFG=1
M  V30 44 1 4 41
M  V30 45 1 7 42
M  V30 46 1 9 43
M  V30 47 1 10 44
M  V30 48 1 14 45
M  V30 49 1 15 46
M  V30 50 1 17 47
M  V30 51 1 18 48
M  V30 52 1 19 49
M  V30 53 1 23 50
M  V30 54 1 29 51
M  V30 55 1 29 52
M  V30 56 1 31 53
M  V30 57 1 31 54
M  V30 58 1 31 55
M  V30 59 1 32 56
M  V30 60 1 32 57
M  V30 61 1 33 58
M  V30 62 1 33 59
M  V30 63 1 34 60
M  V30 END BOND
M  V30 END CTAB
M  END
>  <Dataset>  (197) 
ChEMBL_Kinases

>  <Ligand_Instance>  (197) 
nan

>  <PDB_ID>  (197) 
nan

>  <Standardized_SMILES>  (197) 
CC[C@@H](NC(=O)Nc1ccc(C#N)cc1)c1cccc(C(=O)Nc2nc3c(s2)CN(C)CC3)c1

>  <Name>  (197) 
nan

>  <Pocket>  (197) 
nan

>  <ATP_Site>  (197) 
nan

>  <Peripheral>  (197) 
nan

>  <Num_H_Atoms_ProtBoundConf>  (197) 
nan

>  <Num_Resolved_Atoms>  (197) 
nan

>  <Num_Not_Resolved_Atoms>  (197) 
nan

$$$$
CHEMBL3700909
     RDKit          3D

  0  0  0  0  0  0  0  0  0  0999 V3000
M  V30 BEGIN CTAB
M  V30 COUNTS 53 56 0 0 0
M  V30 BEGIN ATOM
M  V30 1 N 5.728815 -2.597610 2.938108 0
M  V30 2 C 5.234886 -1.891584 2.132507 0
M  V30 3 C 4.629632 -1.010573 1.165255 0
M  V30 4 C 5.413072 0.061543 0.796219 0
M  V30 5 C 4.864538 0.949997 -0.139404 0
M  V30 6 C 3.587969 0.675503 -0.611467 0
M  V30 7 N 3.166714 1.689783 -1.555746 0
M  V30 8 C 2.545897 2.638116 -0.721412 0
M  V30 9 O 2.619016 2.200770 0.478217 0
M  V30 10 C 1.893505 3.942574 -1.077174 0
M  V30 11 O 1.397915 4.549109 0.109760 0
M  V30 12 C 0.397254 3.942264 0.870682 0
M  V30 13 C -0.053416 4.514324 2.035781 0
M  V30 14 C -1.038187 3.902938 2.766835 0
M  V30 15 C -1.623005 2.697240 2.379600 0
M  V30 16 C -1.157071 2.152270 1.218504 0
M  V30 17 C -1.700016 0.872976 0.703926 0
M  V30 18 O -1.370934 0.390385 -0.428608 0
M  V30 19 N -2.632636 0.029164 1.366266 0
M  V30 20 C -3.114987 -1.223079 0.732271 0
M  V30 21 N -3.486828 -2.192382 0.242624 0
M  V30 22 C -3.269141 -3.411505 0.110536 0
M  V30 23 C -2.088018 -3.816938 0.851993 0
M  V30 24 S -1.645282 -2.171651 1.550981 0
M  V30 25 C -1.647153 -5.222728 0.844456 0
M  V30 26 C -2.928595 -6.055954 0.813629 0 CFG=1
M  V30 27 N -3.742727 -5.570191 1.928316 0
M  V30 28 C -3.642083 -5.758401 -0.451523 0
M  V30 29 C -4.077833 -4.367500 -0.688093 0
M  V30 30 C -0.164766 2.730637 0.445260 0
M  V30 31 C 2.831346 -0.408283 -0.221060 0
M  V30 32 C 3.367120 -1.283117 0.698611 0
M  V30 33 H 6.406236 0.244707 1.185907 0
M  V30 34 H 5.474771 1.782730 -0.422690 0
M  V30 35 H 3.155169 1.943392 -2.591770 0
M  V30 36 H 1.103004 3.786569 -1.824304 0
M  V30 37 H 2.664078 4.616522 -1.489356 0
M  V30 38 H 0.369444 5.440460 2.366417 0
M  V30 39 H -1.427967 4.321030 3.700208 0
M  V30 40 H -2.397140 2.230260 2.967295 0
M  V30 41 H -2.940629 0.360837 2.311287 0
M  V30 42 H -1.001832 -5.390877 -0.018764 0
M  V30 43 H -1.063668 -5.421439 1.761596 0
M  V30 44 H -2.719067 -7.128964 0.876177 0
M  V30 45 H -3.867808 -6.310912 2.658586 0
M  V30 46 H -4.658964 -5.193737 1.586425 0
M  V30 47 H -4.502274 -6.453284 -0.582620 0
M  V30 48 H -2.955454 -6.031291 -1.308021 0
M  V30 49 H -5.164008 -4.304898 -0.490766 0
M  V30 50 H -3.968233 -4.050885 -1.768612 0
M  V30 51 H 0.137865 2.224901 -0.483162 0
M  V30 52 H 1.850913 -0.505825 -0.666124 0
M  V30 53 H 2.796629 -2.131374 1.014046 0
M  V30 END ATOM
M  V30 BEGIN BOND
M  V30 1 3 1 2
M  V30 2 1 2 3
M  V30 3 2 3 4
M  V30 4 1 4 5
M  V30 5 2 5 6
M  V30 6 1 6 7
M  V30 7 1 7 8
M  V30 8 2 8 9
M  V30 9 1 8 10
M  V30 10 1 10 11
M  V30 11 1 11 12
M  V30 12 2 12 13
M  V30 13 1 13 14
M  V30 14 2 14 15
M  V30 15 1 15 16
M  V30 16 1 16 17
M  V30 17 2 17 18
M  V30 18 1 17 19
M  V30 19 1 19 20
M  V30 20 2 20 21
M  V30 21 1 21 22
M  V30 22 2 22 23
M  V30 23 1 23 24
M  V30 24 1 23 25
M  V30 25 1 25 26
M  V30 26 1 26 27
M  V30 27 1 26 28
M  V30 28 1 28 29
M  V30 29 2 16 30
M  V30 30 1 6 31
M  V30 31 2 31 32
M  V30 32 1 32 3
M  V30 33 1 30 12
M  V30 34 1 24 20
M  V30 35 1 29 22
M  V30 36 1 4 33
M  V30 37 1 5 34
M  V30 38 1 7 35
M  V30 39 1 10 36
M  V30 40 1 10 37
M  V30 41 1 13 38
M  V30 42 1 14 39
M  V30 43 1 15 40
M  V30 44 1 19 41
M  V30 45 1 25 42
M  V30 46 1 25 43
M  V30 47 1 26 44 CFG=1
M  V30 48 1 27 45
M  V30 49 1 27 46
M  V30 50 1 28 47
M  V30 51 1 28 48
M  V30 52 1 29 49
M  V30 53 1 29 50
M  V30 54 1 30 51
M  V30 55 1 31 52
M  V30 56 1 32 53
M  V30 END BOND
M  V30 END CTAB
M  END
>  <Dataset>  (198) 
ChEMBL_Kinases

>  <Ligand_Instance>  (198) 
nan

>  <PDB_ID>  (198) 
nan

>  <Standardized_SMILES>  (198) 
N#Cc1ccc(NC(=O)COc2cccc(C(=O)Nc3nc4c(s3)C[C@@H](N)CC4)c2)cc1

>  <Name>  (198) 
nan

>  <Pocket>  (198) 
nan

>  <ATP_Site>  (198) 
nan

>  <Peripheral>  (198) 
nan

>  <Num_H_Atoms_ProtBoundConf>  (198) 
nan

>  <Num_Resolved_Atoms>  (198) 
nan

>  <Num_Not_Resolved_Atoms>  (198) 
nan

$$$$
CHEMBL3700908
     RDKit          3D

  0  0  0  0  0  0  0  0  0  0999 V3000
M  V30 BEGIN CTAB
M  V30 COUNTS 60 63 0 0 0
M  V30 BEGIN ATOM
M  V30 1 C 1.608710 -1.350717 4.433586 0
M  V30 2 C 0.897446 -0.171103 5.043177 0
M  V30 3 C 0.159937 0.638456 4.034857 0 CFG=1
M  V30 4 N 0.996198 1.199333 2.989635 0
M  V30 5 C 1.232890 2.565918 2.649875 0
M  V30 6 O 0.649066 3.439219 3.330768 0
M  V30 7 N 2.117152 2.779086 1.561531 0
M  V30 8 C 2.399550 4.113837 1.164111 0
M  V30 9 C 1.566480 4.653410 0.204790 0
M  V30 10 C 1.787765 5.960503 -0.230226 0
M  V30 11 C 2.819921 6.726345 0.275983 0
M  V30 12 C 3.639579 6.142005 1.245244 0
M  V30 13 C 4.734211 6.872998 1.820992 0
M  V30 14 N 5.619449 7.475790 2.270979 0
M  V30 15 C 3.431316 4.850109 1.684206 0
M  V30 16 C -0.956573 -0.108378 3.384460 0
M  V30 17 C -2.257177 0.031964 3.879364 0
M  V30 18 C -3.369776 -0.600736 3.368224 0
M  V30 19 C -3.189665 -1.441669 2.279716 0
M  V30 20 C -1.914494 -1.593476 1.776730 0
M  V30 21 C -1.779713 -2.488499 0.634250 0
M  V30 22 O -2.810142 -3.077327 0.184987 0
M  V30 23 N -0.572354 -2.780792 -0.053123 0
M  V30 24 C -0.634993 -3.708727 -1.181178 0
M  V30 25 N -0.833641 -3.484372 -2.357445 0
M  V30 26 C -0.861263 -4.429448 -3.270775 0
M  V30 27 C -0.654798 -5.740121 -2.876177 0
M  V30 28 S -0.411332 -5.615957 -1.128103 0
M  V30 29 C -0.711708 -6.724036 -4.016464 0
M  V30 30 N -2.039394 -6.567443 -4.583066 0
M  V30 31 C -3.055002 -6.634763 -3.550811 0
M  V30 32 C -2.083193 -5.298137 -5.240672 0
M  V30 33 C -1.089712 -4.299081 -4.724826 0
M  V30 34 C -0.807021 -0.955736 2.295418 0
M  V30 35 H 2.306819 -0.989703 3.652674 0
M  V30 36 H 0.898829 -2.060820 3.957980 0
M  V30 37 H 2.178011 -1.933323 5.185856 0
M  V30 38 H 0.203122 -0.442229 5.837753 0
M  V30 39 H 1.665889 0.490218 5.496450 0
M  V30 40 H -0.301482 1.507228 4.566068 0
M  V30 41 H 1.449290 0.418985 2.461061 0
M  V30 42 H 2.561347 1.982903 1.049904 0
M  V30 43 H 0.729572 4.154263 -0.264269 0
M  V30 44 H 1.179642 6.470870 -0.985706 0
M  V30 45 H 3.010127 7.751115 -0.051347 0
M  V30 46 H 4.056132 4.370029 2.440346 0
M  V30 47 H -2.370670 0.704790 4.741700 0
M  V30 48 H -4.319159 -0.401429 3.850163 0
M  V30 49 H -4.066792 -1.931305 1.888604 0
M  V30 50 H 0.288002 -2.321860 0.279933 0
M  V30 51 H -0.571992 -7.754442 -3.637535 0
M  V30 52 H 0.025246 -6.483728 -4.788998 0
M  V30 53 H -3.987497 -7.130092 -3.930946 0
M  V30 54 H -3.385339 -5.616488 -3.215249 0
M  V30 55 H -2.715408 -7.267866 -2.694850 0
M  V30 56 H -3.138010 -4.931655 -5.142778 0
M  V30 57 H -1.944918 -5.497359 -6.328669 0
M  V30 58 H -1.477479 -3.294754 -5.027770 0
M  V30 59 H -0.132336 -4.435514 -5.268232 0
M  V30 60 H 0.188008 -1.081251 1.892710 0
M  V30 END ATOM
M  V30 BEGIN BOND
M  V30 1 1 1 2
M  V30 2 1 2 3
M  V30 3 1 3 4
M  V30 4 1 4 5
M  V30 5 2 5 6
M  V30 6 1 5 7
M  V30 7 1 7 8
M  V30 8 2 8 9
M  V30 9 1 9 10
M  V30 10 2 10 11
M  V30 11 1 11 12
M  V30 12 1 12 13
M  V30 13 3 13 14
M  V30 14 2 12 15
M  V30 15 1 3 16
M  V30 16 2 16 17
M  V30 17 1 17 18
M  V30 18 2 18 19
M  V30 19 1 19 20
M  V30 20 1 20 21
M  V30 21 2 21 22
M  V30 22 1 21 23
M  V30 23 1 23 24
M  V30 24 2 24 25
M  V30 25 1 25 26
M  V30 26 2 26 27
M  V30 27 1 27 28
M  V30 28 1 27 29
M  V30 29 1 29 30
M  V30 30 1 30 31
M  V30 31 1 30 32
M  V30 32 1 32 33
M  V30 33 2 20 34
M  V30 34 1 15 8
M  V30 35 1 34 16
M  V30 36 1 28 24
M  V30 37 1 33 26
M  V30 38 1 1 35
M  V30 39 1 1 36
M  V30 40 1 1 37
M  V30 41 1 2 38
M  V30 42 1 2 39
M  V30 43 1 3 40 CFG=1
M  V30 44 1 4 41
M  V30 45 1 7 42
M  V30 46 1 9 43
M  V30 47 1 10 44
M  V30 48 1 11 45
M  V30 49 1 15 46
M  V30 50 1 17 47
M  V30 51 1 18 48
M  V30 52 1 19 49
M  V30 53 1 23 50
M  V30 54 1 29 51
M  V30 55 1 29 52
M  V30 56 1 31 53
M  V30 57 1 31 54
M  V30 58 1 31 55
M  V30 59 1 32 56
M  V30 60 1 32 57
M  V30 61 1 33 58
M  V30 62 1 33 59
M  V30 63 1 34 60
M  V30 END BOND
M  V30 END CTAB
M  END
>  <Dataset>  (199) 
ChEMBL_Kinases

>  <Ligand_Instance>  (199) 
nan

>  <PDB_ID>  (199) 
nan

>  <Standardized_SMILES>  (199) 
CC[C@@H](NC(=O)Nc1cccc(C#N)c1)c1cccc(C(=O)Nc2nc3c(s2)CN(C)CC3)c1

>  <Name>  (199) 
nan

>  <Pocket>  (199) 
nan

>  <ATP_Site>  (199) 
nan

>  <Peripheral>  (199) 
nan

>  <Num_H_Atoms_ProtBoundConf>  (199) 
nan

>  <Num_Resolved_Atoms>  (199) 
nan

>  <Num_Not_Resolved_Atoms>  (199) 
nan

$$$$
CHEMBL3700907
     RDKit          3D

  0  0  0  0  0  0  0  0  0  0999 V3000
M  V30 BEGIN CTAB
M  V30 COUNTS 59 62 0 0 0
M  V30 BEGIN ATOM
M  V30 1 C 6.667836 -1.721810 3.434427 0
M  V30 2 N 6.102263 -0.387140 3.476660 0
M  V30 3 C 5.816061 -0.004480 4.840159 0
M  V30 4 C 4.947116 -0.268325 2.611250 0 CFG=1
M  V30 5 C 3.878325 -1.231124 3.052112 0
M  V30 6 C 2.552787 -0.559722 3.297861 0
M  V30 7 C 2.178006 0.267437 2.092997 0
M  V30 8 N 1.065535 0.290531 1.388070 0
M  V30 9 C 0.959133 1.079662 0.389874 0
M  V30 10 N -0.363955 0.996107 -0.318796 0
M  V30 11 C -1.253289 1.911453 0.263055 0
M  V30 12 O -0.842664 2.616302 1.221359 0
M  V30 13 C -2.630566 2.080475 -0.194056 0
M  V30 14 C -3.436288 3.007729 0.436719 0
M  V30 15 C -4.751090 3.231988 0.069676 0
M  V30 16 C -5.237360 2.462765 -0.989379 0
M  V30 17 C -4.460427 1.527549 -1.642170 0
M  V30 18 O -5.094927 0.866009 -2.653482 0
M  V30 19 C -4.609166 -0.122264 -3.496989 0
M  V30 20 C -4.186048 -1.291135 -2.693400 0
M  V30 21 O -4.159950 -1.598021 -1.472900 0
M  V30 22 N -3.656604 -2.402204 -3.440338 0
M  V30 23 C -3.252414 -3.525559 -2.642384 0
M  V30 24 C -4.072958 -4.579829 -2.292953 0
M  V30 25 C -3.513427 -5.576470 -1.518287 0
M  V30 26 C -2.205737 -5.572006 -1.085771 0
M  V30 27 C -1.673379 -6.647686 -0.273434 0
M  V30 28 N -1.253596 -7.521288 0.378402 0
M  V30 29 C -1.411991 -4.494362 -1.457882 0
M  V30 30 C -1.950684 -3.469171 -2.242479 0
M  V30 31 C -3.152746 1.350283 -1.227479 0
M  V30 32 S 2.458816 1.930495 0.296990 0
M  V30 33 C 3.237321 1.135992 1.710863 0
M  V30 34 C 4.514645 1.147798 2.476530 0
M  V30 35 H 7.775203 -1.727201 3.573243 0
M  V30 36 H 6.463976 -2.255111 2.483155 0
M  V30 37 H 6.185374 -2.294296 4.264729 0
M  V30 38 H 4.881669 0.533779 4.991520 0
M  V30 39 H 6.689515 0.559978 5.223365 0
M  V30 40 H 5.728123 -0.938796 5.445485 0
M  V30 41 H 5.313215 -0.611127 1.600943 0
M  V30 42 H 4.175724 -1.749855 3.985858 0
M  V30 43 H 3.695057 -2.029373 2.299238 0
M  V30 44 H 2.532650 0.087287 4.172101 0
M  V30 45 H 1.799673 -1.357377 3.456236 0
M  V30 46 H -0.638403 0.397674 -1.099175 0
M  V30 47 H -3.019651 3.594252 1.265712 0
M  V30 48 H -5.360969 3.972985 0.589988 0
M  V30 49 H -6.278828 2.683934 -1.233061 0
M  V30 50 H -3.791465 0.234941 -4.169995 0
M  V30 51 H -5.444771 -0.439563 -4.160852 0
M  V30 52 H -3.533964 -2.486462 -4.475313 0
M  V30 53 H -5.084719 -4.556835 -2.643353 0
M  V30 54 H -4.141370 -6.406860 -1.237082 0
M  V30 55 H -0.379733 -4.482681 -1.120763 0
M  V30 56 H -1.236459 -2.688610 -2.466056 0
M  V30 57 H -2.573413 0.627081 -1.743348 0
M  V30 58 H 5.241628 1.655884 1.809876 0
M  V30 59 H 4.462230 1.731436 3.402267 0
M  V30 END ATOM
M  V30 BEGIN BOND
M  V30 1 1 1 2
M  V30 2 1 2 3
M  V30 3 1 2 4
M  V30 4 1 4 5
M  V30 5 1 5 6
M  V30 6 1 6 7
M  V30 7 1 7 8
M  V30 8 2 8 9
M  V30 9 1 9 10
M  V30 10 1 10 11
M  V30 11 2 11 12
M  V30 12 1 11 13
M  V30 13 2 13 14
M  V30 14 1 14 15
M  V30 15 2 15 16
M  V30 16 1 16 17
M  V30 17 1 17 18
M  V30 18 1 18 19
M  V30 19 1 19 20
M  V30 20 2 20 21
M  V30 21 1 20 22
M  V30 22 1 22 23
M  V30 23 2 23 24
M  V30 24 1 24 25
M  V30 25 2 25 26
M  V30 26 1 26 27
M  V30 27 3 27 28
M  V30 28 1 26 29
M  V30 29 2 29 30
M  V30 30 2 17 31
M  V30 31 1 9 32
M  V30 32 1 32 33
M  V30 33 1 33 34
M  V30 34 1 34 4
M  V30 35 2 33 7
M  V30 36 1 31 13
M  V30 37 1 30 23
M  V30 38 1 1 35
M  V30 39 1 1 36
M  V30 40 1 1 37
M  V30 41 1 3 38
M  V30 42 1 3 39
M  V30 43 1 3 40
M  V30 44 1 4 41 CFG=3
M  V30 45 1 5 42
M  V30 46 1 5 43
M  V30 47 1 6 44
M  V30 48 1 6 45
M  V30 49 1 10 46
M  V30 50 1 14 47
M  V30 51 1 15 48
M  V30 52 1 16 49
M  V30 53 1 19 50
M  V30 54 1 19 51
M  V30 55 1 22 52
M  V30 56 1 24 53
M  V30 57 1 25 54
M  V30 58 1 29 55
M  V30 59 1 30 56
M  V30 60 1 31 57
M  V30 61 1 34 58
M  V30 62 1 34 59
M  V30 END BOND
M  V30 END CTAB
M  END
>  <Dataset>  (200) 
ChEMBL_Kinases

>  <Ligand_Instance>  (200) 
nan

>  <PDB_ID>  (200) 
nan

>  <Standardized_SMILES>  (200) 
CN(C)[C@H]1CCc2nc(NC(=O)c3cccc(OCC(=O)Nc4ccc(C#N)cc4)c3)sc2C1

>  <Name>  (200) 
nan

>  <Pocket>  (200) 
nan

>  <ATP_Site>  (200) 
nan

>  <Peripheral>  (200) 
nan

>  <Num_H_Atoms_ProtBoundConf>  (200) 
nan

>  <Num_Resolved_Atoms>  (200) 
nan

>  <Num_Not_Resolved_Atoms>  (200) 
nan

$$$$
CHEMBL3700906
     RDKit          3D

  0  0  0  0  0  0  0  0  0  0999 V3000
M  V30 BEGIN CTAB
M  V30 COUNTS 67 70 0 0 0
M  V30 BEGIN ATOM
M  V30 1 C 4.195352 -1.621343 3.432704 0
M  V30 2 C 4.475937 -1.517417 1.927627 0
M  V30 3 C 3.148921 -1.274266 1.268196 0
M  V30 4 C 3.255849 -1.145670 -0.236850 0
M  V30 5 C 1.900706 -0.901578 -0.860062 0 CFG=1
M  V30 6 N 2.045882 -0.782964 -2.314087 0
M  V30 7 C 1.782605 0.447464 -2.974430 0
M  V30 8 O 1.419594 1.434080 -2.264039 0
M  V30 9 C 1.926776 0.567713 -4.425561 0
M  V30 10 C 2.313541 -0.433792 -5.291946 0
M  V30 11 C 2.403914 -0.161868 -6.655793 0
M  V30 12 C 2.121228 1.078310 -7.189304 0
M  V30 13 O 2.216988 1.328924 -8.548031 0
M  V30 14 C 2.618431 0.284173 -9.435118 0
M  V30 15 C 1.732697 2.096240 -6.346521 0
M  V30 16 Cl 1.356960 3.698343 -6.951677 0
M  V30 17 C 1.654757 1.791867 -5.009404 0
M  V30 18 C 0.925998 -1.964159 -0.492204 0
M  V30 19 C 0.997385 -3.185070 -1.131517 0
M  V30 20 C 0.100039 -4.190399 -0.806569 0
M  V30 21 C -0.861747 -3.928407 0.173279 0
M  V30 22 C -0.961179 -2.714435 0.834149 0
M  V30 23 C -1.998583 -2.521787 1.845657 0
M  V30 24 O -2.743936 -3.514759 2.051374 0
M  V30 25 N -2.098784 -1.281998 2.505332 0
M  V30 26 C -3.108122 -0.988228 3.537434 0
M  V30 27 N -2.961075 -1.176279 4.784556 0
M  V30 28 C -3.935177 -0.876267 5.618554 0
M  V30 29 C -5.156495 -0.333045 5.056167 0
M  V30 30 S -4.747773 -0.315422 3.326444 0
M  V30 31 C -6.233103 -0.008551 6.044971 0
M  V30 32 N -5.628896 0.913265 6.976192 0
M  V30 33 C -5.224686 2.140493 6.316923 0
M  V30 34 C -4.465557 0.372891 7.632820 0
M  V30 35 C -4.065950 -0.980380 7.118153 0
M  V30 36 C -0.036475 -1.759734 0.461068 0
M  V30 37 H 3.322148 -2.254385 3.634921 0
M  V30 38 H 3.923556 -0.600394 3.790116 0
M  V30 39 H 5.062404 -2.022049 3.991959 0
M  V30 40 H 5.162977 -0.677505 1.747062 0
M  V30 41 H 4.984351 -2.444764 1.598473 0
M  V30 42 H 2.452129 -2.105788 1.519263 0
M  V30 43 H 2.780479 -0.301428 1.654868 0
M  V30 44 H 3.802592 -1.957064 -0.724818 0
M  V30 45 H 3.842296 -0.208623 -0.436589 0
M  V30 46 H 1.577859 0.100527 -0.509960 0
M  V30 47 H 2.348269 -1.639634 -2.829254 0
M  V30 48 H 2.528195 -1.394550 -4.846301 0
M  V30 49 H 2.716145 -0.987508 -7.313578 0
M  V30 50 H 1.778349 -0.417808 -9.611121 0
M  V30 51 H 3.517952 -0.200348 -9.017158 0
M  V30 52 H 2.876956 0.744048 -10.432104 0
M  V30 53 H 1.341526 2.629725 -4.368682 0
M  V30 54 H 1.728518 -3.416139 -1.891673 0
M  V30 55 H 0.151358 -5.153568 -1.306720 0
M  V30 56 H -1.534635 -4.770469 0.375675 0
M  V30 57 H -1.498458 -0.467141 2.347516 0
M  V30 58 H -7.007537 0.512056 5.479804 0
M  V30 59 H -6.584455 -0.886695 6.585213 0
M  V30 60 H -5.038547 2.890485 7.114769 0
M  V30 61 H -6.089600 2.473057 5.708792 0
M  V30 62 H -4.314500 1.995955 5.713663 0
M  V30 63 H -3.588050 1.042516 7.566860 0
M  V30 64 H -4.715795 0.259578 8.707847 0
M  V30 65 H -4.747824 -1.801808 7.405773 0
M  V30 66 H -3.064158 -1.204844 7.533709 0
M  V30 67 H -0.069760 -0.811597 0.937959 0
M  V30 END ATOM
M  V30 BEGIN BOND
M  V30 1 1 1 2
M  V30 2 1 2 3
M  V30 3 1 3 4
M  V30 4 1 4 5
M  V30 5 1 5 6
M  V30 6 1 6 7
M  V30 7 2 7 8
M  V30 8 1 7 9
M  V30 9 2 9 10
M  V30 10 1 10 11
M  V30 11 2 11 12
M  V30 12 1 12 13
M  V30 13 1 13 14
M  V30 14 1 12 15
M  V30 15 1 15 16
M  V30 16 2 15 17
M  V30 17 1 5 18
M  V30 18 2 18 19
M  V30 19 1 19 20
M  V30 20 2 20 21
M  V30 21 1 21 22
M  V30 22 1 22 23
M  V30 23 2 23 24
M  V30 24 1 23 25
M  V30 25 1 25 26
M  V30 26 2 26 27
M  V30 27 1 27 28
M  V30 28 2 28 29
M  V30 29 1 29 30
M  V30 30 1 29 31
M  V30 31 1 31 32
M  V30 32 1 32 33
M  V30 33 1 32 34
M  V30 34 1 34 35
M  V30 35 2 22 36
M  V30 36 1 17 9
M  V30 37 1 36 18
M  V30 38 1 30 26
M  V30 39 1 35 28
M  V30 40 1 1 37
M  V30 41 1 1 38
M  V30 42 1 1 39
M  V30 43 1 2 40
M  V30 44 1 2 41
M  V30 45 1 3 42
M  V30 46 1 3 43
M  V30 47 1 4 44
M  V30 48 1 4 45
M  V30 49 1 5 46 CFG=1
M  V30 50 1 6 47
M  V30 51 1 10 48
M  V30 52 1 11 49
M  V30 53 1 14 50
M  V30 54 1 14 51
M  V30 55 1 14 52
M  V30 56 1 17 53
M  V30 57 1 19 54
M  V30 58 1 20 55
M  V30 59 1 21 56
M  V30 60 1 25 57
M  V30 61 1 31 58
M  V30 62 1 31 59
M  V30 63 1 33 60
M  V30 64 1 33 61
M  V30 65 1 33 62
M  V30 66 1 34 63
M  V30 67 1 34 64
M  V30 68 1 35 65
M  V30 69 1 35 66
M  V30 70 1 36 67
M  V30 END BOND
M  V30 END CTAB
M  END
>  <Dataset>  (201) 
ChEMBL_Kinases

>  <Ligand_Instance>  (201) 
nan

>  <PDB_ID>  (201) 
nan

>  <Standardized_SMILES>  (201) 
CCCC[C@@H](NC(=O)c1ccc(OC)c(Cl)c1)c1cccc(C(=O)Nc2nc3c(s2)CN(C)CC3)c1

>  <Name>  (201) 
nan

>  <Pocket>  (201) 
nan

>  <ATP_Site>  (201) 
nan

>  <Peripheral>  (201) 
nan

>  <Num_H_Atoms_ProtBoundConf>  (201) 
nan

>  <Num_Resolved_Atoms>  (201) 
nan

>  <Num_Not_Resolved_Atoms>  (201) 
nan

$$$$
CHEMBL3700905
     RDKit          3D

  0  0  0  0  0  0  0  0  0  0999 V3000
M  V30 BEGIN CTAB
M  V30 COUNTS 61 65 0 0 0
M  V30 BEGIN ATOM
M  V30 1 C 7.085073 -2.124614 5.558791 0
M  V30 2 N 6.235585 -1.780480 4.455711 0
M  V30 3 C 6.750534 -0.661971 3.717961 0
M  V30 4 C 6.045435 -0.412232 2.426236 0
M  V30 5 C 4.585954 -0.241455 2.757909 0
M  V30 6 N 3.627276 0.359903 2.093500 0
M  V30 7 C 2.534556 0.516855 2.288504 0
M  V30 8 N 1.525803 1.231927 1.445576 0
M  V30 9 C 0.778090 0.568592 0.460600 0
M  V30 10 O 0.971541 -0.662610 0.290526 0
M  V30 11 C -0.189860 1.327674 -0.324271 0
M  V30 12 C -0.451616 2.675721 -0.194632 0
M  V30 13 C -1.381882 3.339517 -0.966813 0
M  V30 14 C -2.060500 2.578448 -1.902169 0
M  V30 15 C -1.881017 1.225823 -2.118849 0
M  V30 16 N -2.591903 0.488298 -3.082320 0
M  V30 17 C -3.556179 1.176969 -3.925991 0
M  V30 18 C -3.866741 0.211009 -5.037860 0
M  V30 19 C -3.401895 -1.131814 -4.538638 0
M  V30 20 C -2.500044 -0.893689 -3.364123 0 CFG=2
M  V30 21 C -2.961688 -1.772685 -2.258711 0
M  V30 22 O -2.799530 -2.973743 -2.671717 0
M  V30 23 N -3.488996 -1.473602 -0.974343 0
M  V30 24 C -3.856299 -2.519868 -0.099076 0
M  V30 25 C -5.115642 -3.060887 -0.074439 0
M  V30 26 C -5.435833 -4.076520 0.790079 0
M  V30 27 C -4.466279 -4.564198 1.655320 0
M  V30 28 C -4.808065 -5.626754 2.556774 0
M  V30 29 N -5.068587 -6.488436 3.282566 0
M  V30 30 C -3.179602 -4.052993 1.671163 0
M  V30 31 C -2.905076 -3.025870 0.776730 0
M  V30 32 C -0.914909 0.649759 -1.283141 0
M  V30 33 S 2.422550 -0.395383 3.981309 0
M  V30 34 C 4.127839 -0.794318 3.954754 0
M  V30 35 C 4.914458 -1.557190 4.989217 0
M  V30 36 H 8.117821 -1.841192 5.332264 0
M  V30 37 H 6.957164 -3.199078 5.850529 0
M  V30 38 H 6.798970 -1.545480 6.484806 0
M  V30 39 H 6.779433 0.274971 4.337728 0
M  V30 40 H 7.816605 -0.876971 3.482620 0
M  V30 41 H 6.211492 -1.234205 1.723773 0
M  V30 42 H 6.471696 0.523330 1.995880 0
M  V30 43 H 1.467592 2.235486 1.687566 0
M  V30 44 H 0.097603 3.213274 0.539588 0
M  V30 45 H -1.563515 4.393028 -0.842302 0
M  V30 46 H -2.792050 3.120590 -2.502724 0
M  V30 47 H -3.160750 2.152317 -4.285350 0
M  V30 48 H -4.465261 1.417210 -3.324319 0
M  V30 49 H -3.309701 0.473301 -5.973191 0
M  V30 50 H -4.972079 0.208448 -5.252719 0
M  V30 51 H -4.308756 -1.727034 -4.230418 0
M  V30 52 H -2.857551 -1.699710 -5.348826 0
M  V30 53 H -1.461092 -1.144677 -3.680597 0
M  V30 54 H -3.545950 -0.463872 -0.824148 0
M  V30 55 H -5.892645 -2.699822 -0.737671 0
M  V30 56 H -6.436700 -4.476559 0.779628 0
M  V30 57 H -2.402663 -4.427000 2.347276 0
M  V30 58 H -1.903633 -2.617162 0.778521 0
M  V30 59 H -0.740423 -0.421735 -1.421254 0
M  V30 60 H 4.928287 -0.882055 5.893951 0
M  V30 61 H 4.415736 -2.475202 5.288685 0
M  V30 END ATOM
M  V30 BEGIN BOND
M  V30 1 1 1 2
M  V30 2 1 2 3
M  V30 3 1 3 4
M  V30 4 1 4 5
M  V30 5 1 5 6
M  V30 6 2 6 7
M  V30 7 1 7 8
M  V30 8 1 8 9
M  V30 9 2 9 10
M  V30 10 1 9 11
M  V30 11 2 11 12
M  V30 12 1 12 13
M  V30 13 2 13 14
M  V30 14 1 14 15
M  V30 15 1 15 16
M  V30 16 1 16 17
M  V30 17 1 17 18
M  V30 18 1 18 19
M  V30 19 1 19 20
M  V30 20 1 20 21
M  V30 21 2 21 22
M  V30 22 1 21 23
M  V30 23 1 23 24
M  V30 24 2 24 25
M  V30 25 1 25 26
M  V30 26 2 26 27
M  V30 27 1 27 28
M  V30 28 3 28 29
M  V30 29 1 27 30
M  V30 30 2 30 31
M  V30 31 2 15 32
M  V30 32 1 7 33
M  V30 33 1 33 34
M  V30 34 1 34 35
M  V30 35 1 35 2
M  V30 36 2 34 5
M  V30 37 1 32 11
M  V30 38 1 20 16
M  V30 39 1 31 24
M  V30 40 1 1 36
M  V30 41 1 1 37
M  V30 42 1 1 38
M  V30 43 1 3 39
M  V30 44 1 3 40
M  V30 45 1 4 41
M  V30 46 1 4 42
M  V30 47 1 8 43
M  V30 48 1 12 44
M  V30 49 1 13 45
M  V30 50 1 14 46
M  V30 51 1 17 47
M  V30 52 1 17 48
M  V30 53 1 18 49
M  V30 54 1 18 50
M  V30 55 1 19 51
M  V30 56 1 19 52
M  V30 57 1 20 53 CFG=3
M  V30 58 1 23 54
M  V30 59 1 25 55
M  V30 60 1 26 56
M  V30 61 1 30 57
M  V30 62 1 31 58
M  V30 63 1 32 59
M  V30 64 1 35 60
M  V30 65 1 35 61
M  V30 END BOND
M  V30 END CTAB
M  END
>  <Dataset>  (202) 
ChEMBL_Kinases

>  <Ligand_Instance>  (202) 
nan

>  <PDB_ID>  (202) 
nan

>  <Standardized_SMILES>  (202) 
CN1CCc2nc(NC(=O)c3cccc(N4CCC[C@@H]4C(=O)Nc4ccc(C#N)cc4)c3)sc2C1

>  <Name>  (202) 
nan

>  <Pocket>  (202) 
nan

>  <ATP_Site>  (202) 
nan

>  <Peripheral>  (202) 
nan

>  <Num_H_Atoms_ProtBoundConf>  (202) 
nan

>  <Num_Resolved_Atoms>  (202) 
nan

>  <Num_Not_Resolved_Atoms>  (202) 
nan

$$$$
CHEMBL3700904
     RDKit          3D

  0  0  0  0  0  0  0  0  0  0999 V3000
M  V30 BEGIN CTAB
M  V30 COUNTS 66 69 0 0 0
M  V30 BEGIN ATOM
M  V30 1 C 4.923081 -2.662506 5.171986 0
M  V30 2 C 4.344274 -2.777160 3.748818 0
M  V30 3 C 2.911443 -3.194646 3.840266 0
M  V30 4 C 2.233929 -3.390365 2.533338 0
M  V30 5 C 2.126373 -2.222015 1.649157 0 CFG=1
M  V30 6 N 3.361612 -1.661600 1.235886 0
M  V30 7 C 3.439211 -0.227918 1.187196 0
M  V30 8 O 2.428648 0.408982 1.507700 0
M  V30 9 N 4.584995 0.476384 0.800686 0
M  V30 10 C 4.821175 1.852780 0.701267 0
M  V30 11 C 6.046333 2.331177 0.291488 0
M  V30 12 C 6.343041 3.660694 0.173063 0
M  V30 13 C 5.402397 4.624130 0.466711 0
M  V30 14 C 4.157784 4.207581 0.881971 0
M  V30 15 C 3.161197 5.193877 1.193746 0
M  V30 16 N 2.352520 5.984887 1.426746 0
M  V30 17 C 3.921238 2.852745 0.980978 0
M  V30 18 C 1.403965 -2.670026 0.373191 0
M  V30 19 C 2.193563 -3.360644 -0.545588 0
M  V30 20 C 1.601217 -3.794489 -1.722606 0
M  V30 21 C 0.250492 -3.536982 -1.962335 0
M  V30 22 C -0.510225 -2.851417 -1.037670 0
M  V30 23 C -1.917803 -2.595396 -1.311853 0
M  V30 24 O -2.345461 -3.042153 -2.408647 0
M  V30 25 N -2.735424 -1.900583 -0.416221 0
M  V30 26 C -4.173848 -1.650741 -0.719018 0
M  V30 27 N -4.471282 -0.617067 -1.324480 0
M  V30 28 C -5.732361 -0.325865 -1.628807 0
M  V30 29 C -6.740106 -1.276319 -1.217683 0
M  V30 30 S -5.722436 -2.532507 -0.407416 0
M  V30 31 C -8.137443 -0.861911 -1.605187 0
M  V30 32 N -8.344038 0.427675 -1.044807 0
M  V30 33 C -9.675566 0.938438 -1.105548 0
M  V30 34 C -7.362694 1.412054 -1.416829 0
M  V30 35 C -6.311909 0.853793 -2.347277 0
M  V30 36 C 0.068591 -2.416213 0.134619 0
M  V30 37 H 4.659726 -3.608670 5.690244 0
M  V30 38 H 4.428917 -1.787655 5.640267 0
M  V30 39 H 6.025337 -2.602522 5.142095 0
M  V30 40 H 4.439036 -1.774347 3.286887 0
M  V30 41 H 4.934268 -3.486879 3.153814 0
M  V30 42 H 2.813943 -4.176539 4.390547 0
M  V30 43 H 2.334789 -2.451385 4.481112 0
M  V30 44 H 1.224145 -3.892055 2.688721 0
M  V30 45 H 2.814035 -4.224983 2.015528 0
M  V30 46 H 1.417108 -1.465894 2.066400 0
M  V30 47 H 4.176277 -2.230342 0.974025 0
M  V30 48 H 5.392165 -0.168765 0.546823 0
M  V30 49 H 6.837171 1.605389 0.043333 0
M  V30 50 H 7.332064 3.941505 -0.156123 0
M  V30 51 H 5.693917 5.651564 0.354766 0
M  V30 52 H 2.931786 2.611882 1.309727 0
M  V30 53 H 3.242636 -3.578756 -0.394781 0
M  V30 54 H 2.174913 -4.342411 -2.480272 0
M  V30 55 H -0.157173 -3.907256 -2.912980 0
M  V30 56 H -2.413458 -1.529073 0.476760 0
M  V30 57 H -8.781813 -1.577452 -1.076562 0
M  V30 58 H -8.305369 -0.950153 -2.675683 0
M  V30 59 H -10.184343 0.693974 -2.039343 0
M  V30 60 H -10.273759 0.605697 -0.217687 0
M  V30 61 H -9.590540 2.059458 -1.000293 0
M  V30 62 H -6.817370 1.865770 -0.570934 0
M  V30 63 H -7.889654 2.220679 -1.974242 0
M  V30 64 H -6.789841 0.529774 -3.308532 0
M  V30 65 H -5.548972 1.618451 -2.508001 0
M  V30 66 H -0.459643 -1.879983 0.894775 0
M  V30 END ATOM
M  V30 BEGIN BOND
M  V30 1 1 1 2
M  V30 2 1 2 3
M  V30 3 1 3 4
M  V30 4 1 4 5
M  V30 5 1 5 6
M  V30 6 1 6 7
M  V30 7 2 7 8
M  V30 8 1 7 9
M  V30 9 1 9 10
M  V30 10 2 10 11
M  V30 11 1 11 12
M  V30 12 2 12 13
M  V30 13 1 13 14
M  V30 14 1 14 15
M  V30 15 3 15 16
M  V30 16 2 14 17
M  V30 17 1 5 18
M  V30 18 2 18 19
M  V30 19 1 19 20
M  V30 20 2 20 21
M  V30 21 1 21 22
M  V30 22 1 22 23
M  V30 23 2 23 24
M  V30 24 1 23 25
M  V30 25 1 25 26
M  V30 26 2 26 27
M  V30 27 1 27 28
M  V30 28 2 28 29
M  V30 29 1 29 30
M  V30 30 1 29 31
M  V30 31 1 31 32
M  V30 32 1 32 33
M  V30 33 1 32 34
M  V30 34 1 34 35
M  V30 35 2 22 36
M  V30 36 1 17 10
M  V30 37 1 36 18
M  V30 38 1 30 26
M  V30 39 1 35 28
M  V30 40 1 1 37
M  V30 41 1 1 38
M  V30 42 1 1 39
M  V30 43 1 2 40
M  V30 44 1 2 41
M  V30 45 1 3 42
M  V30 46 1 3 43
M  V30 47 1 4 44
M  V30 48 1 4 45
M  V30 49 1 5 46 CFG=1
M  V30 50 1 6 47
M  V30 51 1 9 48
M  V30 52 1 11 49
M  V30 53 1 12 50
M  V30 54 1 13 51
M  V30 55 1 17 52
M  V30 56 1 19 53
M  V30 57 1 20 54
M  V30 58 1 21 55
M  V30 59 1 25 56
M  V30 60 1 31 57
M  V30 61 1 31 58
M  V30 62 1 33 59
M  V30 63 1 33 60
M  V30 64 1 33 61
M  V30 65 1 34 62
M  V30 66 1 34 63
M  V30 67 1 35 64
M  V30 68 1 35 65
M  V30 69 1 36 66
M  V30 END BOND
M  V30 END CTAB
M  END
>  <Dataset>  (203) 
ChEMBL_Kinases

>  <Ligand_Instance>  (203) 
nan

>  <PDB_ID>  (203) 
nan

>  <Standardized_SMILES>  (203) 
CCCC[C@@H](NC(=O)Nc1cccc(C#N)c1)c1cccc(C(=O)Nc2nc3c(s2)CN(C)CC3)c1

>  <Name>  (203) 
nan

>  <Pocket>  (203) 
nan

>  <ATP_Site>  (203) 
nan

>  <Peripheral>  (203) 
nan

>  <Num_H_Atoms_ProtBoundConf>  (203) 
nan

>  <Num_Resolved_Atoms>  (203) 
nan

>  <Num_Not_Resolved_Atoms>  (203) 
nan

$$$$
CHEMBL3700903
     RDKit          3D

  0  0  0  0  0  0  0  0  0  0999 V3000
M  V30 BEGIN CTAB
M  V30 COUNTS 62 66 0 0 0
M  V30 BEGIN ATOM
M  V30 1 C 6.701366 1.081496 7.656751 0
M  V30 2 O 6.049077 2.013038 6.789481 0
M  V30 3 C 5.454205 1.544061 5.625373 0
M  V30 4 C 5.420375 0.232863 5.195723 0
M  V30 5 C 4.776811 -0.056625 3.998893 0
M  V30 6 C 4.165661 0.893623 3.208843 0
M  V30 7 C 3.510312 0.494435 1.967312 0
M  V30 8 O 3.561985 -0.750524 1.714106 0
M  V30 9 N 2.862532 1.393059 1.096185 0
M  V30 10 C 2.245731 0.867200 -0.109751 0 CFG=1
M  V30 11 C 0.772073 1.034981 -0.089745 0
M  V30 12 C 0.328156 2.283768 0.308312 0
M  V30 13 C -1.019440 2.572581 0.374098 0
M  V30 14 C -1.940636 1.602110 0.038000 0
M  V30 15 C -1.518435 0.351257 -0.361150 0
M  V30 16 C -2.351228 -0.774880 -0.741841 0
M  V30 17 O -1.978055 -1.917792 -1.113228 0
M  V30 18 N -3.767900 -0.599127 -0.701078 0
M  V30 19 C -4.703048 -1.679249 -1.066413 0
M  V30 20 N -5.203682 -2.007160 -2.051923 0
M  V30 21 C -6.046380 -3.027527 -2.233518 0
M  V30 22 C -6.353802 -3.779421 -1.101564 0
M  V30 23 S -5.342593 -2.903276 0.215417 0
M  V30 24 C -7.301662 -4.933442 -1.290003 0
M  V30 25 N -6.755075 -5.748350 -2.346362 0
M  V30 26 C -5.507547 -6.374250 -1.975224 0
M  V30 27 C -6.688063 -4.999623 -3.553636 0
M  V30 28 C -6.738563 -3.528237 -3.449256 0
M  V30 29 C -0.169566 0.078213 -0.421883 0
M  V30 30 C 2.888964 1.414095 -1.365109 0
M  V30 31 C 4.344189 1.117817 -1.516545 0
M  V30 32 C 3.366667 0.433027 -2.421710 0
M  V30 33 C 4.217553 2.195784 3.666855 0
M  V30 34 C 4.854099 2.530630 4.864518 0
M  V30 35 Cl 4.839421 4.211275 5.317762 0
M  V30 36 H 6.917062 1.519562 8.637243 0
M  V30 37 H 6.156588 0.126994 7.745890 0
M  V30 38 H 7.682995 0.839280 7.178348 0
M  V30 39 H 5.899649 -0.490206 5.820710 0
M  V30 40 H 4.800575 -1.109106 3.742486 0
M  V30 41 H 2.836715 2.401667 1.326653 0
M  V30 42 H 2.424137 -0.227341 -0.105779 0
M  V30 43 H 0.921397 3.161650 0.606849 0
M  V30 44 H -1.457045 3.507652 0.669957 0
M  V30 45 H -2.998232 1.753746 0.065076 0
M  V30 46 H -4.274635 0.243647 -0.430359 0
M  V30 47 H -8.249143 -4.506251 -1.612847 0
M  V30 48 H -7.351805 -5.538043 -0.361589 0
M  V30 49 H -5.737601 -7.453286 -1.844912 0
M  V30 50 H -4.766960 -6.317067 -2.793665 0
M  V30 51 H -5.057259 -5.964415 -1.062173 0
M  V30 52 H -5.783596 -5.364173 -4.124736 0
M  V30 53 H -7.553907 -5.345024 -4.191775 0
M  V30 54 H -6.326287 -3.090725 -4.376695 0
M  V30 55 H -7.813428 -3.183654 -3.421167 0
M  V30 56 H 0.268124 -0.880501 -0.725520 0
M  V30 57 H 2.512560 2.376497 -1.755621 0
M  V30 58 H 4.951165 1.895040 -2.013139 0
M  V30 59 H 4.905072 0.530838 -0.766650 0
M  V30 60 H 3.252809 -0.654361 -2.218915 0
M  V30 61 H 3.323309 0.714455 -3.493102 0
M  V30 62 H 3.743057 2.965054 3.061451 0
M  V30 END ATOM
M  V30 BEGIN BOND
M  V30 1 1 1 2
M  V30 2 1 2 3
M  V30 3 2 3 4
M  V30 4 1 4 5
M  V30 5 2 5 6
M  V30 6 1 6 7
M  V30 7 2 7 8
M  V30 8 1 7 9
M  V30 9 1 9 10
M  V30 10 1 10 11
M  V30 11 2 11 12
M  V30 12 1 12 13
M  V30 13 2 13 14
M  V30 14 1 14 15
M  V30 15 1 15 16
M  V30 16 2 16 17
M  V30 17 1 16 18
M  V30 18 1 18 19
M  V30 19 2 19 20
M  V30 20 1 20 21
M  V30 21 2 21 22
M  V30 22 1 22 23
M  V30 23 1 22 24
M  V30 24 1 24 25
M  V30 25 1 25 26
M  V30 26 1 25 27
M  V30 27 1 27 28
M  V30 28 2 15 29
M  V30 29 1 10 30
M  V30 30 1 30 31
M  V30 31 1 31 32
M  V30 32 1 6 33
M  V30 33 2 33 34
M  V30 34 1 34 35
M  V30 35 1 34 3
M  V30 36 1 29 11
M  V30 37 1 32 30
M  V30 38 1 23 19
M  V30 39 1 28 21
M  V30 40 1 1 36
M  V30 41 1 1 37
M  V30 42 1 1 38
M  V30 43 1 4 39
M  V30 44 1 5 40
M  V30 45 1 9 41
M  V30 46 1 10 42 CFG=1
M  V30 47 1 12 43
M  V30 48 1 13 44
M  V30 49 1 14 45
M  V30 50 1 18 46
M  V30 51 1 24 47
M  V30 52 1 24 48
M  V30 53 1 26 49
M  V30 54 1 26 50
M  V30 55 1 26 51
M  V30 56 1 27 52
M  V30 57 1 27 53
M  V30 58 1 28 54
M  V30 59 1 28 55
M  V30 60 1 29 56
M  V30 61 1 30 57
M  V30 62 1 31 58
M  V30 63 1 31 59
M  V30 64 1 32 60
M  V30 65 1 32 61
M  V30 66 1 33 62
M  V30 END BOND
M  V30 END CTAB
M  END
>  <Dataset>  (204) 
ChEMBL_Kinases

>  <Ligand_Instance>  (204) 
nan

>  <PDB_ID>  (204) 
nan

>  <Standardized_SMILES>  (204) 
COc1ccc(C(=O)N[C@@H](c2cccc(C(=O)Nc3nc4c(s3)CN(C)CC4)c2)C2CC2)cc1Cl

>  <Name>  (204) 
nan

>  <Pocket>  (204) 
nan

>  <ATP_Site>  (204) 
nan

>  <Peripheral>  (204) 
nan

>  <Num_H_Atoms_ProtBoundConf>  (204) 
nan

>  <Num_Resolved_Atoms>  (204) 
nan

>  <Num_Not_Resolved_Atoms>  (204) 
nan

$$$$
CHEMBL3700902
     RDKit          3D

  0  0  0  0  0  0  0  0  0  0999 V3000
M  V30 BEGIN CTAB
M  V30 COUNTS 53 56 0 0 0
M  V30 BEGIN ATOM
M  V30 1 C 1.712228 -5.318463 5.521542 0
M  V30 2 N 2.791532 -5.524034 4.579716 0
M  V30 3 C 3.866012 -4.609155 4.731802 0
M  V30 4 C 3.984165 -3.525279 3.733602 0
M  V30 5 C 2.634103 -3.070747 3.284228 0
M  V30 6 N 2.156687 -1.830873 3.114305 0
M  V30 7 C 1.118073 -1.510143 2.766512 0
M  V30 8 N 0.481001 -0.262947 2.544093 0
M  V30 9 C 0.457922 0.456077 1.345803 0
M  V30 10 O 1.102231 -0.160697 0.432009 0
M  V30 11 C -0.239978 1.753777 1.222845 0
M  V30 12 C -0.931345 2.370741 2.244126 0
M  V30 13 C -1.525169 3.585900 1.956361 0
M  V30 14 C -1.426173 4.159677 0.684243 0
M  V30 15 C -0.714898 3.497302 -0.319391 0
M  V30 16 O -0.775436 4.281808 -1.463881 0
M  V30 17 C -0.207925 3.991702 -2.695975 0
M  V30 18 C -0.702785 2.784333 -3.377522 0
M  V30 19 O -0.170335 2.531505 -4.490035 0
M  V30 20 N -1.709580 1.943738 -2.847594 0
M  V30 21 C -2.424241 0.760564 -3.160337 0
M  V30 22 C -3.607514 0.823567 -3.873660 0
M  V30 23 C -4.344898 -0.302464 -4.203985 0
M  V30 24 C -3.813793 -1.500396 -3.768971 0
M  V30 25 C -4.542166 -2.689861 -4.087112 0
M  V30 26 N -5.127781 -3.661210 -4.363723 0
M  V30 27 C -2.636534 -1.655148 -3.050445 0
M  V30 28 C -1.966571 -0.482545 -2.765050 0
M  V30 29 C -0.119168 2.283157 -0.039119 0
M  V30 30 S 0.227554 -3.169473 2.486130 0
M  V30 31 C 1.732124 -4.105537 2.994458 0
M  V30 32 C 2.330876 -5.479717 3.206312 0
M  V30 33 H 0.772818 -5.128126 4.939103 0
M  V30 34 H 1.897194 -4.454306 6.197964 0
M  V30 35 H 1.505610 -6.218880 6.137261 0
M  V30 36 H 4.814186 -5.210710 4.812669 0
M  V30 37 H 3.764827 -4.156347 5.760744 0
M  V30 38 H 4.514273 -3.969642 2.839126 0
M  V30 39 H 4.636893 -2.705350 4.057462 0
M  V30 40 H 0.001288 0.087849 3.413074 0
M  V30 41 H -0.963494 1.866531 3.198636 0
M  V30 42 H -2.054993 4.019891 2.801716 0
M  V30 43 H -1.953336 5.102047 0.659229 0
M  V30 44 H 0.884908 3.849795 -2.534002 0
M  V30 45 H -0.272820 4.896376 -3.346165 0
M  V30 46 H -2.187457 2.121515 -1.955510 0
M  V30 47 H -3.981299 1.786741 -4.192406 0
M  V30 48 H -5.265708 -0.266992 -4.758114 0
M  V30 49 H -2.290786 -2.626927 -2.747973 0
M  V30 50 H -1.046895 -0.500563 -2.214292 0
M  V30 51 H 0.380302 1.908398 -0.898107 0
M  V30 52 H 3.225429 -5.523057 2.556845 0
M  V30 53 H 1.596903 -6.257386 2.999058 0
M  V30 END ATOM
M  V30 BEGIN BOND
M  V30 1 1 1 2
M  V30 2 1 2 3
M  V30 3 1 3 4
M  V30 4 1 4 5
M  V30 5 1 5 6
M  V30 6 2 6 7
M  V30 7 1 7 8
M  V30 8 1 8 9
M  V30 9 2 9 10
M  V30 10 1 9 11
M  V30 11 2 11 12
M  V30 12 1 12 13
M  V30 13 2 13 14
M  V30 14 1 14 15
M  V30 15 1 15 16
M  V30 16 1 16 17
M  V30 17 1 17 18
M  V30 18 2 18 19
M  V30 19 1 18 20
M  V30 20 1 20 21
M  V30 21 2 21 22
M  V30 22 1 22 23
M  V30 23 2 23 24
M  V30 24 1 24 25
M  V30 25 3 25 26
M  V30 26 1 24 27
M  V30 27 2 27 28
M  V30 28 2 15 29
M  V30 29 1 7 30
M  V30 30 1 30 31
M  V30 31 1 31 32
M  V30 32 1 32 2
M  V30 33 2 31 5
M  V30 34 1 29 11
M  V30 35 1 28 21
M  V30 36 1 1 33
M  V30 37 1 1 34
M  V30 38 1 1 35
M  V30 39 1 3 36
M  V30 40 1 3 37
M  V30 41 1 4 38
M  V30 42 1 4 39
M  V30 43 1 8 40
M  V30 44 1 12 41
M  V30 45 1 13 42
M  V30 46 1 14 43
M  V30 47 1 17 44
M  V30 48 1 17 45
M  V30 49 1 20 46
M  V30 50 1 22 47
M  V30 51 1 23 48
M  V30 52 1 27 49
M  V30 53 1 28 50
M  V30 54 1 29 51
M  V30 55 1 32 52
M  V30 56 1 32 53
M  V30 END BOND
M  V30 END CTAB
M  END
>  <Dataset>  (205) 
ChEMBL_Kinases

>  <Ligand_Instance>  (205) 
nan

>  <PDB_ID>  (205) 
nan

>  <Standardized_SMILES>  (205) 
CN1CCc2nc(NC(=O)c3cccc(OCC(=O)Nc4ccc(C#N)cc4)c3)sc2C1

>  <Name>  (205) 
nan

>  <Pocket>  (205) 
nan

>  <ATP_Site>  (205) 
nan

>  <Peripheral>  (205) 
nan

>  <Num_H_Atoms_ProtBoundConf>  (205) 
nan

>  <Num_Resolved_Atoms>  (205) 
nan

>  <Num_Not_Resolved_Atoms>  (205) 
nan

$$$$
CHEMBL3700565
     RDKit          3D

  0  0  0  0  0  0  0  0  0  0999 V3000
M  V30 BEGIN CTAB
M  V30 COUNTS 36 39 0 0 0
M  V30 BEGIN ATOM
M  V30 1 C -0.935724 -6.142272 1.603688 0
M  V30 2 C 0.030298 -5.424864 1.482657 0
M  V30 3 C 1.190707 -4.562870 1.349979 0
M  V30 4 C 2.415958 -5.022916 1.848922 0
M  V30 5 C 3.509614 -4.191474 1.701373 0
M  V30 6 C 3.428300 -2.957670 1.093390 0
M  V30 7 C 2.219917 -2.513884 0.605615 0
M  V30 8 N 1.894928 -1.309713 -0.082708 0
M  V30 9 C 0.879276 -0.373455 0.244130 0
M  V30 10 N 0.684761 0.558053 -0.664363 0
M  V30 11 C -0.172073 1.575416 -0.635551 0
M  V30 12 C -0.373567 2.542161 -1.588229 0
M  V30 13 C -1.329971 3.485587 -1.310847 0
M  V30 14 C -1.572989 4.529361 -2.300923 0
M  V30 15 O -2.429981 5.440095 -2.137310 0
M  V30 16 O -0.911704 4.655835 -3.521730 0
M  V30 17 C -2.081793 3.515462 -0.156855 0
M  V30 18 C -1.884805 2.542927 0.809277 0
M  V30 19 C -0.922202 1.601066 0.521232 0
M  V30 20 C -0.743132 0.628752 1.507983 0
M  V30 21 S -1.509516 0.370192 3.076775 0
M  V30 22 C -0.445101 -1.167915 3.402887 0
M  V30 23 N 0.221360 -1.239130 2.428544 0
M  V30 24 C 0.161037 -0.400975 1.420037 0
M  V30 25 C 1.097411 -3.322548 0.736382 0
M  V30 26 H -1.780533 -6.790448 1.716175 0
M  V30 27 H 2.455088 -5.986602 2.318992 0
M  V30 28 H 4.476457 -4.500529 2.070579 0
M  V30 29 H 4.231653 -2.257762 0.940708 0
M  V30 30 H 2.547694 -1.268227 -0.860166 0
M  V30 31 H 0.239522 2.478784 -2.475639 0
M  V30 32 H -0.730419 5.589750 -3.918499 0
M  V30 33 H -2.822368 4.264555 0.035389 0
M  V30 34 H -2.447277 2.512556 1.747332 0
M  V30 35 H -0.472051 -1.888091 4.393441 0
M  V30 36 H 0.094895 -3.096079 0.392319 0
M  V30 END ATOM
M  V30 BEGIN BOND
M  V30 1 3 1 2
M  V30 2 1 2 3
M  V30 3 2 3 4
M  V30 4 1 4 5
M  V30 5 2 5 6
M  V30 6 1 6 7
M  V30 7 1 7 8
M  V30 8 1 8 9
M  V30 9 2 9 10
M  V30 10 1 10 11
M  V30 11 2 11 12
M  V30 12 1 12 13
M  V30 13 1 13 14
M  V30 14 2 14 15
M  V30 15 1 14 16
M  V30 16 2 13 17
M  V30 17 1 17 18
M  V30 18 2 18 19
M  V30 19 1 19 20
M  V30 20 1 20 21
M  V30 21 1 21 22
M  V30 22 2 22 23
M  V30 23 1 23 24
M  V30 24 2 7 25
M  V30 25 1 25 3
M  V30 26 1 24 9
M  V30 27 1 19 11
M  V30 28 2 24 20
M  V30 29 1 1 26
M  V30 30 1 4 27
M  V30 31 1 5 28
M  V30 32 1 6 29
M  V30 33 1 8 30
M  V30 34 1 12 31
M  V30 35 1 16 32
M  V30 36 1 17 33
M  V30 37 1 18 34
M  V30 38 1 22 35
M  V30 39 1 25 36
M  V30 END BOND
M  V30 END CTAB
M  END
>  <Dataset>  (206) 
ChEMBL_Kinases

>  <Ligand_Instance>  (206) 
nan

>  <PDB_ID>  (206) 
nan

>  <Standardized_SMILES>  (206) 
C#Cc1cccc(Nc2nc3cc(C(=O)O)ccc3c3scnc23)c1

>  <Name>  (206) 
nan

>  <Pocket>  (206) 
nan

>  <ATP_Site>  (206) 
nan

>  <Peripheral>  (206) 
nan

>  <Num_H_Atoms_ProtBoundConf>  (206) 
nan

>  <Num_Resolved_Atoms>  (206) 
nan

>  <Num_Not_Resolved_Atoms>  (206) 
nan

$$$$
CHEMBL3700564
     RDKit          3D

  0  0  0  0  0  0  0  0  0  0999 V3000
M  V30 BEGIN CTAB
M  V30 COUNTS 34 37 0 0 0
M  V30 BEGIN ATOM
M  V30 1 O 2.730989 -4.958791 4.039972 0
M  V30 2 C 2.540129 -3.727459 3.848498 0
M  V30 3 O 2.889627 -2.876840 4.875760 0
M  V30 4 C 1.971471 -3.319350 2.569443 0
M  V30 5 C 1.661218 -4.234536 1.592081 0
M  V30 6 C 1.124354 -3.825322 0.378543 0
M  V30 7 C 0.943902 -2.468993 0.263593 0
M  V30 8 C 1.244458 -1.529277 1.225455 0
M  V30 9 C 1.774667 -1.955316 2.418055 0
M  V30 10 N 0.962299 -0.284151 0.828821 0
M  V30 11 C 0.456715 0.116249 -0.317238 0
M  V30 12 N 0.292866 1.518989 -0.366937 0
M  V30 13 C -0.938283 2.192634 -0.077995 0
M  V30 14 C -1.101754 3.557645 -0.003306 0
M  V30 15 C -2.320403 4.140096 0.266969 0
M  V30 16 C -3.422250 3.300108 0.470548 0
M  V30 17 C -3.295475 1.906980 0.403857 0
M  V30 18 F -4.398785 1.115053 0.610962 0
M  V30 19 C -2.045581 1.363290 0.128004 0
M  V30 20 C 0.138257 -0.780426 -1.312304 0
M  V30 21 N -0.361556 -0.599734 -2.496610 0
M  V30 22 C -0.612442 -1.383017 -3.298840 0
M  V30 23 S -0.090520 -2.981091 -2.397908 0
M  V30 24 C 0.401216 -2.077564 -0.975532 0
M  V30 25 H 3.740749 -3.060294 5.434027 0
M  V30 26 H 1.844347 -5.273078 1.783230 0
M  V30 27 H 0.870027 -4.527039 -0.412815 0
M  V30 28 H 1.986544 -1.179477 3.123979 0
M  V30 29 H 1.079863 2.150984 -0.622122 0
M  V30 30 H -0.207025 4.171830 -0.169593 0
M  V30 31 H -2.422485 5.224825 0.323319 0
M  V30 32 H -4.372063 3.786614 0.679148 0
M  V30 33 H -1.984691 0.273586 0.081042 0
M  V30 34 H -1.081993 -1.320613 -4.435861 0
M  V30 END ATOM
M  V30 BEGIN BOND
M  V30 1 2 1 2
M  V30 2 1 2 3
M  V30 3 1 2 4
M  V30 4 2 4 5
M  V30 5 1 5 6
M  V30 6 2 6 7
M  V30 7 1 7 8
M  V30 8 2 8 9
M  V30 9 1 8 10
M  V30 10 2 10 11
M  V30 11 1 11 12
M  V30 12 1 12 13
M  V30 13 2 13 14
M  V30 14 1 14 15
M  V30 15 2 15 16
M  V30 16 1 16 17
M  V30 17 1 17 18
M  V30 18 2 17 19
M  V30 19 1 11 20
M  V30 20 1 20 21
M  V30 21 2 21 22
M  V30 22 1 22 23
M  V30 23 1 23 24
M  V30 24 1 9 4
M  V30 25 1 19 13
M  V30 26 2 24 20
M  V30 27 1 24 7
M  V30 28 1 3 25
M  V30 29 1 5 26
M  V30 30 1 6 27
M  V30 31 1 9 28
M  V30 32 1 12 29
M  V30 33 1 14 30
M  V30 34 1 15 31
M  V30 35 1 16 32
M  V30 36 1 19 33
M  V30 37 1 22 34
M  V30 END BOND
M  V30 END CTAB
M  END
>  <Dataset>  (207) 
ChEMBL_Kinases

>  <Ligand_Instance>  (207) 
nan

>  <PDB_ID>  (207) 
nan

>  <Standardized_SMILES>  (207) 
O=C(O)c1ccc2c(c1)nc(Nc1cccc(F)c1)c1ncsc12

>  <Name>  (207) 
nan

>  <Pocket>  (207) 
nan

>  <ATP_Site>  (207) 
nan

>  <Peripheral>  (207) 
nan

>  <Num_H_Atoms_ProtBoundConf>  (207) 
nan

>  <Num_Resolved_Atoms>  (207) 
nan

>  <Num_Not_Resolved_Atoms>  (207) 
nan

$$$$
CHEMBL3700546
     RDKit          3D

  0  0  0  0  0  0  0  0  0  0999 V3000
M  V30 BEGIN CTAB
M  V30 COUNTS 35 38 0 0 0
M  V30 BEGIN ATOM
M  V30 1 O 0.580399 -6.220456 2.281454 0
M  V30 2 C -0.051472 -5.182772 1.962651 0
M  V30 3 O -1.429079 -5.221540 1.948444 0
M  V30 4 C 0.671422 -3.966804 1.616350 0
M  V30 5 C 2.050153 -3.950225 1.637083 0
M  V30 6 C 2.805282 -2.829793 1.319659 0
M  V30 7 C 2.086373 -1.711880 0.975576 0
M  V30 8 C 0.709185 -1.697881 0.945827 0
M  V30 9 C -0.016660 -2.823875 1.265436 0
M  V30 10 N 0.222130 -0.527024 0.590404 0
M  V30 11 C 0.846909 0.596061 0.269789 0
M  V30 12 N 0.053558 1.707787 -0.073849 0
M  V30 13 C -1.342219 1.878729 -0.150380 0
M  V30 14 C -1.899917 3.103624 -0.523564 0
M  V30 15 C -3.247145 3.329033 -0.615324 0
M  V30 16 C -4.113175 2.305536 -0.328205 0
M  V30 17 C -3.651137 1.068965 0.046661 0
M  V30 18 I -5.007624 -0.479029 0.480041 0
M  V30 19 C -2.292051 0.918834 0.116343 0
M  V30 20 C 2.218701 0.613930 0.290010 0
M  V30 21 C 2.980261 1.689236 -0.013932 0
M  V30 22 C 4.440342 1.426163 0.091036 0
M  V30 23 S 4.527249 -0.373085 0.624909 0
M  V30 24 C 2.822544 -0.563567 0.649570 0
M  V30 25 H -1.954403 -5.814170 2.608597 0
M  V30 26 H 2.557886 -4.875536 1.920261 0
M  V30 27 H 3.898430 -2.833404 1.341055 0
M  V30 28 H -1.075016 -2.763117 1.227782 0
M  V30 29 H 0.595527 2.580928 -0.322059 0
M  V30 30 H -1.244801 3.955441 -0.763730 0
M  V30 31 H -3.609199 4.292836 -0.907550 0
M  V30 32 H -5.163748 2.534271 -0.415444 0
M  V30 33 H -2.002007 -0.063021 0.412571 0
M  V30 34 H 2.703013 2.683241 -0.313136 0
M  V30 35 H 5.224452 2.341108 -0.165044 0
M  V30 END ATOM
M  V30 BEGIN BOND
M  V30 1 2 1 2
M  V30 2 1 2 3
M  V30 3 1 2 4
M  V30 4 2 4 5
M  V30 5 1 5 6
M  V30 6 2 6 7
M  V30 7 1 7 8
M  V30 8 2 8 9
M  V30 9 1 8 10
M  V30 10 2 10 11
M  V30 11 1 11 12
M  V30 12 1 12 13
M  V30 13 2 13 14
M  V30 14 1 14 15
M  V30 15 2 15 16
M  V30 16 1 16 17
M  V30 17 1 17 18
M  V30 18 2 17 19
M  V30 19 1 11 20
M  V30 20 1 20 21
M  V30 21 2 21 22
M  V30 22 1 22 23
M  V30 23 1 23 24
M  V30 24 1 9 4
M  V30 25 1 19 13
M  V30 26 2 24 20
M  V30 27 1 24 7
M  V30 28 1 3 25
M  V30 29 1 5 26
M  V30 30 1 6 27
M  V30 31 1 9 28
M  V30 32 1 12 29
M  V30 33 1 14 30
M  V30 34 1 15 31
M  V30 35 1 16 32
M  V30 36 1 19 33
M  V30 37 1 21 34
M  V30 38 1 22 35
M  V30 END BOND
M  V30 END CTAB
M  END
>  <Dataset>  (208) 
ChEMBL_Kinases

>  <Ligand_Instance>  (208) 
nan

>  <PDB_ID>  (208) 
nan

>  <Standardized_SMILES>  (208) 
O=C(O)c1ccc2c(c1)nc(Nc1cccc(I)c1)c1ccsc12

>  <Name>  (208) 
nan

>  <Pocket>  (208) 
nan

>  <ATP_Site>  (208) 
nan

>  <Peripheral>  (208) 
nan

>  <Num_H_Atoms_ProtBoundConf>  (208) 
nan

>  <Num_Resolved_Atoms>  (208) 
nan

>  <Num_Not_Resolved_Atoms>  (208) 
nan

$$$$
CHEMBL3700547
     RDKit          3D

  0  0  0  0  0  0  0  0  0  0999 V3000
M  V30 BEGIN CTAB
M  V30 COUNTS 35 38 0 0 0
M  V30 BEGIN ATOM
M  V30 1 O 0.776180 -6.005701 0.091137 0
M  V30 2 C 1.370480 -5.352090 0.957509 0
M  V30 3 O 1.937353 -6.285822 1.796160 0
M  V30 4 C 1.566699 -3.936811 1.232146 0
M  V30 5 C 2.288402 -3.453136 2.301928 0
M  V30 6 C 2.400038 -2.087969 2.441056 0
M  V30 7 C 1.792200 -1.273298 1.514627 0
M  V30 8 C 1.067226 -1.728499 0.438880 0
M  V30 9 C 0.955866 -3.093810 0.300712 0
M  V30 10 N 0.550949 -0.788686 -0.350642 0
M  V30 11 C 0.633902 0.519849 -0.251956 0
M  V30 12 N -0.000483 1.411259 -1.198924 0
M  V30 13 C -1.409451 1.557661 -0.917095 0
M  V30 14 C -2.013035 2.757632 -0.556737 0
M  V30 15 C -3.367421 2.851198 -0.313543 0
M  V30 16 C -4.167194 1.726736 -0.426485 0
M  V30 17 C -3.626327 0.507092 -0.781149 0
M  V30 18 F -4.433673 -0.578424 -0.887263 0
M  V30 19 C -2.247953 0.467408 -1.016803 0
M  V30 20 F -1.824922 -0.781511 -1.372843 0
M  V30 21 C 1.343685 1.045098 0.798012 0
M  V30 22 C 1.581838 2.362241 1.112087 0
M  V30 23 C 2.360255 2.703215 2.258276 0
M  V30 24 S 2.790219 1.012591 2.947422 0
M  V30 25 C 1.917901 0.090452 1.675377 0
M  V30 26 H 1.530696 -7.132778 2.120084 0
M  V30 27 H 2.717482 -4.168124 2.960708 0
M  V30 28 H 2.971638 -1.739069 3.291805 0
M  V30 29 H 0.371250 -3.414419 -0.565377 0
M  V30 30 H 0.548512 1.861524 -1.966125 0
M  V30 31 H -1.308143 3.593140 -0.489273 0
M  V30 32 H -3.778090 3.830368 -0.032183 0
M  V30 33 H -5.249700 1.801931 -0.231277 0
M  V30 34 H 1.217231 3.210273 0.548891 0
M  V30 35 H 2.630554 3.639022 2.600148 0
M  V30 END ATOM
M  V30 BEGIN BOND
M  V30 1 2 1 2
M  V30 2 1 2 3
M  V30 3 1 2 4
M  V30 4 2 4 5
M  V30 5 1 5 6
M  V30 6 2 6 7
M  V30 7 1 7 8
M  V30 8 2 8 9
M  V30 9 1 8 10
M  V30 10 2 10 11
M  V30 11 1 11 12
M  V30 12 1 12 13
M  V30 13 2 13 14
M  V30 14 1 14 15
M  V30 15 2 15 16
M  V30 16 1 16 17
M  V30 17 1 17 18
M  V30 18 2 17 19
M  V30 19 1 19 20
M  V30 20 1 11 21
M  V30 21 1 21 22
M  V30 22 2 22 23
M  V30 23 1 23 24
M  V30 24 1 24 25
M  V30 25 1 9 4
M  V30 26 1 19 13
M  V30 27 2 25 21
M  V30 28 1 25 7
M  V30 29 1 3 26
M  V30 30 1 5 27
M  V30 31 1 6 28
M  V30 32 1 9 29
M  V30 33 1 12 30
M  V30 34 1 14 31
M  V30 35 1 15 32
M  V30 36 1 16 33
M  V30 37 1 22 34
M  V30 38 1 23 35
M  V30 END BOND
M  V30 END CTAB
M  END
>  <Dataset>  (209) 
ChEMBL_Kinases

>  <Ligand_Instance>  (209) 
nan

>  <PDB_ID>  (209) 
nan

>  <Standardized_SMILES>  (209) 
O=C(O)c1ccc2c(c1)nc(Nc1cccc(F)c1F)c1ccsc12

>  <Name>  (209) 
nan

>  <Pocket>  (209) 
nan

>  <ATP_Site>  (209) 
nan

>  <Peripheral>  (209) 
nan

>  <Num_H_Atoms_ProtBoundConf>  (209) 
nan

>  <Num_Resolved_Atoms>  (209) 
nan

>  <Num_Not_Resolved_Atoms>  (209) 
nan

$$$$
CHEMBL3700548
     RDKit          3D

  0  0  0  0  0  0  0  0  0  0999 V3000
M  V30 BEGIN CTAB
M  V30 COUNTS 38 41 0 0 0
M  V30 BEGIN ATOM
M  V30 1 O 3.344840 -4.849682 3.735546 0
M  V30 2 C 2.733668 -3.793072 3.491082 0
M  V30 3 O 2.631655 -2.926679 4.572488 0
M  V30 4 C 2.164117 -3.469858 2.187554 0
M  V30 5 C 2.313813 -4.390952 1.170500 0
M  V30 6 C 1.783873 -4.113041 -0.079589 0
M  V30 7 C 1.123155 -2.893601 -0.218636 0
M  V30 8 C 0.983927 -1.986441 0.809375 0
M  V30 9 C 1.509328 -2.262604 2.047732 0
M  V30 10 N 0.317499 -0.893073 0.446928 0
M  V30 11 C -0.209563 -0.561544 -0.706766 0
M  V30 12 N -0.888465 0.679058 -0.869914 0
M  V30 13 C -1.154257 1.750979 0.019270 0
M  V30 14 C -1.855362 2.905059 -0.355564 0
M  V30 15 C -2.076893 3.904168 0.557359 0
M  V30 16 F -2.764547 4.970152 0.082557 0
M  V30 17 C -1.638610 3.836092 1.853802 0
M  V30 18 C -0.944734 2.715589 2.260007 0
M  V30 19 C -0.490560 2.688762 3.674557 0
M  V30 20 F -0.020241 3.968573 3.984813 0
M  V30 21 F -1.492770 2.306522 4.534008 0
M  V30 22 F 0.618373 1.872521 3.723841 0
M  V30 23 C -0.730534 1.720556 1.330170 0
M  V30 24 C -0.109390 -1.423250 -1.786296 0
M  V30 25 C -0.550491 -1.327528 -3.047360 0
M  V30 26 C -0.309867 -2.328220 -3.901791 0
M  V30 27 S 0.557900 -3.489161 -3.002572 0
M  V30 28 C 0.567588 -2.580633 -1.494066 0
M  V30 29 H 3.335303 -2.884455 5.316270 0
M  V30 30 H 2.825714 -5.327857 1.291047 0
M  V30 31 H 1.861608 -4.786192 -0.924580 0
M  V30 32 H 1.373820 -1.528036 2.807033 0
M  V30 33 H -1.284915 0.875620 -1.823399 0
M  V30 34 H -2.215715 2.977869 -1.394151 0
M  V30 35 H -1.855903 4.667432 2.507602 0
M  V30 36 H -0.179352 0.908877 1.780254 0
M  V30 37 H -1.114038 -0.446725 -3.425033 0
M  V30 38 H -0.685255 -2.306359 -5.071896 0
M  V30 END ATOM
M  V30 BEGIN BOND
M  V30 1 2 1 2
M  V30 2 1 2 3
M  V30 3 1 2 4
M  V30 4 2 4 5
M  V30 5 1 5 6
M  V30 6 2 6 7
M  V30 7 1 7 8
M  V30 8 2 8 9
M  V30 9 1 8 10
M  V30 10 2 10 11
M  V30 11 1 11 12
M  V30 12 1 12 13
M  V30 13 2 13 14
M  V30 14 1 14 15
M  V30 15 1 15 16
M  V30 16 2 15 17
M  V30 17 1 17 18
M  V30 18 1 18 19
M  V30 19 1 19 20
M  V30 20 1 19 21
M  V30 21 1 19 22
M  V30 22 2 18 23
M  V30 23 1 11 24
M  V30 24 1 24 25
M  V30 25 2 25 26
M  V30 26 1 26 27
M  V30 27 1 27 28
M  V30 28 1 9 4
M  V30 29 1 23 13
M  V30 30 2 28 24
M  V30 31 1 28 7
M  V30 32 1 3 29
M  V30 33 1 5 30
M  V30 34 1 6 31
M  V30 35 1 9 32
M  V30 36 1 12 33
M  V30 37 1 14 34
M  V30 38 1 17 35
M  V30 39 1 23 36
M  V30 40 1 25 37
M  V30 41 1 26 38
M  V30 END BOND
M  V30 END CTAB
M  END
>  <Dataset>  (210) 
ChEMBL_Kinases

>  <Ligand_Instance>  (210) 
nan

>  <PDB_ID>  (210) 
nan

>  <Standardized_SMILES>  (210) 
O=C(O)c1ccc2c(c1)nc(Nc1cc(F)cc(C(F)(F)F)c1)c1ccsc12

>  <Name>  (210) 
nan

>  <Pocket>  (210) 
nan

>  <ATP_Site>  (210) 
nan

>  <Peripheral>  (210) 
nan

>  <Num_H_Atoms_ProtBoundConf>  (210) 
nan

>  <Num_Resolved_Atoms>  (210) 
nan

>  <Num_Not_Resolved_Atoms>  (210) 
nan

$$$$
CHEMBL3700549
     RDKit          3D

  0  0  0  0  0  0  0  0  0  0999 V3000
M  V30 BEGIN CTAB
M  V30 COUNTS 38 41 0 0 0
M  V30 BEGIN ATOM
M  V30 1 O 2.202718 -0.486487 3.620117 0
M  V30 2 C 3.288747 -1.037292 3.226100 0
M  V30 3 O 4.226339 -1.102936 4.241279 0
M  V30 4 C 3.425265 -1.512755 1.839576 0
M  V30 5 C 4.576876 -2.107397 1.361095 0
M  V30 6 C 4.646428 -2.535499 0.052466 0
M  V30 7 F 5.773494 -3.124779 -0.428754 0
M  V30 8 C 3.544429 -2.351253 -0.747816 0
M  V30 9 C 2.368023 -1.756236 -0.298180 0
M  V30 10 N 1.215805 -1.573294 -1.148519 0
M  V30 11 C -0.010726 -1.102265 -0.531731 0
M  V30 12 N -0.235241 0.213521 -0.596296 0
M  V30 13 C -1.285193 0.877677 -0.104768 0
M  V30 14 C -1.475286 2.214832 -0.190669 0
M  V30 15 C -2.647769 2.699568 0.396230 0
M  V30 16 C -2.935829 4.148519 0.342728 0
M  V30 17 O -4.013996 4.579045 0.890481 0
M  V30 18 O -2.163601 5.126970 -0.243550 0
M  V30 19 C -3.571864 1.884056 1.031536 0
M  V30 20 C -3.339246 0.517455 1.099093 0
M  V30 21 C -2.165231 0.021622 0.512338 0
M  V30 22 C -2.041155 -1.336758 0.639875 0
M  V30 23 S -2.998045 -2.560157 1.355473 0
M  V30 24 C -1.810763 -3.951010 0.891959 0
M  V30 25 C -0.710457 -3.272167 0.176317 0
M  V30 26 C -0.915603 -1.931303 0.096382 0
M  V30 27 C 2.354542 -1.348877 1.014000 0
M  V30 28 H 4.029935 -1.422017 5.177255 0
M  V30 29 H 5.413651 -2.224981 2.051142 0
M  V30 30 H 3.523580 -2.663618 -1.789077 0
M  V30 31 H 1.351066 -1.798454 -2.160012 0
M  V30 32 H -0.760741 2.844947 -0.683634 0
M  V30 33 H -2.539406 6.049632 -0.366784 0
M  V30 34 H -4.474518 2.300143 1.477276 0
M  V30 35 H -4.064098 -0.126896 1.599946 0
M  V30 36 H -1.814691 -5.149393 1.067468 0
M  V30 37 H 0.060215 -3.937809 -0.158392 0
M  V30 38 H 1.447066 -0.885487 1.370232 0
M  V30 END ATOM
M  V30 BEGIN BOND
M  V30 1 2 1 2
M  V30 2 1 2 3
M  V30 3 1 2 4
M  V30 4 2 4 5
M  V30 5 1 5 6
M  V30 6 1 6 7
M  V30 7 2 6 8
M  V30 8 1 8 9
M  V30 9 1 9 10
M  V30 10 1 10 11
M  V30 11 2 11 12
M  V30 12 1 12 13
M  V30 13 2 13 14
M  V30 14 1 14 15
M  V30 15 1 15 16
M  V30 16 2 16 17
M  V30 17 1 16 18
M  V30 18 2 15 19
M  V30 19 1 19 20
M  V30 20 2 20 21
M  V30 21 1 21 22
M  V30 22 1 22 23
M  V30 23 1 23 24
M  V30 24 2 24 25
M  V30 25 1 25 26
M  V30 26 2 9 27
M  V30 27 1 27 4
M  V30 28 1 26 11
M  V30 29 1 21 13
M  V30 30 2 26 22
M  V30 31 1 3 28
M  V30 32 1 5 29
M  V30 33 1 8 30
M  V30 34 1 10 31
M  V30 35 1 14 32
M  V30 36 1 18 33
M  V30 37 1 19 34
M  V30 38 1 20 35
M  V30 39 1 24 36
M  V30 40 1 25 37
M  V30 41 1 27 38
M  V30 END BOND
M  V30 END CTAB
M  END
>  <Dataset>  (211) 
ChEMBL_Kinases

>  <Ligand_Instance>  (211) 
nan

>  <PDB_ID>  (211) 
nan

>  <Standardized_SMILES>  (211) 
O=C(O)c1cc(F)cc(Nc2nc3cc(C(=O)O)ccc3c3sccc23)c1

>  <Name>  (211) 
nan

>  <Pocket>  (211) 
nan

>  <ATP_Site>  (211) 
nan

>  <Peripheral>  (211) 
nan

>  <Num_H_Atoms_ProtBoundConf>  (211) 
nan

>  <Num_Resolved_Atoms>  (211) 
nan

>  <Num_Not_Resolved_Atoms>  (211) 
nan

$$$$
CHEMBL3700550
     RDKit          3D

  0  0  0  0  0  0  0  0  0  0999 V3000
M  V30 BEGIN CTAB
M  V30 COUNTS 35 38 0 0 0
M  V30 BEGIN ATOM
M  V30 1 O -0.255480 -5.532767 -0.319008 0
M  V30 2 C 0.601782 -5.227381 0.551729 0
M  V30 3 O 1.262358 -6.433550 0.720184 0
M  V30 4 C 0.810028 -3.938888 1.185619 0
M  V30 5 C 1.774575 -3.713192 2.170213 0
M  V30 6 C 1.917938 -2.448328 2.697833 0
M  V30 7 C 1.090570 -1.482529 2.212766 0
M  V30 8 C 0.129484 -1.679329 1.242121 0
M  V30 9 C -0.014284 -2.938885 0.716259 0
M  V30 10 N -0.573927 -0.649796 0.876402 0
M  V30 11 C -0.519347 0.626710 1.298562 0
M  V30 12 N -1.375061 1.649862 0.736699 0
M  V30 13 C -1.326386 1.601370 -0.700511 0
M  V30 14 C -0.797851 2.813903 -1.145455 0
M  V30 15 C -0.634344 3.028386 -2.522403 0
M  V30 16 F -0.134259 4.159801 -3.078689 0
M  V30 17 C -1.008905 2.009735 -3.381311 0
M  V30 18 C -1.529032 0.816685 -2.941134 0
M  V30 19 C -1.689051 0.612999 -1.578216 0
M  V30 20 F -2.205606 -0.512653 -1.054031 0
M  V30 21 C 0.458646 0.824487 2.289416 0
M  V30 22 C 0.622873 2.080866 2.806118 0
M  V30 23 C 1.686936 2.141875 3.827622 0
M  V30 24 S 2.316384 0.392512 3.917947 0
M  V30 25 C 1.230907 -0.213048 2.719391 0
M  V30 26 H 0.871405 -7.263192 1.145923 0
M  V30 27 H 2.390229 -4.542605 2.495093 0
M  V30 28 H 2.642164 -2.220242 3.454378 0
M  V30 29 H -0.772880 -3.080612 -0.039412 0
M  V30 30 H -1.962773 2.343094 1.250002 0
M  V30 31 H -0.471098 3.680815 -0.575524 0
M  V30 32 H -0.941905 2.027692 -4.462769 0
M  V30 33 H -1.845348 -0.028156 -3.538423 0
M  V30 34 H 0.160509 3.038068 2.646980 0
M  V30 35 H 1.984913 3.184838 4.404917 0
M  V30 END ATOM
M  V30 BEGIN BOND
M  V30 1 2 1 2
M  V30 2 1 2 3
M  V30 3 1 2 4
M  V30 4 2 4 5
M  V30 5 1 5 6
M  V30 6 2 6 7
M  V30 7 1 7 8
M  V30 8 2 8 9
M  V30 9 1 8 10
M  V30 10 2 10 11
M  V30 11 1 11 12
M  V30 12 1 12 13
M  V30 13 2 13 14
M  V30 14 1 14 15
M  V30 15 1 15 16
M  V30 16 2 15 17
M  V30 17 1 17 18
M  V30 18 2 18 19
M  V30 19 1 19 20
M  V30 20 1 11 21
M  V30 21 1 21 22
M  V30 22 2 22 23
M  V30 23 1 23 24
M  V30 24 1 24 25
M  V30 25 1 9 4
M  V30 26 1 19 13
M  V30 27 2 25 21
M  V30 28 1 25 7
M  V30 29 1 3 26
M  V30 30 1 5 27
M  V30 31 1 6 28
M  V30 32 1 9 29
M  V30 33 1 12 30
M  V30 34 1 14 31
M  V30 35 1 17 32
M  V30 36 1 18 33
M  V30 37 1 22 34
M  V30 38 1 23 35
M  V30 END BOND
M  V30 END CTAB
M  END
>  <Dataset>  (212) 
ChEMBL_Kinases

>  <Ligand_Instance>  (212) 
nan

>  <PDB_ID>  (212) 
nan

>  <Standardized_SMILES>  (212) 
O=C(O)c1ccc2c(c1)nc(Nc1cc(F)ccc1F)c1ccsc12

>  <Name>  (212) 
nan

>  <Pocket>  (212) 
nan

>  <ATP_Site>  (212) 
nan

>  <Peripheral>  (212) 
nan

>  <Num_H_Atoms_ProtBoundConf>  (212) 
nan

>  <Num_Resolved_Atoms>  (212) 
nan

>  <Num_Not_Resolved_Atoms>  (212) 
nan

$$$$
CHEMBL3700551
     RDKit          3D

  0  0  0  0  0  0  0  0  0  0999 V3000
M  V30 BEGIN CTAB
M  V30 COUNTS 47 51 0 0 0
M  V30 BEGIN ATOM
M  V30 1 O 4.144112 0.785372 -4.699339 0
M  V30 2 C 3.833874 1.138847 -3.527886 0
M  V30 3 O 4.816395 1.709308 -2.735739 0
M  V30 4 C 2.467471 0.932225 -3.067090 0
M  V30 5 C 1.494331 0.374248 -3.859091 0
M  V30 6 C 0.190716 0.157008 -3.472979 0
M  V30 7 C -0.102823 0.546873 -2.190993 0
M  V30 8 C 0.835553 1.118721 -1.332649 0
M  V30 9 C 2.123356 1.315849 -1.759818 0
M  V30 10 N 0.359942 1.428524 -0.136909 0
M  V30 11 C -0.885159 1.255141 0.314700 0
M  V30 12 N -1.112698 1.673387 1.657745 0
M  V30 13 C -1.210655 0.940399 2.870151 0
M  V30 14 C -1.325366 1.563166 4.094723 0
M  V30 15 C -1.428266 0.723834 5.203352 0
M  V30 16 C -1.421438 -0.651827 5.139031 0
M  V30 17 C -1.307930 -1.273781 3.926193 0
M  V30 18 S -1.305506 -2.999835 3.661890 0
M  V30 19 O -2.262238 -3.577857 4.667226 0
M  V30 20 O -1.906445 -3.248065 2.304570 0
M  V30 21 N 0.263552 -3.603751 3.813267 0
M  V30 22 C 1.223387 -3.095226 2.892788 0
M  V30 23 C 2.653065 -2.922392 3.163731 0
M  V30 24 C 2.168989 -3.976531 2.164425 0
M  V30 25 C -1.204988 -0.439452 2.820502 0
M  V30 26 C -1.855386 0.697281 -0.481412 0
M  V30 27 C -3.159866 0.446613 -0.190537 0
M  V30 28 C -3.948091 -0.136953 -1.187499 0
M  V30 29 S -2.817518 -0.340696 -2.585163 0
M  V30 30 C -1.422654 0.342591 -1.767058 0
M  V30 31 H 5.680293 2.088104 -3.107464 0
M  V30 32 H 1.848934 0.103194 -4.864230 0
M  V30 33 H -0.514304 -0.287909 -4.159946 0
M  V30 34 H 2.832288 1.765200 -1.070347 0
M  V30 35 H -1.199797 2.709457 1.613014 0
M  V30 36 H -1.333828 2.639623 4.175685 0
M  V30 37 H -1.520116 1.197514 6.178607 0
M  V30 38 H -1.505536 -1.284668 6.009738 0
M  V30 39 H 0.233403 -4.647610 3.679031 0
M  V30 40 H 0.765119 -2.322379 2.206714 0
M  V30 41 H 3.179202 -3.268143 4.066000 0
M  V30 42 H 3.208971 -2.076269 2.681564 0
M  V30 43 H 2.380411 -3.796230 1.084641 0
M  V30 44 H 2.389220 -5.002306 2.475655 0
M  V30 45 H -1.113847 -0.902804 1.826691 0
M  V30 46 H -3.637277 0.663252 0.759099 0
M  V30 47 H -5.000767 -0.405316 -1.132987 0
M  V30 END ATOM
M  V30 BEGIN BOND
M  V30 1 2 1 2
M  V30 2 1 2 3
M  V30 3 1 2 4
M  V30 4 2 4 5
M  V30 5 1 5 6
M  V30 6 2 6 7
M  V30 7 1 7 8
M  V30 8 2 8 9
M  V30 9 1 8 10
M  V30 10 2 10 11
M  V30 11 1 11 12
M  V30 12 1 12 13
M  V30 13 2 13 14
M  V30 14 1 14 15
M  V30 15 2 15 16
M  V30 16 1 16 17
M  V30 17 1 17 18
M  V30 18 2 18 19
M  V30 19 2 18 20
M  V30 20 1 18 21
M  V30 21 1 21 22
M  V30 22 1 22 23
M  V30 23 1 23 24
M  V30 24 2 17 25
M  V30 25 1 11 26
M  V30 26 1 26 27
M  V30 27 2 27 28
M  V30 28 1 28 29
M  V30 29 1 29 30
M  V30 30 1 9 4
M  V30 31 1 25 13
M  V30 32 2 30 26
M  V30 33 1 30 7
M  V30 34 1 24 22
M  V30 35 1 3 31
M  V30 36 1 5 32
M  V30 37 1 6 33
M  V30 38 1 9 34
M  V30 39 1 12 35
M  V30 40 1 14 36
M  V30 41 1 15 37
M  V30 42 1 16 38
M  V30 43 1 21 39
M  V30 44 1 22 40
M  V30 45 1 23 41
M  V30 46 1 23 42
M  V30 47 1 24 43
M  V30 48 1 24 44
M  V30 49 1 25 45
M  V30 50 1 27 46
M  V30 51 1 28 47
M  V30 END BOND
M  V30 END CTAB
M  END
>  <Dataset>  (213) 
ChEMBL_Kinases

>  <Ligand_Instance>  (213) 
nan

>  <PDB_ID>  (213) 
nan

>  <Standardized_SMILES>  (213) 
O=C(O)c1ccc2c(c1)nc(Nc1cccc(S(=O)(=O)NC3CC3)c1)c1ccsc12

>  <Name>  (213) 
nan

>  <Pocket>  (213) 
nan

>  <ATP_Site>  (213) 
nan

>  <Peripheral>  (213) 
nan

>  <Num_H_Atoms_ProtBoundConf>  (213) 
nan

>  <Num_Resolved_Atoms>  (213) 
nan

>  <Num_Not_Resolved_Atoms>  (213) 
nan

$$$$
CHEMBL3700552
     RDKit          3D

  0  0  0  0  0  0  0  0  0  0999 V3000
M  V30 BEGIN CTAB
M  V30 COUNTS 35 38 0 0 0
M  V30 BEGIN ATOM
M  V30 1 O 1.744533 -6.092016 0.538103 0
M  V30 2 C 1.306517 -4.977816 0.166064 0
M  V30 3 O 0.824919 -5.040973 -1.123349 0
M  V30 4 C 1.285710 -3.754449 0.947449 0
M  V30 5 C 1.752746 -3.654269 2.237757 0
M  V30 6 C 1.721896 -2.461030 2.965399 0
M  V30 7 C 1.202256 -1.337484 2.366936 0
M  V30 8 C 0.730851 -1.425826 1.071781 0
M  V30 9 C 0.771942 -2.610555 0.379154 0
M  V30 10 N 0.267675 -0.264021 0.629242 0
M  V30 11 C 0.215651 0.898042 1.265148 0
M  V30 12 N -0.349767 2.006319 0.533389 0
M  V30 13 C -0.950688 1.788624 -0.745684 0
M  V30 14 C -0.879396 2.617669 -1.851144 0
M  V30 15 C -1.544989 2.268084 -3.019291 0
M  V30 16 Cl -1.407891 3.359434 -4.372043 0
M  V30 17 C -2.285196 1.121041 -3.139960 0
M  V30 18 C -2.356063 0.286852 -2.023662 0
M  V30 19 Cl -3.332593 -1.157543 -2.280429 0
M  V30 20 C -1.688207 0.632908 -0.843170 0
M  V30 21 C 0.677194 1.009782 2.549527 0
M  V30 22 C 0.674547 2.142669 3.299144 0
M  V30 23 C 1.227357 1.977101 4.640110 0
M  V30 24 S 1.712884 0.148975 4.695993 0
M  V30 25 C 1.174337 -0.160097 3.075694 0
M  V30 26 H 0.390590 -5.863445 -1.518969 0
M  V30 27 H 2.161899 -4.530154 2.715193 0
M  V30 28 H 2.102504 -2.431211 3.987932 0
M  V30 29 H 0.370586 -2.534111 -0.619543 0
M  V30 30 H -0.297855 2.955685 0.977437 0
M  V30 31 H -0.285705 3.516436 -1.720920 0
M  V30 32 H -2.784832 0.902613 -4.083630 0
M  V30 33 H -1.899998 -0.148344 -0.132880 0
M  V30 34 H 0.331631 3.129825 3.054617 0
M  V30 35 H 1.309114 2.809829 5.407893 0
M  V30 END ATOM
M  V30 BEGIN BOND
M  V30 1 2 1 2
M  V30 2 1 2 3
M  V30 3 1 2 4
M  V30 4 2 4 5
M  V30 5 1 5 6
M  V30 6 2 6 7
M  V30 7 1 7 8
M  V30 8 2 8 9
M  V30 9 1 8 10
M  V30 10 2 10 11
M  V30 11 1 11 12
M  V30 12 1 12 13
M  V30 13 2 13 14
M  V30 14 1 14 15
M  V30 15 1 15 16
M  V30 16 2 15 17
M  V30 17 1 17 18
M  V30 18 1 18 19
M  V30 19 2 18 20
M  V30 20 1 11 21
M  V30 21 1 21 22
M  V30 22 2 22 23
M  V30 23 1 23 24
M  V30 24 1 24 25
M  V30 25 1 9 4
M  V30 26 1 20 13
M  V30 27 2 25 21
M  V30 28 1 25 7
M  V30 29 1 3 26
M  V30 30 1 5 27
M  V30 31 1 6 28
M  V30 32 1 9 29
M  V30 33 1 12 30
M  V30 34 1 14 31
M  V30 35 1 17 32
M  V30 36 1 20 33
M  V30 37 1 22 34
M  V30 38 1 23 35
M  V30 END BOND
M  V30 END CTAB
M  END
>  <Dataset>  (214) 
ChEMBL_Kinases

>  <Ligand_Instance>  (214) 
nan

>  <PDB_ID>  (214) 
nan

>  <Standardized_SMILES>  (214) 
O=C(O)c1ccc2c(c1)nc(Nc1cc(Cl)cc(Cl)c1)c1ccsc12

>  <Name>  (214) 
nan

>  <Pocket>  (214) 
nan

>  <ATP_Site>  (214) 
nan

>  <Peripheral>  (214) 
nan

>  <Num_H_Atoms_ProtBoundConf>  (214) 
nan

>  <Num_Resolved_Atoms>  (214) 
nan

>  <Num_Not_Resolved_Atoms>  (214) 
nan

$$$$
CHEMBL3700553
     RDKit          3D

  0  0  0  0  0  0  0  0  0  0999 V3000
M  V30 BEGIN CTAB
M  V30 COUNTS 35 38 0 0 0
M  V30 BEGIN ATOM
M  V30 1 O 1.426972 -6.165719 1.466300 0
M  V30 2 C 0.988000 -5.184965 0.810484 0
M  V30 3 O 0.156637 -5.641722 -0.184827 0
M  V30 4 C 1.295569 -3.785169 1.045879 0
M  V30 5 C 2.133793 -3.381533 2.063110 0
M  V30 6 C 2.416663 -2.030056 2.279061 0
M  V30 7 C 1.820142 -1.123226 1.429478 0
M  V30 8 C 0.982012 -1.532453 0.413708 0
M  V30 9 C 0.709002 -2.864246 0.207206 0
M  V30 10 N 0.515803 -0.489197 -0.272340 0
M  V30 11 C 0.770011 0.802230 -0.073467 0
M  V30 12 N 0.091508 1.660974 -1.022400 0
M  V30 13 C -1.268905 1.637155 -0.556136 0
M  V30 14 C -2.032274 2.345594 0.342890 0
M  V30 15 C -3.352463 2.018527 0.543142 0
M  V30 16 C -3.935188 0.981619 -0.148693 0
M  V30 17 F -5.258247 0.722424 0.117054 0
M  V30 18 C -3.223299 0.235473 -1.065023 0
M  V30 19 F -3.879361 -0.763489 -1.695672 0
M  V30 20 C -1.880208 0.580346 -1.257541 0
M  V30 21 C 1.616849 1.206867 0.953678 0
M  V30 22 C 1.867178 2.512788 1.142386 0
M  V30 23 C 2.797267 2.677450 2.292485 0
M  V30 24 S 3.140892 0.922806 2.892750 0
M  V30 25 C 2.143084 0.191479 1.711782 0
M  V30 26 H -0.410763 -6.450150 -0.104200 0
M  V30 27 H 2.559364 -4.156125 2.682601 0
M  V30 28 H 3.092368 -1.733781 3.098022 0
M  V30 29 H 0.032161 -3.078753 -0.620211 0
M  V30 30 H 0.510265 2.166558 -1.838542 0
M  V30 31 H -1.396432 3.102945 0.767392 0
M  V30 32 H -3.833799 2.642929 1.265642 0
M  V30 33 H -1.454793 -0.102321 -2.012155 0
M  V30 34 H 1.575610 3.432159 0.688370 0
M  V30 35 H 3.178743 3.771126 2.667078 0
M  V30 END ATOM
M  V30 BEGIN BOND
M  V30 1 2 1 2
M  V30 2 1 2 3
M  V30 3 1 2 4
M  V30 4 2 4 5
M  V30 5 1 5 6
M  V30 6 2 6 7
M  V30 7 1 7 8
M  V30 8 2 8 9
M  V30 9 1 8 10
M  V30 10 2 10 11
M  V30 11 1 11 12
M  V30 12 1 12 13
M  V30 13 2 13 14
M  V30 14 1 14 15
M  V30 15 2 15 16
M  V30 16 1 16 17
M  V30 17 1 16 18
M  V30 18 1 18 19
M  V30 19 2 18 20
M  V30 20 1 11 21
M  V30 21 1 21 22
M  V30 22 2 22 23
M  V30 23 1 23 24
M  V30 24 1 24 25
M  V30 25 1 9 4
M  V30 26 1 20 13
M  V30 27 2 25 21
M  V30 28 1 25 7
M  V30 29 1 3 26
M  V30 30 1 5 27
M  V30 31 1 6 28
M  V30 32 1 9 29
M  V30 33 1 12 30
M  V30 34 1 14 31
M  V30 35 1 15 32
M  V30 36 1 20 33
M  V30 37 1 22 34
M  V30 38 1 23 35
M  V30 END BOND
M  V30 END CTAB
M  END
>  <Dataset>  (215) 
ChEMBL_Kinases

>  <Ligand_Instance>  (215) 
nan

>  <PDB_ID>  (215) 
nan

>  <Standardized_SMILES>  (215) 
O=C(O)c1ccc2c(c1)nc(Nc1ccc(F)c(F)c1)c1ccsc12

>  <Name>  (215) 
nan

>  <Pocket>  (215) 
nan

>  <ATP_Site>  (215) 
nan

>  <Peripheral>  (215) 
nan

>  <Num_H_Atoms_ProtBoundConf>  (215) 
nan

>  <Num_Resolved_Atoms>  (215) 
nan

>  <Num_Not_Resolved_Atoms>  (215) 
nan

$$$$
CHEMBL3700563
     RDKit          3D

  0  0  0  0  0  0  0  0  0  0999 V3000
M  V30 BEGIN CTAB
M  V30 COUNTS 34 37 0 0 0
M  V30 BEGIN ATOM
M  V30 1 O 4.089732 -5.007468 0.561680 0
M  V30 2 C 2.978738 -4.464409 0.330845 0
M  V30 3 O 2.015739 -5.234535 -0.276389 0
M  V30 4 C 2.732425 -3.073307 0.696679 0
M  V30 5 C 3.722746 -2.331303 1.305109 0
M  V30 6 C 3.533497 -1.003414 1.670991 0
M  V30 7 C 2.278446 -0.523062 1.365976 0
M  V30 8 C 1.257702 -1.223970 0.759797 0
M  V30 9 C 1.495729 -2.531766 0.418514 0
M  V30 10 N 0.153349 -0.508499 0.587319 0
M  V30 11 C -0.119463 0.735803 0.894798 0
M  V30 12 N -1.380883 1.340318 0.627979 0
M  V30 13 C -2.545371 0.810407 0.024773 0
M  V30 14 C -3.699219 1.581236 -0.149241 0
M  V30 15 C -4.829995 1.071410 -0.733477 0
M  V30 16 C -4.870916 -0.230793 -1.174280 0
M  V30 17 F -6.011768 -0.684118 -1.743796 0
M  V30 18 C -3.766454 -1.042106 -1.031701 0
M  V30 19 Cl -3.838519 -2.690782 -1.597278 0
M  V30 20 C -2.655428 -0.482726 -0.438619 0
M  V30 21 C 0.867819 1.514968 1.514292 0
M  V30 22 N 0.955532 2.742895 1.949330 0
M  V30 23 C 1.785385 3.333700 2.449000 0
M  V30 24 S 3.129498 1.999188 2.506865 0
M  V30 25 C 2.061329 0.818963 1.726035 0
M  V30 26 H 1.925626 -6.249336 -0.138376 0
M  V30 27 H 4.679652 -2.794890 1.505704 0
M  V30 28 H 4.282587 -0.389634 2.148464 0
M  V30 29 H 0.673942 -3.045294 -0.052821 0
M  V30 30 H -1.487210 2.350985 0.920211 0
M  V30 31 H -3.698315 2.628022 0.193308 0
M  V30 32 H -5.676105 1.736809 -0.828539 0
M  V30 33 H -1.843377 -1.175267 -0.365330 0
M  V30 34 H 1.801945 4.478489 2.830418 0
M  V30 END ATOM
M  V30 BEGIN BOND
M  V30 1 2 1 2
M  V30 2 1 2 3
M  V30 3 1 2 4
M  V30 4 2 4 5
M  V30 5 1 5 6
M  V30 6 2 6 7
M  V30 7 1 7 8
M  V30 8 2 8 9
M  V30 9 1 8 10
M  V30 10 2 10 11
M  V30 11 1 11 12
M  V30 12 1 12 13
M  V30 13 2 13 14
M  V30 14 1 14 15
M  V30 15 2 15 16
M  V30 16 1 16 17
M  V30 17 1 16 18
M  V30 18 1 18 19
M  V30 19 2 18 20
M  V30 20 1 11 21
M  V30 21 1 21 22
M  V30 22 2 22 23
M  V30 23 1 23 24
M  V30 24 1 24 25
M  V30 25 1 9 4
M  V30 26 1 20 13
M  V30 27 2 25 21
M  V30 28 1 25 7
M  V30 29 1 3 26
M  V30 30 1 5 27
M  V30 31 1 6 28
M  V30 32 1 9 29
M  V30 33 1 12 30
M  V30 34 1 14 31
M  V30 35 1 15 32
M  V30 36 1 20 33
M  V30 37 1 23 34
M  V30 END BOND
M  V30 END CTAB
M  END
>  <Dataset>  (216) 
ChEMBL_Kinases

>  <Ligand_Instance>  (216) 
nan

>  <PDB_ID>  (216) 
nan

>  <Standardized_SMILES>  (216) 
O=C(O)c1ccc2c(c1)nc(Nc1ccc(F)c(Cl)c1)c1ncsc12

>  <Name>  (216) 
nan

>  <Pocket>  (216) 
nan

>  <ATP_Site>  (216) 
nan

>  <Peripheral>  (216) 
nan

>  <Num_H_Atoms_ProtBoundConf>  (216) 
nan

>  <Num_Resolved_Atoms>  (216) 
nan

>  <Num_Not_Resolved_Atoms>  (216) 
nan

$$$$
CHEMBL3700555
     RDKit          3D

  0  0  0  0  0  0  0  0  0  0999 V3000
M  V30 BEGIN CTAB
M  V30 COUNTS 36 39 0 0 0
M  V30 BEGIN ATOM
M  V30 1 N 2.262212 -6.488580 -0.478142 0
M  V30 2 C 2.559427 -5.494414 0.084821 0
M  V30 3 C 2.935378 -4.316415 0.764955 0
M  V30 4 C 3.984034 -4.392498 1.643690 0
M  V30 5 C 4.370252 -3.256672 2.306454 0
M  V30 6 F 5.383582 -3.132548 3.213255 0
M  V30 7 C 3.760340 -2.040497 2.136809 0
M  V30 8 C 2.683492 -1.917597 1.248830 0
M  V30 9 N 1.901764 -0.819413 0.847279 0
M  V30 10 C 0.557119 -0.398744 0.734481 0
M  V30 11 N 0.449144 0.730835 0.034886 0
M  V30 12 C -0.651117 1.409579 -0.267622 0
M  V30 13 C -0.672544 2.581534 -0.999411 0
M  V30 14 C -1.916106 3.136018 -1.202435 0
M  V30 15 C -1.928462 4.371197 -1.971115 0
M  V30 16 O -0.924202 4.951026 -2.449567 0
M  V30 17 O -3.017863 5.155130 -2.334113 0
M  V30 18 C -3.105218 2.617579 -0.739725 0
M  V30 19 C -3.018835 1.426329 -0.003774 0
M  V30 20 C -1.791419 0.819954 0.234020 0
M  V30 21 C -1.793554 -0.359575 0.977874 0
M  V30 22 S -3.007026 -1.301636 1.722323 0
M  V30 23 C -1.837029 -2.587376 2.409117 0
M  V30 24 C -0.615771 -2.088977 1.948857 0
M  V30 25 C -0.594160 -0.963288 1.223136 0
M  V30 26 C 2.318050 -3.099716 0.590527 0
M  V30 27 H 4.572088 -5.269609 1.894948 0
M  V30 28 H 3.966421 -1.077794 2.593867 0
M  V30 29 H 2.725272 -0.218305 0.569974 0
M  V30 30 H 0.256376 2.987822 -1.360774 0
M  V30 31 H -3.056780 6.160586 -2.184620 0
M  V30 32 H -4.017483 3.140154 -0.958145 0
M  V30 33 H -3.947027 0.998073 0.375634 0
M  V30 34 H -2.206754 -3.454112 3.005463 0
M  V30 35 H 0.131405 -2.774631 2.313136 0
M  V30 36 H 1.498661 -3.160291 -0.129909 0
M  V30 END ATOM
M  V30 BEGIN BOND
M  V30 1 3 1 2
M  V30 2 1 2 3
M  V30 3 2 3 4
M  V30 4 1 4 5
M  V30 5 1 5 6
M  V30 6 2 5 7
M  V30 7 1 7 8
M  V30 8 1 8 9
M  V30 9 1 9 10
M  V30 10 2 10 11
M  V30 11 1 11 12
M  V30 12 2 12 13
M  V30 13 1 13 14
M  V30 14 1 14 15
M  V30 15 2 15 16
M  V30 16 1 15 17
M  V30 17 2 14 18
M  V30 18 1 18 19
M  V30 19 2 19 20
M  V30 20 1 20 21
M  V30 21 1 21 22
M  V30 22 1 22 23
M  V30 23 2 23 24
M  V30 24 1 24 25
M  V30 25 2 8 26
M  V30 26 1 26 3
M  V30 27 1 25 10
M  V30 28 1 20 12
M  V30 29 2 25 21
M  V30 30 1 4 27
M  V30 31 1 7 28
M  V30 32 1 9 29
M  V30 33 1 13 30
M  V30 34 1 17 31
M  V30 35 1 18 32
M  V30 36 1 19 33
M  V30 37 1 23 34
M  V30 38 1 24 35
M  V30 39 1 26 36
M  V30 END BOND
M  V30 END CTAB
M  END
>  <Dataset>  (217) 
ChEMBL_Kinases

>  <Ligand_Instance>  (217) 
nan

>  <PDB_ID>  (217) 
nan

>  <Standardized_SMILES>  (217) 
N#Cc1cc(F)cc(Nc2nc3cc(C(=O)O)ccc3c3sccc23)c1

>  <Name>  (217) 
nan

>  <Pocket>  (217) 
nan

>  <ATP_Site>  (217) 
nan

>  <Peripheral>  (217) 
nan

>  <Num_H_Atoms_ProtBoundConf>  (217) 
nan

>  <Num_Resolved_Atoms>  (217) 
nan

>  <Num_Not_Resolved_Atoms>  (217) 
nan

$$$$
CHEMBL3700556
     RDKit          3D

  0  0  0  0  0  0  0  0  0  0999 V3000
M  V30 BEGIN CTAB
M  V30 COUNTS 37 41 0 0 0
M  V30 BEGIN ATOM
M  V30 1 F 2.751736 -4.864113 5.035606 0
M  V30 2 C 2.672905 -3.795358 4.173582 0
M  V30 3 C 3.548089 -2.733206 4.275255 0
M  V30 4 C 3.406716 -1.692048 3.366762 0
M  V30 5 Cl 4.553253 -0.383311 3.566170 0
M  V30 6 C 2.431161 -1.696802 2.386655 0
M  V30 7 C 1.602990 -2.793312 2.358316 0
M  V30 8 N 0.576247 -2.845563 1.380769 0
M  V30 9 C 0.171025 -2.022257 0.302279 0
M  V30 10 N -0.195642 -0.815705 0.742225 0
M  V30 11 C -0.641487 0.205764 0.017878 0
M  V30 12 C -1.017238 1.436001 0.439843 0
M  V30 13 C -1.463813 2.408653 -0.431541 0
M  V30 14 C -1.851343 3.718772 0.073786 0
M  V30 15 N -2.305868 4.763761 -0.609122 0
M  V30 16 N -2.537096 5.760635 0.228012 0
M  V30 17 N -2.219995 5.319657 1.437461 0
M  V30 18 N -1.795196 4.066508 1.373615 0
M  V30 19 C -1.520987 2.094627 -1.774413 0
M  V30 20 C -1.142979 0.841648 -2.243420 0
M  V30 21 C -0.701942 -0.097112 -1.325949 0
M  V30 22 C -0.345389 -1.300055 -1.837069 0
M  V30 23 S -0.332329 -1.929065 -3.483596 0
M  V30 24 C 0.325470 -3.634985 -2.969187 0
M  V30 25 C 0.463556 -3.531949 -1.581912 0
M  V30 26 C 0.114268 -2.331954 -1.035198 0
M  V30 27 C 1.682439 -3.848771 3.214043 0
M  V30 28 H 4.290605 -2.783031 5.060051 0
M  V30 29 H 2.369228 -0.849119 1.702476 0
M  V30 30 H -0.134820 -3.632218 1.319947 0
M  V30 31 H -0.947588 1.614189 1.503412 0
M  V30 32 H -1.490843 3.502754 2.189817 0
M  V30 33 H -1.867604 2.832469 -2.495937 0
M  V30 34 H -1.213103 0.653748 -3.319733 0
M  V30 35 H 0.531545 -4.470028 -3.650731 0
M  V30 36 H 0.834912 -4.418541 -1.098984 0
M  V30 37 H 0.996767 -4.707107 3.151803 0
M  V30 END ATOM
M  V30 BEGIN BOND
M  V30 1 1 1 2
M  V30 2 2 2 3
M  V30 3 1 3 4
M  V30 4 1 4 5
M  V30 5 2 4 6
M  V30 6 1 6 7
M  V30 7 1 7 8
M  V30 8 1 8 9
M  V30 9 2 9 10
M  V30 10 1 10 11
M  V30 11 2 11 12
M  V30 12 1 12 13
M  V30 13 1 13 14
M  V30 14 2 14 15
M  V30 15 1 15 16
M  V30 16 2 16 17
M  V30 17 1 17 18
M  V30 18 2 13 19
M  V30 19 1 19 20
M  V30 20 2 20 21
M  V30 21 1 21 22
M  V30 22 1 22 23
M  V30 23 1 23 24
M  V30 24 2 24 25
M  V30 25 1 25 26
M  V30 26 2 7 27
M  V30 27 1 27 2
M  V30 28 1 26 9
M  V30 29 1 21 11
M  V30 30 2 26 22
M  V30 31 1 18 14
M  V30 32 1 3 28
M  V30 33 1 6 29
M  V30 34 1 8 30
M  V30 35 1 12 31
M  V30 36 1 18 32
M  V30 37 1 19 33
M  V30 38 1 20 34
M  V30 39 1 24 35
M  V30 40 1 25 36
M  V30 41 1 27 37
M  V30 END BOND
M  V30 END CTAB
M  END
>  <Dataset>  (218) 
ChEMBL_Kinases

>  <Ligand_Instance>  (218) 
nan

>  <PDB_ID>  (218) 
nan

>  <Standardized_SMILES>  (218) 
Fc1cc(Cl)cc(Nc2nc3cc(-c4nnn[nH]4)ccc3c3sccc23)c1

>  <Name>  (218) 
nan

>  <Pocket>  (218) 
nan

>  <ATP_Site>  (218) 
nan

>  <Peripheral>  (218) 
nan

>  <Num_H_Atoms_ProtBoundConf>  (218) 
nan

>  <Num_Resolved_Atoms>  (218) 
nan

>  <Num_Not_Resolved_Atoms>  (218) 
nan

$$$$
CHEMBL3700557
     RDKit          3D

  0  0  0  0  0  0  0  0  0  0999 V3000
M  V30 BEGIN CTAB
M  V30 COUNTS 39 43 0 0 0
M  V30 BEGIN ATOM
M  V30 1 C -4.042253 -1.599307 6.822424 0
M  V30 2 C -3.051520 -1.615972 6.112247 0
M  V30 3 C -1.891436 -1.621209 5.255495 0
M  V30 4 C -0.635581 -1.780862 5.801397 0
M  V30 5 C 0.500286 -1.786892 4.992130 0
M  V30 6 C 0.357093 -1.630786 3.633457 0
M  V30 7 C -0.912335 -1.474735 3.125642 0
M  V30 8 N -1.123047 -1.323201 1.730494 0
M  V30 9 C -0.299118 -1.227734 0.578337 0
M  V30 10 N -0.051484 0.016967 0.165266 0
M  V30 11 C 0.671977 0.414005 -0.866477 0
M  V30 12 C 0.897514 1.697637 -1.257001 0
M  V30 13 C 1.684857 1.879205 -2.372195 0
M  V30 14 C 1.947956 3.246224 -2.822076 0
M  V30 15 N 2.674740 3.641039 -3.884016 0
M  V30 16 N 2.652297 4.976098 -3.927270 0
M  V30 17 N 1.933172 5.409845 -2.923697 0
M  V30 18 N 1.494386 4.370275 -2.237417 0
M  V30 19 C 2.232326 0.831330 -3.080090 0
M  V30 20 C 1.997273 -0.464802 -2.674927 0
M  V30 21 C 1.204793 -0.654859 -1.552426 0
M  V30 22 C 1.001098 -1.968438 -1.196202 0
M  V30 23 S 1.548944 -3.469342 -1.901388 0
M  V30 24 C 0.654656 -4.528194 -0.602434 0
M  V30 25 C 0.018692 -3.583026 0.249200 0
M  V30 26 C 0.234174 -2.301083 -0.106602 0
M  V30 27 C -2.052863 -1.463671 3.894294 0
M  V30 28 H -4.896819 -1.570278 7.424528 0
M  V30 29 H -0.514814 -1.902447 6.874056 0
M  V30 30 H 1.449741 -1.916029 5.476085 0
M  V30 31 H 1.247343 -1.637253 3.013777 0
M  V30 32 H -2.076608 -1.243894 1.298006 0
M  V30 33 H 0.452178 2.465342 -0.675709 0
M  V30 34 H 0.908468 4.498528 -1.406772 0
M  V30 35 H 2.841123 1.055841 -3.947476 0
M  V30 36 H 2.434114 -1.284782 -3.240926 0
M  V30 37 H 0.668438 -5.706518 -0.534650 0
M  V30 38 H -0.532707 -4.049330 1.042224 0
M  V30 39 H -3.040089 -1.338499 3.466803 0
M  V30 END ATOM
M  V30 BEGIN BOND
M  V30 1 3 1 2
M  V30 2 1 2 3
M  V30 3 2 3 4
M  V30 4 1 4 5
M  V30 5 2 5 6
M  V30 6 1 6 7
M  V30 7 1 7 8
M  V30 8 1 8 9
M  V30 9 2 9 10
M  V30 10 1 10 11
M  V30 11 2 11 12
M  V30 12 1 12 13
M  V30 13 1 13 14
M  V30 14 2 14 15
M  V30 15 1 15 16
M  V30 16 2 16 17
M  V30 17 1 17 18
M  V30 18 2 13 19
M  V30 19 1 19 20
M  V30 20 2 20 21
M  V30 21 1 21 22
M  V30 22 1 22 23
M  V30 23 1 23 24
M  V30 24 2 24 25
M  V30 25 1 25 26
M  V30 26 2 7 27
M  V30 27 1 27 3
M  V30 28 1 26 9
M  V30 29 1 21 11
M  V30 30 2 26 22
M  V30 31 1 18 14
M  V30 32 1 1 28
M  V30 33 1 4 29
M  V30 34 1 5 30
M  V30 35 1 6 31
M  V30 36 1 8 32
M  V30 37 1 12 33
M  V30 38 1 18 34
M  V30 39 1 19 35
M  V30 40 1 20 36
M  V30 41 1 24 37
M  V30 42 1 25 38
M  V30 43 1 27 39
M  V30 END BOND
M  V30 END CTAB
M  END
>  <Dataset>  (219) 
ChEMBL_Kinases

>  <Ligand_Instance>  (219) 
nan

>  <PDB_ID>  (219) 
nan

>  <Standardized_SMILES>  (219) 
C#Cc1cccc(Nc2nc3cc(-c4nnn[nH]4)ccc3c3sccc23)c1

>  <Name>  (219) 
nan

>  <Pocket>  (219) 
nan

>  <ATP_Site>  (219) 
nan

>  <Peripheral>  (219) 
nan

>  <Num_H_Atoms_ProtBoundConf>  (219) 
nan

>  <Num_Resolved_Atoms>  (219) 
nan

>  <Num_Not_Resolved_Atoms>  (219) 
nan

$$$$
CHEMBL3700558
     RDKit          3D

  0  0  0  0  0  0  0  0  0  0999 V3000
M  V30 BEGIN CTAB
M  V30 COUNTS 37 41 0 0 0
M  V30 BEGIN ATOM
M  V30 1 F 2.852473 -5.254548 4.680441 0
M  V30 2 C 2.763049 -4.010793 4.093522 0
M  V30 3 C 3.413572 -2.911275 4.566178 0
M  V30 4 C 3.245730 -1.679518 3.894584 0
M  V30 5 F 3.971351 -0.704621 4.515522 0
M  V30 6 C 2.414519 -1.700947 2.794756 0
M  V30 7 C 1.745487 -2.873264 2.328687 0
M  V30 8 N 1.118566 -2.328271 1.244732 0
M  V30 9 C 0.485386 -1.787983 0.159876 0
M  V30 10 N 0.031007 -0.560796 0.568315 0
M  V30 11 C -0.575300 0.315300 -0.212483 0
M  V30 12 C -0.992335 1.550891 0.185746 0
M  V30 13 C -1.592212 2.487335 -0.618324 0
M  V30 14 C -2.031749 3.736886 -0.061600 0
M  V30 15 N -2.406468 4.945049 -0.466914 0
M  V30 16 N -2.653639 5.734530 0.558838 0
M  V30 17 N -2.458612 5.049164 1.666774 0
M  V30 18 N -2.074895 3.822437 1.324066 0
M  V30 19 C -1.766676 2.073150 -1.962407 0
M  V30 20 C -1.344335 0.831466 -2.352433 0
M  V30 21 C -0.742508 -0.075104 -1.520596 0
M  V30 22 C -0.322151 -1.296299 -2.012707 0
M  V30 23 S -0.433137 -2.074469 -3.566794 0
M  V30 24 C 0.436240 -3.664186 -2.950276 0
M  V30 25 C 0.703134 -3.373637 -1.596387 0
M  V30 26 C 0.303322 -2.161104 -1.139682 0
M  V30 27 C 1.930811 -4.029117 2.988004 0
M  V30 28 H 4.015165 -3.057790 5.443960 0
M  V30 29 H 2.462624 -0.645110 2.475351 0
M  V30 30 H 0.329692 -3.051122 1.311073 0
M  V30 31 H -0.778318 1.698938 1.225596 0
M  V30 32 H -1.907324 3.193174 2.154033 0
M  V30 33 H -2.219687 2.802168 -2.639382 0
M  V30 34 H -1.490503 0.553930 -3.414602 0
M  V30 35 H 0.617495 -4.516059 -3.621261 0
M  V30 36 H 1.186651 -4.213146 -1.103320 0
M  V30 37 H 1.361225 -4.781679 2.502085 0
M  V30 END ATOM
M  V30 BEGIN BOND
M  V30 1 1 1 2
M  V30 2 2 2 3
M  V30 3 1 3 4
M  V30 4 1 4 5
M  V30 5 2 4 6
M  V30 6 1 6 7
M  V30 7 1 7 8
M  V30 8 1 8 9
M  V30 9 2 9 10
M  V30 10 1 10 11
M  V30 11 2 11 12
M  V30 12 1 12 13
M  V30 13 1 13 14
M  V30 14 2 14 15
M  V30 15 1 15 16
M  V30 16 2 16 17
M  V30 17 1 17 18
M  V30 18 2 13 19
M  V30 19 1 19 20
M  V30 20 2 20 21
M  V30 21 1 21 22
M  V30 22 1 22 23
M  V30 23 1 23 24
M  V30 24 2 24 25
M  V30 25 1 25 26
M  V30 26 2 7 27
M  V30 27 1 27 2
M  V30 28 1 26 9
M  V30 29 1 21 11
M  V30 30 2 26 22
M  V30 31 1 18 14
M  V30 32 1 3 28
M  V30 33 1 6 29
M  V30 34 1 8 30
M  V30 35 1 12 31
M  V30 36 1 18 32
M  V30 37 1 19 33
M  V30 38 1 20 34
M  V30 39 1 24 35
M  V30 40 1 25 36
M  V30 41 1 27 37
M  V30 END BOND
M  V30 END CTAB
M  END
>  <Dataset>  (220) 
ChEMBL_Kinases

>  <Ligand_Instance>  (220) 
nan

>  <PDB_ID>  (220) 
nan

>  <Standardized_SMILES>  (220) 
Fc1cc(F)cc(Nc2nc3cc(-c4nnn[nH]4)ccc3c3sccc23)c1

>  <Name>  (220) 
nan

>  <Pocket>  (220) 
nan

>  <ATP_Site>  (220) 
nan

>  <Peripheral>  (220) 
nan

>  <Num_H_Atoms_ProtBoundConf>  (220) 
nan

>  <Num_Resolved_Atoms>  (220) 
nan

>  <Num_Not_Resolved_Atoms>  (220) 
nan

$$$$
CHEMBL3700559
     RDKit          3D

  0  0  0  0  0  0  0  0  0  0999 V3000
M  V30 BEGIN CTAB
M  V30 COUNTS 23 25 0 0 0
M  V30 BEGIN ATOM
M  V30 1 O 0.571540 -2.631933 4.284519 0
M  V30 2 C 0.821339 -2.839155 3.083326 0
M  V30 3 O 1.217654 -4.126652 2.838457 0
M  V30 4 C 0.701336 -1.811268 2.052178 0
M  V30 5 C 0.987255 -2.072547 0.718867 0
M  V30 6 C 0.871797 -1.092157 -0.258284 0
M  V30 7 C 0.460738 0.135401 0.182766 0
M  V30 8 C 0.170086 0.410999 1.520839 0
M  V30 9 C 0.283944 -0.547431 2.469963 0
M  V30 10 N -0.217091 1.690457 1.722878 0
M  V30 11 C -0.345375 2.666237 0.833848 0
M  V30 12 O -0.730451 3.805439 1.265755 0
M  V30 13 C -0.060724 2.418852 -0.515608 0
M  V30 14 N -0.105429 3.191722 -1.575122 0
M  V30 15 C 0.118061 3.014225 -2.663561 0
M  V30 16 S 0.608601 1.159820 -2.515277 0
M  V30 17 C 0.335889 1.143246 -0.783259 0
M  V30 18 H 0.718859 -4.937066 3.185624 0
M  V30 19 H 1.312010 -3.065092 0.409753 0
M  V30 20 H 1.081936 -1.250819 -1.296013 0
M  V30 21 H 0.051445 -0.291636 3.479050 0
M  V30 22 H -0.436873 1.892023 2.746474 0
M  V30 23 H 0.098100 3.614177 -3.578061 0
M  V30 END ATOM
M  V30 BEGIN BOND
M  V30 1 2 1 2
M  V30 2 1 2 3
M  V30 3 1 2 4
M  V30 4 2 4 5
M  V30 5 1 5 6
M  V30 6 2 6 7
M  V30 7 1 7 8
M  V30 8 2 8 9
M  V30 9 1 8 10
M  V30 10 1 10 11
M  V30 11 2 11 12
M  V30 12 1 11 13
M  V30 13 1 13 14
M  V30 14 2 14 15
M  V30 15 1 15 16
M  V30 16 1 16 17
M  V30 17 1 9 4
M  V30 18 2 17 13
M  V30 19 1 17 7
M  V30 20 1 3 18
M  V30 21 1 5 19
M  V30 22 1 6 20
M  V30 23 1 9 21
M  V30 24 1 10 22
M  V30 25 1 15 23
M  V30 END BOND
M  V30 END CTAB
M  END
>  <Dataset>  (221) 
ChEMBL_Kinases

>  <Ligand_Instance>  (221) 
nan

>  <PDB_ID>  (221) 
nan

>  <Standardized_SMILES>  (221) 
O=C(O)c1ccc2c(c1)[nH]c(=O)c1ncsc12

>  <Name>  (221) 
nan

>  <Pocket>  (221) 
nan

>  <ATP_Site>  (221) 
nan

>  <Peripheral>  (221) 
nan

>  <Num_H_Atoms_ProtBoundConf>  (221) 
nan

>  <Num_Resolved_Atoms>  (221) 
nan

>  <Num_Not_Resolved_Atoms>  (221) 
nan

$$$$
CHEMBL3700560
     RDKit          3D

  0  0  0  0  0  0  0  0  0  0999 V3000
M  V30 BEGIN CTAB
M  V30 COUNTS 25 27 0 0 0
M  V30 BEGIN ATOM
M  V30 1 N -0.983004 -4.753952 3.770884 0
M  V30 2 C -0.528377 -3.574256 2.982530 0
M  V30 3 N 0.487743 -3.226190 2.648320 0
M  V30 4 C 0.875460 -2.178071 1.949751 0
M  V30 5 C 2.103207 -1.713088 1.518233 0
M  V30 6 O 3.188097 -2.336237 1.782026 0
M  V30 7 N 2.231745 -0.606945 0.813334 0
M  V30 8 C 1.240526 0.212148 0.416504 0
M  V30 9 C 1.336933 1.371333 -0.317790 0
M  V30 10 C 0.179463 2.063092 -0.616029 0
M  V30 11 C 0.294842 3.291061 -1.395423 0
M  V30 12 O -0.675762 3.984445 -1.716170 0
M  V30 13 O 1.522845 3.764519 -1.832297 0
M  V30 14 C -1.067777 1.635752 -0.205750 0
M  V30 15 C -1.207849 0.465281 0.540612 0
M  V30 16 C -0.027369 -0.191466 0.814357 0
M  V30 17 C -0.173937 -1.358832 1.559530 0
M  V30 18 S -1.592674 -2.182972 2.237138 0
M  V30 19 H -0.728286 -4.574313 4.775092 0
M  V30 20 H -1.465898 -5.594361 3.368712 0
M  V30 21 H 3.190274 -0.268905 0.492035 0
M  V30 22 H 2.339084 1.651126 -0.607782 0
M  V30 23 H 1.668266 4.425167 -2.576868 0
M  V30 24 H -1.959712 2.195937 -0.452507 0
M  V30 25 H -2.162392 0.095093 0.881520 0
M  V30 END ATOM
M  V30 BEGIN BOND
M  V30 1 1 1 2
M  V30 2 2 2 3
M  V30 3 1 3 4
M  V30 4 1 4 5
M  V30 5 2 5 6
M  V30 6 1 5 7
M  V30 7 1 7 8
M  V30 8 2 8 9
M  V30 9 1 9 10
M  V30 10 1 10 11
M  V30 11 2 11 12
M  V30 12 1 11 13
M  V30 13 2 10 14
M  V30 14 1 14 15
M  V30 15 2 15 16
M  V30 16 1 16 17
M  V30 17 1 17 18
M  V30 18 1 18 2
M  V30 19 2 17 4
M  V30 20 1 16 8
M  V30 21 1 1 19
M  V30 22 1 1 20
M  V30 23 1 7 21
M  V30 24 1 9 22
M  V30 25 1 13 23
M  V30 26 1 14 24
M  V30 27 1 15 25
M  V30 END BOND
M  V30 END CTAB
M  END
>  <Dataset>  (222) 
ChEMBL_Kinases

>  <Ligand_Instance>  (222) 
nan

>  <PDB_ID>  (222) 
nan

>  <Standardized_SMILES>  (222) 
Nc1nc2c(=O)[nH]c3cc(C(=O)O)ccc3c2s1

>  <Name>  (222) 
nan

>  <Pocket>  (222) 
nan

>  <ATP_Site>  (222) 
nan

>  <Peripheral>  (222) 
nan

>  <Num_H_Atoms_ProtBoundConf>  (222) 
nan

>  <Num_Resolved_Atoms>  (222) 
nan

>  <Num_Not_Resolved_Atoms>  (222) 
nan

$$$$
CHEMBL3700561
     RDKit          3D

  0  0  0  0  0  0  0  0  0  0999 V3000
M  V30 BEGIN CTAB
M  V30 COUNTS 34 37 0 0 0
M  V30 BEGIN ATOM
M  V30 1 O 4.456623 -4.544859 2.414319 0
M  V30 2 C 3.252974 -4.888563 2.339085 0
M  V30 3 O 3.288301 -6.204826 2.769507 0
M  V30 4 C 2.107272 -4.104348 1.906973 0
M  V30 5 C 0.828046 -4.614766 1.875138 0
M  V30 6 C -0.238163 -3.848524 1.464795 0
M  V30 7 C 0.070553 -2.550962 1.094497 0
M  V30 8 C 1.343474 -2.021111 1.119182 0
M  V30 9 C 2.392837 -2.801431 1.532325 0
M  V30 10 N 1.364961 -0.753400 0.711417 0
M  V30 11 C 0.349683 -0.002131 0.310760 0
M  V30 12 N 0.716755 1.324888 -0.090400 0
M  V30 13 C -0.168329 2.379226 -0.432027 0
M  V30 14 C -1.166219 2.711305 0.467544 0
M  V30 15 C -2.074397 3.702651 0.176926 0
M  V30 16 C -2.051943 4.427299 -1.019164 0
M  V30 17 C -1.047405 4.090794 -1.918004 0
M  V30 18 C -0.140487 3.094522 -1.619395 0
M  V30 19 C -0.935932 -0.498923 0.273167 0
M  V30 20 N -2.035048 0.093184 -0.096668 0
M  V30 21 C -3.133926 -0.464835 -0.093088 0
M  V30 22 S -2.737624 -2.210579 0.538617 0
M  V30 23 C -1.019535 -1.793835 0.680121 0
M  V30 24 H 3.579435 -6.469092 3.702124 0
M  V30 25 H 0.639233 -5.642604 2.176736 0
M  V30 26 H -1.247352 -4.230195 1.433568 0
M  V30 27 H 3.347720 -2.319007 1.526150 0
M  V30 28 H 1.672861 1.674104 -0.179540 0
M  V30 29 H -1.235094 2.202837 1.426055 0
M  V30 30 H -2.875225 3.985037 0.873995 0
M  V30 31 H -2.752063 5.207214 -1.265798 0
M  V30 32 H -0.988698 4.629734 -2.872837 0
M  V30 33 H 0.638582 2.840300 -2.332382 0
M  V30 34 H -4.203474 0.057412 -0.435454 0
M  V30 END ATOM
M  V30 BEGIN BOND
M  V30 1 2 1 2
M  V30 2 1 2 3
M  V30 3 1 2 4
M  V30 4 2 4 5
M  V30 5 1 5 6
M  V30 6 2 6 7
M  V30 7 1 7 8
M  V30 8 2 8 9
M  V30 9 1 8 10
M  V30 10 2 10 11
M  V30 11 1 11 12
M  V30 12 1 12 13
M  V30 13 2 13 14
M  V30 14 1 14 15
M  V30 15 2 15 16
M  V30 16 1 16 17
M  V30 17 2 17 18
M  V30 18 1 11 19
M  V30 19 1 19 20
M  V30 20 2 20 21
M  V30 21 1 21 22
M  V30 22 1 22 23
M  V30 23 1 9 4
M  V30 24 1 18 13
M  V30 25 2 23 19
M  V30 26 1 23 7
M  V30 27 1 3 24
M  V30 28 1 5 25
M  V30 29 1 6 26
M  V30 30 1 9 27
M  V30 31 1 12 28
M  V30 32 1 14 29
M  V30 33 1 15 30
M  V30 34 1 16 31
M  V30 35 1 17 32
M  V30 36 1 18 33
M  V30 37 1 21 34
M  V30 END BOND
M  V30 END CTAB
M  END
>  <Dataset>  (223) 
ChEMBL_Kinases

>  <Ligand_Instance>  (223) 
nan

>  <PDB_ID>  (223) 
nan

>  <Standardized_SMILES>  (223) 
O=C(O)c1ccc2c(c1)nc(Nc1ccccc1)c1ncsc12

>  <Name>  (223) 
nan

>  <Pocket>  (223) 
nan

>  <ATP_Site>  (223) 
nan

>  <Peripheral>  (223) 
nan

>  <Num_H_Atoms_ProtBoundConf>  (223) 
nan

>  <Num_Resolved_Atoms>  (223) 
nan

>  <Num_Not_Resolved_Atoms>  (223) 
nan

$$$$
CHEMBL3700562
     RDKit          3D

  0  0  0  0  0  0  0  0  0  0999 V3000
M  V30 BEGIN CTAB
M  V30 COUNTS 38 41 0 0 0
M  V30 BEGIN ATOM
M  V30 1 C -0.581522 -4.423458 6.089925 0
M  V30 2 O -1.228359 -3.711405 5.050450 0
M  V30 3 C -0.511539 -3.139242 4.011764 0
M  V30 4 C 0.853429 -3.170363 3.837286 0
M  V30 5 C 1.459693 -2.562319 2.759055 0
M  V30 6 C 0.674163 -1.897455 1.818359 0
M  V30 7 C -0.697594 -1.850803 1.968960 0
M  V30 8 N -1.505585 -1.173609 1.012172 0
M  V30 9 C -0.844887 -0.553733 -0.093740 0
M  V30 10 N -0.485431 0.709632 0.116594 0
M  V30 11 C 0.134126 1.546997 -0.695932 0
M  V30 12 C 0.505850 2.848636 -0.482700 0
M  V30 13 C 1.149788 3.527569 -1.495053 0
M  V30 14 C 1.545857 4.912496 -1.269603 0
M  V30 15 O 2.139381 5.556031 -2.187145 0
M  V30 16 O 1.285604 5.546179 -0.064261 0
M  V30 17 C 1.420672 2.921413 -2.702793 0
M  V30 18 C 1.066241 1.601443 -2.975263 0
M  V30 19 C 0.427791 0.986557 -1.920464 0
M  V30 20 C 0.064492 -0.352364 -2.187456 0
M  V30 21 S 0.274854 -1.372328 -3.606970 0
M  V30 22 C -0.583644 -2.829427 -2.741323 0
M  V30 23 N -0.826462 -2.365861 -1.728647 0
M  V30 24 C -0.571883 -1.156307 -1.303640 0
M  V30 25 C -1.291217 -2.470196 3.063373 0
M  V30 26 H -1.295976 -5.094358 6.610423 0
M  V30 27 H -0.210152 -3.727647 6.878210 0
M  V30 28 H 0.282057 -4.990169 5.699242 0
M  V30 29 H 1.416677 -3.698790 4.594994 0
M  V30 30 H 2.541993 -2.650418 2.722776 0
M  V30 31 H 1.181696 -1.431781 0.985467 0
M  V30 32 H -2.535161 -1.144527 1.134568 0
M  V30 33 H 0.261049 3.248513 0.479075 0
M  V30 34 H 1.931108 6.301733 0.202582 0
M  V30 35 H 1.931179 3.489570 -3.479160 0
M  V30 36 H 1.266918 1.104248 -3.912177 0
M  V30 37 H -0.783808 -3.958935 -3.232005 0
M  V30 38 H -2.386677 -2.396654 3.125238 0
M  V30 END ATOM
M  V30 BEGIN BOND
M  V30 1 1 1 2
M  V30 2 1 2 3
M  V30 3 2 3 4
M  V30 4 1 4 5
M  V30 5 2 5 6
M  V30 6 1 6 7
M  V30 7 1 7 8
M  V30 8 1 8 9
M  V30 9 2 9 10
M  V30 10 1 10 11
M  V30 11 2 11 12
M  V30 12 1 12 13
M  V30 13 1 13 14
M  V30 14 2 14 15
M  V30 15 1 14 16
M  V30 16 2 13 17
M  V30 17 1 17 18
M  V30 18 2 18 19
M  V30 19 1 19 20
M  V30 20 1 20 21
M  V30 21 1 21 22
M  V30 22 2 22 23
M  V30 23 1 23 24
M  V30 24 2 7 25
M  V30 25 1 25 3
M  V30 26 1 24 9
M  V30 27 1 19 11
M  V30 28 2 24 20
M  V30 29 1 1 26
M  V30 30 1 1 27
M  V30 31 1 1 28
M  V30 32 1 4 29
M  V30 33 1 5 30
M  V30 34 1 6 31
M  V30 35 1 8 32
M  V30 36 1 12 33
M  V30 37 1 16 34
M  V30 38 1 17 35
M  V30 39 1 18 36
M  V30 40 1 22 37
M  V30 41 1 25 38
M  V30 END BOND
M  V30 END CTAB
M  END
>  <Dataset>  (224) 
ChEMBL_Kinases

>  <Ligand_Instance>  (224) 
nan

>  <PDB_ID>  (224) 
nan

>  <Standardized_SMILES>  (224) 
COc1cccc(Nc2nc3cc(C(=O)O)ccc3c3scnc23)c1

>  <Name>  (224) 
nan

>  <Pocket>  (224) 
nan

>  <ATP_Site>  (224) 
nan

>  <Peripheral>  (224) 
nan

>  <Num_H_Atoms_ProtBoundConf>  (224) 
nan

>  <Num_Resolved_Atoms>  (224) 
nan

>  <Num_Not_Resolved_Atoms>  (224) 
nan

$$$$
CHEMBL3700554
     RDKit          3D

  0  0  0  0  0  0  0  0  0  0999 V3000
M  V30 BEGIN CTAB
M  V30 COUNTS 35 38 0 0 0
M  V30 BEGIN ATOM
M  V30 1 O 1.988151 -6.472135 0.656406 0
M  V30 2 C 1.468165 -5.515306 0.024598 0
M  V30 3 O 0.805851 -5.816535 -1.142141 0
M  V30 4 C 1.577798 -4.139366 0.534323 0
M  V30 5 C 2.258313 -3.929018 1.715495 0
M  V30 6 C 2.350660 -2.621987 2.182621 0
M  V30 7 C 1.761006 -1.618691 1.443254 0
M  V30 8 C 1.084355 -1.846745 0.264032 0
M  V30 9 C 0.988235 -3.135385 -0.205004 0
M  V30 10 N 0.596401 -0.720723 -0.272616 0
M  V30 11 C 0.717624 0.511460 0.228884 0
M  V30 12 N 0.075040 1.462214 -0.611739 0
M  V30 13 C -1.300408 1.787069 -0.489252 0
M  V30 14 C -1.921606 2.748247 -1.294465 0
M  V30 15 C -3.260625 3.070566 -1.188050 0
M  V30 16 F -3.790999 4.013853 -2.003744 0
M  V30 17 C -4.046296 2.413295 -0.234490 0
M  V30 18 C -3.443914 1.475500 0.552071 0
M  V30 19 Cl -4.410866 0.630752 1.761063 0
M  V30 20 C -2.105919 1.158462 0.440648 0
M  V30 21 C 1.391457 0.754689 1.408014 0
M  V30 22 C 1.510377 1.996656 1.906559 0
M  V30 23 C 2.237912 2.015279 3.118005 0
M  V30 24 S 2.700672 0.209447 3.447398 0
M  V30 25 C 1.921128 -0.349948 2.018323 0
M  V30 26 H 0.467607 -6.748274 -1.370006 0
M  V30 27 H 2.692979 -4.746720 2.240960 0
M  V30 28 H 2.879682 -2.447733 3.103777 0
M  V30 29 H 0.446762 -3.251571 -1.131810 0
M  V30 30 H 0.616460 1.969104 -1.369787 0
M  V30 31 H -1.300350 3.247535 -2.028222 0
M  V30 32 H -5.101406 2.645070 -0.128079 0
M  V30 33 H -1.634399 0.408714 1.073541 0
M  V30 34 H 1.176486 2.966064 1.589063 0
M  V30 35 H 2.497831 3.004707 3.789659 0
M  V30 END ATOM
M  V30 BEGIN BOND
M  V30 1 2 1 2
M  V30 2 1 2 3
M  V30 3 1 2 4
M  V30 4 2 4 5
M  V30 5 1 5 6
M  V30 6 2 6 7
M  V30 7 1 7 8
M  V30 8 2 8 9
M  V30 9 1 8 10
M  V30 10 2 10 11
M  V30 11 1 11 12
M  V30 12 1 12 13
M  V30 13 2 13 14
M  V30 14 1 14 15
M  V30 15 1 15 16
M  V30 16 2 15 17
M  V30 17 1 17 18
M  V30 18 1 18 19
M  V30 19 2 18 20
M  V30 20 1 11 21
M  V30 21 1 21 22
M  V30 22 2 22 23
M  V30 23 1 23 24
M  V30 24 1 24 25
M  V30 25 1 9 4
M  V30 26 1 20 13
M  V30 27 2 25 21
M  V30 28 1 25 7
M  V30 29 1 3 26
M  V30 30 1 5 27
M  V30 31 1 6 28
M  V30 32 1 9 29
M  V30 33 1 12 30
M  V30 34 1 14 31
M  V30 35 1 17 32
M  V30 36 1 20 33
M  V30 37 1 22 34
M  V30 38 1 23 35
M  V30 END BOND
M  V30 END CTAB
M  END
>  <Dataset>  (225) 
ChEMBL_Kinases

>  <Ligand_Instance>  (225) 
nan

>  <PDB_ID>  (225) 
nan

>  <Standardized_SMILES>  (225) 
O=C(O)c1ccc2c(c1)nc(Nc1cc(F)cc(Cl)c1)c1ccsc12

>  <Name>  (225) 
nan

>  <Pocket>  (225) 
nan

>  <ATP_Site>  (225) 
nan

>  <Peripheral>  (225) 
nan

>  <Num_H_Atoms_ProtBoundConf>  (225) 
nan

>  <Num_Resolved_Atoms>  (225) 
nan

>  <Num_Not_Resolved_Atoms>  (225) 
nan

$$$$
CHEMBL3696283
     RDKit          3D

  0  0  0  0  0  0  0  0  0  0999 V3000
M  V30 BEGIN CTAB
M  V30 COUNTS 47 49 0 0 0
M  V30 BEGIN ATOM
M  V30 1 C 0.820717 -3.601444 3.999232 0
M  V30 2 C 1.359447 -2.812269 2.838659 0
M  V30 3 N 0.379520 -2.526456 1.822768 0
M  V30 4 C -0.386586 -1.416293 1.838833 0
M  V30 5 C -0.174692 -0.476093 2.974048 0
M  V30 6 C 0.883149 0.489267 2.528198 0
M  V30 7 O 1.156096 0.098743 1.363845 0
M  V30 8 N 1.380742 1.555970 3.323453 0
M  V30 9 C 2.380187 2.254998 2.552612 0
M  V30 10 C 3.727676 1.922837 2.572977 0
M  V30 11 C 4.620501 2.656894 1.793271 0
M  V30 12 C 4.100396 3.694626 1.029305 0
M  V30 13 F 5.023229 4.381190 0.283360 0
M  V30 14 C 2.762837 4.028555 1.005594 0
M  V30 15 C 1.867395 3.292600 1.787375 0
M  V30 16 N -1.306816 -1.130343 0.900850 0
M  V30 17 C -1.513705 -1.971801 -0.137731 0
M  V30 18 N -2.495215 -1.635986 -1.110016 0
M  V30 19 C -2.853656 -2.408736 -2.283998 0
M  V30 20 C -2.498506 -1.505479 -3.470810 0
M  V30 21 O -3.154287 -0.297031 -3.398238 0
M  V30 22 C -2.954018 0.412049 -2.236505 0
M  V30 23 C -3.266350 -0.412083 -0.996016 0
M  V30 24 C -0.775050 -3.108353 -0.213677 0
M  V30 25 C 0.154627 -3.349744 0.777338 0
M  V30 26 O 0.846207 -4.403006 0.716113 0
M  V30 27 H 1.093536 -3.143334 4.974059 0
M  V30 28 H 1.285250 -4.630511 4.029928 0
M  V30 29 H -0.274071 -3.781828 3.904605 0
M  V30 30 H 2.215698 -3.365890 2.401177 0
M  V30 31 H 1.814194 -1.870284 3.256488 0
M  V30 32 H -1.137779 0.051176 3.133149 0
M  V30 33 H 0.080735 -0.983869 3.918507 0
M  V30 34 H 0.944671 1.633417 4.287180 0
M  V30 35 H 4.012165 1.097848 3.204784 0
M  V30 36 H 5.664997 2.395304 1.812489 0
M  V30 37 H 2.409086 4.846697 0.392604 0
M  V30 38 H 0.816898 3.549635 1.773155 0
M  V30 39 H -2.331036 -3.357459 -2.387894 0
M  V30 40 H -3.972880 -2.525019 -2.352576 0
M  V30 41 H -2.827368 -2.021748 -4.377564 0
M  V30 42 H -1.380064 -1.376783 -3.528792 0
M  V30 43 H -1.970489 0.916307 -2.164005 0
M  V30 44 H -3.715185 1.238691 -2.238982 0
M  V30 45 H -4.341200 -0.691075 -1.053920 0
M  V30 46 H -2.986942 0.161693 -0.104783 0
M  V30 47 H -0.893975 -3.819849 -1.018852 0
M  V30 END ATOM
M  V30 BEGIN BOND
M  V30 1 1 1 2
M  V30 2 1 2 3
M  V30 3 1 3 4
M  V30 4 1 4 5
M  V30 5 1 5 6
M  V30 6 2 6 7
M  V30 7 1 6 8
M  V30 8 1 8 9
M  V30 9 2 9 10
M  V30 10 1 10 11
M  V30 11 2 11 12
M  V30 12 1 12 13
M  V30 13 1 12 14
M  V30 14 2 14 15
M  V30 15 2 4 16
M  V30 16 1 16 17
M  V30 17 1 17 18
M  V30 18 1 18 19
M  V30 19 1 19 20
M  V30 20 1 20 21
M  V30 21 1 21 22
M  V30 22 1 22 23
M  V30 23 2 17 24
M  V30 24 1 24 25
M  V30 25 2 25 26
M  V30 26 1 25 3
M  V30 27 1 15 9
M  V30 28 1 23 18
M  V30 29 1 1 27
M  V30 30 1 1 28
M  V30 31 1 1 29
M  V30 32 1 2 30
M  V30 33 1 2 31
M  V30 34 1 5 32
M  V30 35 1 5 33
M  V30 36 1 8 34
M  V30 37 1 10 35
M  V30 38 1 11 36
M  V30 39 1 14 37
M  V30 40 1 15 38
M  V30 41 1 19 39
M  V30 42 1 19 40
M  V30 43 1 20 41
M  V30 44 1 20 42
M  V30 45 1 22 43
M  V30 46 1 22 44
M  V30 47 1 23 45
M  V30 48 1 23 46
M  V30 49 1 24 47
M  V30 END BOND
M  V30 END CTAB
M  END
>  <Dataset>  (226) 
ChEMBL_Kinases

>  <Ligand_Instance>  (226) 
nan

>  <PDB_ID>  (226) 
nan

>  <Standardized_SMILES>  (226) 
CCn1c(CC(=O)Nc2ccc(F)cc2)nc(N2CCOCC2)cc1=O

>  <Name>  (226) 
nan

>  <Pocket>  (226) 
nan

>  <ATP_Site>  (226) 
nan

>  <Peripheral>  (226) 
nan

>  <Num_H_Atoms_ProtBoundConf>  (226) 
nan

>  <Num_Resolved_Atoms>  (226) 
nan

>  <Num_Not_Resolved_Atoms>  (226) 
nan

$$$$
CHEMBL3696282
     RDKit          3D

  0  0  0  0  0  0  0  0  0  0999 V3000
M  V30 BEGIN CTAB
M  V30 COUNTS 44 46 0 0 0
M  V30 BEGIN ATOM
M  V30 1 C -2.489354 -1.671079 -1.193205 0
M  V30 2 N -1.902829 -1.590904 0.111128 0
M  V30 3 C -0.554349 -1.682122 0.196454 0
M  V30 4 C 0.363157 -1.858941 -0.958776 0
M  V30 5 C 0.756107 -0.496835 -1.455939 0
M  V30 6 O 0.270925 0.490212 -0.846560 0
M  V30 7 N 1.627608 -0.318914 -2.553792 0
M  V30 8 C 1.846766 1.063443 -2.832106 0
M  V30 9 C 1.017951 1.746374 -3.714080 0
M  V30 10 C 1.290755 3.081289 -3.934254 0
M  V30 11 C 2.323982 3.776296 -3.340871 0
M  V30 12 C 3.126658 3.047773 -2.464743 0
M  V30 13 Br 4.571555 3.971841 -1.619279 0
M  V30 14 C 2.894311 1.722340 -2.215532 0
M  V30 15 N -0.010151 -1.605826 1.426908 0
M  V30 16 C -0.733326 -1.446896 2.544446 0
M  V30 17 N -0.052604 -1.379063 3.791964 0
M  V30 18 C 1.391847 -1.483411 3.814804 0
M  V30 19 C 1.885571 -2.368991 4.922674 0
M  V30 20 O 1.191049 -2.204503 6.096525 0
M  V30 21 C 0.358716 -1.103989 6.125860 0
M  V30 22 C -0.730918 -1.209923 5.051185 0
M  V30 23 C -2.108098 -1.351927 2.478300 0
M  V30 24 C -2.656968 -1.431255 1.212138 0
M  V30 25 O -3.902902 -1.352120 1.078898 0
M  V30 26 H -3.508476 -1.207935 -1.249354 0
M  V30 27 H -1.878019 -1.220635 -1.973152 0
M  V30 28 H -2.667784 -2.733805 -1.528796 0
M  V30 29 H 1.217881 -2.456202 -0.616992 0
M  V30 30 H -0.138161 -2.335655 -1.827901 0
M  V30 31 H 2.016569 -1.162540 -3.042236 0
M  V30 32 H 0.202077 1.224797 -4.191554 0
M  V30 33 H 0.640982 3.603476 -4.621377 0
M  V30 34 H 2.517784 4.822118 -3.529191 0
M  V30 35 H 3.530702 1.189858 -1.535672 0
M  V30 36 H 1.749628 -1.883166 2.852915 0
M  V30 37 H 1.774730 -0.444243 3.890474 0
M  V30 38 H 1.839640 -3.425541 4.564340 0
M  V30 39 H 2.982662 -2.137125 5.042007 0
M  V30 40 H 0.876631 -0.135767 6.055109 0
M  V30 41 H -0.162310 -1.108397 7.103838 0
M  V30 42 H -1.334973 -2.095494 5.340781 0
M  V30 43 H -1.322789 -0.282998 5.067684 0
M  V30 44 H -2.714348 -1.224434 3.354521 0
M  V30 END ATOM
M  V30 BEGIN BOND
M  V30 1 1 1 2
M  V30 2 1 2 3
M  V30 3 1 3 4
M  V30 4 1 4 5
M  V30 5 2 5 6
M  V30 6 1 5 7
M  V30 7 1 7 8
M  V30 8 2 8 9
M  V30 9 1 9 10
M  V30 10 2 10 11
M  V30 11 1 11 12
M  V30 12 1 12 13
M  V30 13 2 12 14
M  V30 14 2 3 15
M  V30 15 1 15 16
M  V30 16 1 16 17
M  V30 17 1 17 18
M  V30 18 1 18 19
M  V30 19 1 19 20
M  V30 20 1 20 21
M  V30 21 1 21 22
M  V30 22 2 16 23
M  V30 23 1 23 24
M  V30 24 2 24 25
M  V30 25 1 24 2
M  V30 26 1 14 8
M  V30 27 1 22 17
M  V30 28 1 1 26
M  V30 29 1 1 27
M  V30 30 1 1 28
M  V30 31 1 4 29
M  V30 32 1 4 30
M  V30 33 1 7 31
M  V30 34 1 9 32
M  V30 35 1 10 33
M  V30 36 1 11 34
M  V30 37 1 14 35
M  V30 38 1 18 36
M  V30 39 1 18 37
M  V30 40 1 19 38
M  V30 41 1 19 39
M  V30 42 1 21 40
M  V30 43 1 21 41
M  V30 44 1 22 42
M  V30 45 1 22 43
M  V30 46 1 23 44
M  V30 END BOND
M  V30 END CTAB
M  END
>  <Dataset>  (227) 
ChEMBL_Kinases

>  <Ligand_Instance>  (227) 
nan

>  <PDB_ID>  (227) 
nan

>  <Standardized_SMILES>  (227) 
Cn1c(CC(=O)Nc2cccc(Br)c2)nc(N2CCOCC2)cc1=O

>  <Name>  (227) 
nan

>  <Pocket>  (227) 
nan

>  <ATP_Site>  (227) 
nan

>  <Peripheral>  (227) 
nan

>  <Num_H_Atoms_ProtBoundConf>  (227) 
nan

>  <Num_Resolved_Atoms>  (227) 
nan

>  <Num_Not_Resolved_Atoms>  (227) 
nan

$$$$
CHEMBL3696281
     RDKit          3D

  0  0  0  0  0  0  0  0  0  0999 V3000
M  V30 BEGIN CTAB
M  V30 COUNTS 39 40 0 0 0
M  V30 BEGIN ATOM
M  V30 1 C -0.555999 -3.439241 3.730070 0
M  V30 2 C 0.948607 -3.542266 3.703548 0
M  V30 3 O 1.350857 -4.141120 2.481784 0
M  V30 4 C 1.063793 -3.589004 1.264400 0
M  V30 5 O 0.453606 -2.599480 1.782439 0
M  V30 6 C 0.755751 -2.996510 -0.042475 0
M  V30 7 C -0.003196 -1.733004 0.060661 0
M  V30 8 N 0.675541 -0.559542 0.142805 0
M  V30 9 C 0.008996 0.606380 0.238422 0
M  V30 10 N 0.761749 1.808196 0.321739 0
M  V30 11 C 0.274844 3.167908 0.432401 0
M  V30 12 C 0.752941 3.870893 -0.845718 0
M  V30 13 O 2.138083 4.044441 -0.632840 0
M  V30 14 C 2.769239 2.811851 -0.669335 0
M  V30 15 C 2.200905 1.803541 0.303524 0
M  V30 16 C -1.369441 0.630362 0.254620 0
M  V30 17 C -2.001109 -0.593461 0.168144 0
M  V30 18 O -3.257039 -0.599296 0.180764 0
M  V30 19 N -1.346516 -1.788853 0.070400 0
M  V30 20 C -2.125752 -2.991321 -0.012429 0
M  V30 21 H -0.905918 -2.407935 3.678690 0
M  V30 22 H -0.944023 -3.905932 4.676018 0
M  V30 23 H -1.018811 -4.020125 2.911119 0
M  V30 24 H 1.384206 -2.530637 3.759431 0
M  V30 25 H 1.295813 -4.206080 4.500898 0
M  V30 26 H 0.269762 -3.722900 -0.700532 0
M  V30 27 H 1.727307 -2.740163 -0.558985 0
M  V30 28 H -0.804054 3.203148 0.552147 0
M  V30 29 H 0.750608 3.704744 1.282753 0
M  V30 30 H 0.250581 4.827921 -1.001165 0
M  V30 31 H 0.603663 3.145589 -1.664162 0
M  V30 32 H 3.840188 2.969365 -0.427594 0
M  V30 33 H 2.747747 2.416969 -1.710097 0
M  V30 34 H 2.556029 2.011929 1.333088 0
M  V30 35 H 2.537502 0.807172 -0.060752 0
M  V30 36 H -1.938486 1.530628 0.329021 0
M  V30 37 H -1.759935 -3.754908 -0.696853 0
M  V30 38 H -2.346783 -3.415826 1.007201 0
M  V30 39 H -3.154290 -2.724239 -0.397037 0
M  V30 END ATOM
M  V30 BEGIN BOND
M  V30 1 1 1 2
M  V30 2 1 2 3
M  V30 3 1 3 4
M  V30 4 2 4 5
M  V30 5 1 4 6
M  V30 6 1 6 7
M  V30 7 2 7 8
M  V30 8 1 8 9
M  V30 9 1 9 10
M  V30 10 1 10 11
M  V30 11 1 11 12
M  V30 12 1 12 13
M  V30 13 1 13 14
M  V30 14 1 14 15
M  V30 15 2 9 16
M  V30 16 1 16 17
M  V30 17 2 17 18
M  V30 18 1 17 19
M  V30 19 1 19 20
M  V30 20 1 19 7
M  V30 21 1 15 10
M  V30 22 1 1 21
M  V30 23 1 1 22
M  V30 24 1 1 23
M  V30 25 1 2 24
M  V30 26 1 2 25
M  V30 27 1 6 26
M  V30 28 1 6 27
M  V30 29 1 11 28
M  V30 30 1 11 29
M  V30 31 1 12 30
M  V30 32 1 12 31
M  V30 33 1 14 32
M  V30 34 1 14 33
M  V30 35 1 15 34
M  V30 36 1 15 35
M  V30 37 1 16 36
M  V30 38 1 20 37
M  V30 39 1 20 38
M  V30 40 1 20 39
M  V30 END BOND
M  V30 END CTAB
M  END
>  <Dataset>  (228) 
ChEMBL_Kinases

>  <Ligand_Instance>  (228) 
nan

>  <PDB_ID>  (228) 
nan

>  <Standardized_SMILES>  (228) 
CCOC(=O)Cc1nc(N2CCOCC2)cc(=O)n1C

>  <Name>  (228) 
nan

>  <Pocket>  (228) 
nan

>  <ATP_Site>  (228) 
nan

>  <Peripheral>  (228) 
nan

>  <Num_H_Atoms_ProtBoundConf>  (228) 
nan

>  <Num_Resolved_Atoms>  (228) 
nan

>  <Num_Not_Resolved_Atoms>  (228) 
nan

$$$$
CHEMBL3696280
     RDKit          3D

  0  0  0  0  0  0  0  0  0  0999 V3000
M  V30 BEGIN CTAB
M  V30 COUNTS 41 43 0 0 0
M  V30 BEGIN ATOM
M  V30 1 O -0.814033 -3.819100 3.536135 0
M  V30 2 C -0.100098 -2.987580 2.850053 0
M  V30 3 C 1.365421 -2.935875 2.813956 0
M  V30 4 C 1.903075 -1.576904 2.639315 0
M  V30 5 N 1.822419 -0.911039 1.486394 0
M  V30 6 C 2.316849 0.274439 1.162949 0
M  V30 7 N 2.031291 0.707332 -0.190575 0
M  V30 8 C 0.685961 0.505080 -0.753247 0
M  V30 9 C 0.852061 -0.481269 -1.874891 0
M  V30 10 O 1.883336 -0.123934 -2.737691 0
M  V30 11 C 2.301064 1.168427 -2.531022 0
M  V30 12 C 2.919179 1.316813 -1.157715 0
M  V30 13 C 3.028297 0.936727 2.164695 0
M  V30 14 C 3.147773 0.304742 3.380940 0
M  V30 15 O 3.795760 0.944358 4.235394 0
M  V30 16 N 2.604118 -0.895366 3.593701 0
M  V30 17 N -0.958810 -2.151607 2.145785 0
M  V30 18 C -2.105127 -1.518202 1.594298 0
M  V30 19 C -2.696932 -0.531807 2.365866 0
M  V30 20 C -3.852674 0.103381 1.883111 0
M  V30 21 C -4.272827 -0.353704 0.652464 0
M  V30 22 F -5.394649 0.215193 0.121388 0
M  V30 23 C -3.719726 -1.325973 -0.151260 0
M  V30 24 C -2.579521 -1.932115 0.347130 0
M  V30 25 Br -1.603822 -3.266118 -0.611502 0
M  V30 26 H 1.752776 -3.619065 2.064136 0
M  V30 27 H 1.680500 -3.291351 3.859720 0
M  V30 28 H 0.067469 0.086974 0.025315 0
M  V30 29 H 0.197905 1.449300 -1.069242 0
M  V30 30 H 1.151955 -1.466245 -1.418096 0
M  V30 31 H -0.101595 -0.632552 -2.418464 0
M  V30 32 H 2.982295 1.518425 -3.336375 0
M  V30 33 H 1.409403 1.841751 -2.621392 0
M  V30 34 H 3.031346 2.400430 -0.940356 0
M  V30 35 H 3.905942 0.841573 -1.145395 0
M  V30 36 H 3.397529 1.901138 1.834958 0
M  V30 37 H 2.700438 -1.367580 4.526843 0
M  V30 38 H -0.335475 -1.472939 1.638872 0
M  V30 39 H -2.380974 -0.168012 3.325181 0
M  V30 40 H -4.425745 0.891147 2.360296 0
M  V30 41 H -4.039319 -1.674941 -1.096589 0
M  V30 END ATOM
M  V30 BEGIN BOND
M  V30 1 2 1 2
M  V30 2 1 2 3
M  V30 3 1 3 4
M  V30 4 2 4 5
M  V30 5 1 5 6
M  V30 6 1 6 7
M  V30 7 1 7 8
M  V30 8 1 8 9
M  V30 9 1 9 10
M  V30 10 1 10 11
M  V30 11 1 11 12
M  V30 12 2 6 13
M  V30 13 1 13 14
M  V30 14 2 14 15
M  V30 15 1 14 16
M  V30 16 1 2 17
M  V30 17 1 17 18
M  V30 18 2 18 19
M  V30 19 1 19 20
M  V30 20 2 20 21
M  V30 21 1 21 22
M  V30 22 1 21 23
M  V30 23 2 23 24
M  V30 24 1 24 25
M  V30 25 1 16 4
M  V30 26 1 24 18
M  V30 27 1 12 7
M  V30 28 1 3 26
M  V30 29 1 3 27
M  V30 30 1 8 28
M  V30 31 1 8 29
M  V30 32 1 9 30
M  V30 33 1 9 31
M  V30 34 1 11 32
M  V30 35 1 11 33
M  V30 36 1 12 34
M  V30 37 1 12 35
M  V30 38 1 13 36
M  V30 39 1 16 37
M  V30 40 1 17 38
M  V30 41 1 19 39
M  V30 42 1 20 40
M  V30 43 1 23 41
M  V30 END BOND
M  V30 END CTAB
M  END
>  <Dataset>  (229) 
ChEMBL_Kinases

>  <Ligand_Instance>  (229) 
nan

>  <PDB_ID>  (229) 
nan

>  <Standardized_SMILES>  (229) 
O=C(Cc1nc(N2CCOCC2)cc(=O)[nH]1)Nc1ccc(F)cc1Br

>  <Name>  (229) 
nan

>  <Pocket>  (229) 
nan

>  <ATP_Site>  (229) 
nan

>  <Peripheral>  (229) 
nan

>  <Num_H_Atoms_ProtBoundConf>  (229) 
nan

>  <Num_Resolved_Atoms>  (229) 
nan

>  <Num_Not_Resolved_Atoms>  (229) 
nan

$$$$
CHEMBL3696279
     RDKit          3D

  0  0  0  0  0  0  0  0  0  0999 V3000
M  V30 BEGIN CTAB
M  V30 COUNTS 42 44 0 0 0
M  V30 BEGIN ATOM
M  V30 1 O 0.148975 -3.929142 3.310344 0
M  V30 2 C 0.555867 -2.944784 2.600062 0
M  V30 3 C 2.008038 -2.751563 2.550364 0
M  V30 4 C 2.414750 -1.348306 2.340029 0
M  V30 5 N 2.139735 -0.680720 1.217803 0
M  V30 6 C 2.548017 0.563289 0.958756 0
M  V30 7 N 2.079476 1.051208 -0.296197 0
M  V30 8 C 0.630832 1.085338 -0.423525 0
M  V30 9 C 0.211125 0.436151 -1.707171 0
M  V30 10 O 1.319976 0.044778 -2.484567 0
M  V30 11 C 2.048486 1.242480 -2.673202 0
M  V30 12 C 2.879684 1.501339 -1.409925 0
M  V30 13 C 3.304267 1.269456 1.851609 0
M  V30 14 C 3.599921 0.576116 3.033870 0
M  V30 15 O 4.312242 1.230445 3.876499 0
M  V30 16 N 3.164694 -0.673149 3.247384 0
M  V30 17 N -0.435365 -2.210253 1.981428 0
M  V30 18 C -1.768787 -1.907774 1.636087 0
M  V30 19 C -2.584219 -1.215025 2.497924 0
M  V30 20 C -3.920543 -0.919783 2.157209 0
M  V30 21 F -4.786333 -0.259355 2.941383 0
M  V30 22 C -4.273826 -1.389295 0.923155 0
M  V30 23 C -3.558206 -2.083150 -0.014924 0
M  V30 24 C -2.250040 -2.331443 0.402081 0
M  V30 25 O -1.433474 -3.034469 -0.499700 0
M  V30 26 H 2.440534 -3.434285 1.789920 0
M  V30 27 H 2.436146 -3.090007 3.550257 0
M  V30 28 H 0.363327 2.190983 -0.499812 0
M  V30 29 H 0.093288 0.714474 0.475341 0
M  V30 30 H -0.415961 1.119453 -2.343435 0
M  V30 31 H -0.373553 -0.496284 -1.514713 0
M  V30 32 H 2.705517 1.171196 -3.554464 0
M  V30 33 H 1.310404 2.034330 -2.831657 0
M  V30 34 H 3.104354 2.573094 -1.384143 0
M  V30 35 H 3.809864 0.885854 -1.479278 0
M  V30 36 H 3.613203 2.264797 1.596239 0
M  V30 37 H 3.437202 -1.113372 4.170465 0
M  V30 38 H -0.022901 -1.411660 1.458591 0
M  V30 39 H -2.230421 -0.884360 3.445497 0
M  V30 40 H -5.311752 -1.179836 0.618412 0
M  V30 41 H -3.900012 -2.417954 -0.965973 0
M  V30 42 H -1.549640 -4.041357 -0.516310 0
M  V30 END ATOM
M  V30 BEGIN BOND
M  V30 1 2 1 2
M  V30 2 1 2 3
M  V30 3 1 3 4
M  V30 4 2 4 5
M  V30 5 1 5 6
M  V30 6 1 6 7
M  V30 7 1 7 8
M  V30 8 1 8 9
M  V30 9 1 9 10
M  V30 10 1 10 11
M  V30 11 1 11 12
M  V30 12 2 6 13
M  V30 13 1 13 14
M  V30 14 2 14 15
M  V30 15 1 14 16
M  V30 16 1 2 17
M  V30 17 1 17 18
M  V30 18 2 18 19
M  V30 19 1 19 20
M  V30 20 1 20 21
M  V30 21 2 20 22
M  V30 22 1 22 23
M  V30 23 2 23 24
M  V30 24 1 24 25
M  V30 25 1 16 4
M  V30 26 1 24 18
M  V30 27 1 12 7
M  V30 28 1 3 26
M  V30 29 1 3 27
M  V30 30 1 8 28
M  V30 31 1 8 29
M  V30 32 1 9 30
M  V30 33 1 9 31
M  V30 34 1 11 32
M  V30 35 1 11 33
M  V30 36 1 12 34
M  V30 37 1 12 35
M  V30 38 1 13 36
M  V30 39 1 16 37
M  V30 40 1 17 38
M  V30 41 1 19 39
M  V30 42 1 22 40
M  V30 43 1 23 41
M  V30 44 1 25 42
M  V30 END BOND
M  V30 END CTAB
M  END
>  <Dataset>  (230) 
ChEMBL_Kinases

>  <Ligand_Instance>  (230) 
nan

>  <PDB_ID>  (230) 
nan

>  <Standardized_SMILES>  (230) 
O=C(Cc1nc(N2CCOCC2)cc(=O)[nH]1)Nc1cc(F)ccc1O

>  <Name>  (230) 
nan

>  <Pocket>  (230) 
nan

>  <ATP_Site>  (230) 
nan

>  <Peripheral>  (230) 
nan

>  <Num_H_Atoms_ProtBoundConf>  (230) 
nan

>  <Num_Resolved_Atoms>  (230) 
nan

>  <Num_Not_Resolved_Atoms>  (230) 
nan

$$$$
CHEMBL3696278
     RDKit          3D

  0  0  0  0  0  0  0  0  0  0999 V3000
M  V30 BEGIN CTAB
M  V30 COUNTS 44 46 0 0 0
M  V30 BEGIN ATOM
M  V30 1 O 1.204695 -3.287112 3.231666 0
M  V30 2 C 1.042925 -2.061895 3.344535 0
M  V30 3 C 1.764553 -1.055816 4.217539 0
M  V30 4 C 1.811302 0.252129 3.454569 0
M  V30 5 N 1.874970 0.060661 2.108690 0
M  V30 6 C 1.879499 1.088167 1.220890 0
M  V30 7 N 1.891139 0.708299 -0.181252 0
M  V30 8 C 0.559030 0.880259 -0.747085 0
M  V30 9 C 0.585335 1.544073 -2.091387 0
M  V30 10 O 1.580720 1.097651 -2.922674 0
M  V30 11 C 2.819308 1.223405 -2.292869 0
M  V30 12 C 2.819721 0.207559 -1.173948 0
M  V30 13 C 1.821124 2.369578 1.686326 0
M  V30 14 C 1.760451 2.529582 3.045227 0
M  V30 15 O 1.705379 3.687166 3.532581 0
M  V30 16 N 1.755553 1.508345 3.900100 0
M  V30 17 N 0.040190 -1.500226 2.525424 0
M  V30 18 C -0.844015 -2.019795 1.553368 0
M  V30 19 C -0.005373 -2.706479 0.664755 0
M  V30 20 C -0.509773 -3.338132 -0.478106 0
M  V30 21 C -1.873263 -3.274218 -0.724792 0
M  V30 22 F -2.448504 -3.862543 -1.813795 0
M  V30 23 C -2.682972 -2.598251 0.152311 0
M  V30 24 C -4.100579 -2.451810 -0.046095 0
M  V30 25 O -4.627559 -2.880264 -1.105695 0
M  V30 26 O -5.020336 -1.871637 0.803097 0
M  V30 27 C -2.177941 -1.982592 1.271883 0
M  V30 28 H 2.817966 -1.369792 4.356758 0
M  V30 29 H 1.267829 -0.931110 5.179765 0
M  V30 30 H -0.121986 1.419272 -0.089974 0
M  V30 31 H 0.174044 -0.176882 -0.901369 0
M  V30 32 H -0.391286 1.284896 -2.586188 0
M  V30 33 H 0.561903 2.648117 -1.949155 0
M  V30 34 H 2.904203 2.229281 -1.801995 0
M  V30 35 H 3.628852 0.977662 -2.974681 0
M  V30 36 H 3.827616 0.038099 -0.774646 0
M  V30 37 H 2.377666 -0.756209 -1.571492 0
M  V30 38 H 1.821037 3.167084 0.968359 0
M  V30 39 H 1.709130 1.532792 4.943725 0
M  V30 40 H -0.323613 -0.507788 2.445764 0
M  V30 41 H 1.077382 -2.883405 0.667150 0
M  V30 42 H 0.026333 -3.889786 -1.232232 0
M  V30 43 H -5.918081 -2.302562 1.004873 0
M  V30 44 H -2.666690 -1.416590 2.057662 0
M  V30 END ATOM
M  V30 BEGIN BOND
M  V30 1 2 1 2
M  V30 2 1 2 3
M  V30 3 1 3 4
M  V30 4 2 4 5
M  V30 5 1 5 6
M  V30 6 1 6 7
M  V30 7 1 7 8
M  V30 8 1 8 9
M  V30 9 1 9 10
M  V30 10 1 10 11
M  V30 11 1 11 12
M  V30 12 2 6 13
M  V30 13 1 13 14
M  V30 14 2 14 15
M  V30 15 1 14 16
M  V30 16 1 2 17
M  V30 17 1 17 18
M  V30 18 2 18 19
M  V30 19 1 19 20
M  V30 20 2 20 21
M  V30 21 1 21 22
M  V30 22 1 21 23
M  V30 23 1 23 24
M  V30 24 2 24 25
M  V30 25 1 24 26
M  V30 26 2 23 27
M  V30 27 1 16 4
M  V30 28 1 27 18
M  V30 29 1 12 7
M  V30 30 1 3 28
M  V30 31 1 3 29
M  V30 32 1 8 30
M  V30 33 1 8 31
M  V30 34 1 9 32
M  V30 35 1 9 33
M  V30 36 1 11 34
M  V30 37 1 11 35
M  V30 38 1 12 36
M  V30 39 1 12 37
M  V30 40 1 13 38
M  V30 41 1 16 39
M  V30 42 1 17 40
M  V30 43 1 19 41
M  V30 44 1 20 42
M  V30 45 1 26 43
M  V30 46 1 27 44
M  V30 END BOND
M  V30 END CTAB
M  END
>  <Dataset>  (231) 
ChEMBL_Kinases

>  <Ligand_Instance>  (231) 
nan

>  <PDB_ID>  (231) 
nan

>  <Standardized_SMILES>  (231) 
O=C(Cc1nc(N2CCOCC2)cc(=O)[nH]1)Nc1ccc(F)c(C(=O)O)c1

>  <Name>  (231) 
nan

>  <Pocket>  (231) 
nan

>  <ATP_Site>  (231) 
nan

>  <Peripheral>  (231) 
nan

>  <Num_H_Atoms_ProtBoundConf>  (231) 
nan

>  <Num_Resolved_Atoms>  (231) 
nan

>  <Num_Not_Resolved_Atoms>  (231) 
nan

$$$$
CHEMBL3696277
     RDKit          3D

  0  0  0  0  0  0  0  0  0  0999 V3000
M  V30 BEGIN CTAB
M  V30 COUNTS 46 49 0 0 0
M  V30 BEGIN ATOM
M  V30 1 O -0.439682 -1.292356 1.576513 0
M  V30 2 C -0.413226 -2.195648 0.740705 0
M  V30 3 C 1.065202 -2.276900 0.854900 0
M  V30 4 C 1.571091 -1.273913 1.850468 0
M  V30 5 N 1.856037 -0.061446 1.343577 0
M  V30 6 C 2.317850 0.949629 2.116064 0
M  V30 7 N 2.621001 2.233207 1.588672 0
M  V30 8 C 3.076149 3.392024 2.288443 0
M  V30 9 C 2.313154 4.642138 1.921067 0
M  V30 10 O 1.799941 4.610064 0.625621 0
M  V30 11 C 2.718543 3.875043 -0.150689 0
M  V30 12 C 2.453671 2.414108 0.149845 0
M  V30 13 C 2.460966 0.611927 3.444024 0
M  V30 14 C 2.169524 -0.632899 3.968662 0
M  V30 15 O 2.311234 -0.912407 5.189877 0
M  V30 16 N 1.720118 -1.586863 3.167654 0
M  V30 17 N -1.200717 -3.002818 -0.109903 0
M  V30 18 C -0.501034 -3.965100 -0.930649 0
M  V30 19 C -1.163596 -4.117961 -2.286885 0
M  V30 20 O -2.571999 -4.194128 -2.210437 0
M  V30 21 C -3.225538 -3.471609 -1.222115 0
M  V30 22 C -4.617573 -3.349369 -1.301664 0
M  V30 23 C -5.336887 -2.633380 -0.335886 0
M  V30 24 C -4.663325 -2.040933 0.707918 0
M  V30 25 C -3.293461 -2.144403 0.811957 0
M  V30 26 C -2.610918 -2.842712 -0.133922 0
M  V30 27 H 1.559996 -2.198318 -0.122845 0
M  V30 28 H 1.341314 -3.297789 1.245886 0
M  V30 29 H 3.047209 3.218400 3.379399 0
M  V30 30 H 4.153227 3.546979 2.044786 0
M  V30 31 H 1.484341 4.884718 2.606911 0
M  V30 32 H 2.994991 5.522756 1.977315 0
M  V30 33 H 2.547450 4.091521 -1.240882 0
M  V30 34 H 3.722038 4.183162 0.159353 0
M  V30 35 H 3.189528 1.790279 -0.421088 0
M  V30 36 H 1.406930 2.180414 -0.162186 0
M  V30 37 H 2.824728 1.350362 4.146660 0
M  V30 38 H 1.465393 -2.565369 3.445608 0
M  V30 39 H 0.541916 -3.663964 -1.134847 0
M  V30 40 H -0.443439 -4.979575 -0.487528 0
M  V30 41 H -0.916800 -3.283059 -2.977581 0
M  V30 42 H -0.815583 -5.041116 -2.790056 0
M  V30 43 H -5.221805 -3.784252 -2.088506 0
M  V30 44 H -6.411147 -2.543354 -0.402966 0
M  V30 45 H -5.255814 -1.503294 1.425591 0
M  V30 46 H -2.742705 -1.688266 1.621059 0
M  V30 END ATOM
M  V30 BEGIN BOND
M  V30 1 2 1 2
M  V30 2 1 2 3
M  V30 3 1 3 4
M  V30 4 2 4 5
M  V30 5 1 5 6
M  V30 6 1 6 7
M  V30 7 1 7 8
M  V30 8 1 8 9
M  V30 9 1 9 10
M  V30 10 1 10 11
M  V30 11 1 11 12
M  V30 12 2 6 13
M  V30 13 1 13 14
M  V30 14 2 14 15
M  V30 15 1 14 16
M  V30 16 1 2 17
M  V30 17 1 17 18
M  V30 18 1 18 19
M  V30 19 1 19 20
M  V30 20 1 20 21
M  V30 21 2 21 22
M  V30 22 1 22 23
M  V30 23 2 23 24
M  V30 24 1 24 25
M  V30 25 2 25 26
M  V30 26 1 16 4
M  V30 27 1 26 17
M  V30 28 1 12 7
M  V30 29 1 26 21
M  V30 30 1 3 27
M  V30 31 1 3 28
M  V30 32 1 8 29
M  V30 33 1 8 30
M  V30 34 1 9 31
M  V30 35 1 9 32
M  V30 36 1 11 33
M  V30 37 1 11 34
M  V30 38 1 12 35
M  V30 39 1 12 36
M  V30 40 1 13 37
M  V30 41 1 16 38
M  V30 42 1 18 39
M  V30 43 1 18 40
M  V30 44 1 19 41
M  V30 45 1 19 42
M  V30 46 1 22 43
M  V30 47 1 23 44
M  V30 48 1 24 45
M  V30 49 1 25 46
M  V30 END BOND
M  V30 END CTAB
M  END
>  <Dataset>  (232) 
ChEMBL_Kinases

>  <Ligand_Instance>  (232) 
nan

>  <PDB_ID>  (232) 
nan

>  <Standardized_SMILES>  (232) 
O=C(Cc1nc(N2CCOCC2)cc(=O)[nH]1)N1CCOc2ccccc21

>  <Name>  (232) 
nan

>  <Pocket>  (232) 
nan

>  <ATP_Site>  (232) 
nan

>  <Peripheral>  (232) 
nan

>  <Num_H_Atoms_ProtBoundConf>  (232) 
nan

>  <Num_Resolved_Atoms>  (232) 
nan

>  <Num_Not_Resolved_Atoms>  (232) 
nan

$$$$
CHEMBL3696276
     RDKit          3D

  0  0  0  0  0  0  0  0  0  0999 V3000
M  V30 BEGIN CTAB
M  V30 COUNTS 41 43 0 0 0
M  V30 BEGIN ATOM
M  V30 1 O 0.663530 -3.847901 2.566172 0
M  V30 2 C 0.745031 -2.599902 2.840358 0
M  V30 3 C 1.915857 -1.990667 3.571780 0
M  V30 4 C 2.012352 -0.554876 3.097135 0
M  V30 5 N 1.978826 -0.496228 1.750779 0
M  V30 6 C 2.039388 0.655291 1.071265 0
M  V30 7 N 1.945052 0.642265 -0.372047 0
M  V30 8 C 0.516314 0.508275 -0.656753 0
M  V30 9 C 0.195664 0.653575 -2.128850 0
M  V30 10 O 1.268120 0.319995 -2.918899 0
M  V30 11 C 2.281884 1.258067 -2.638621 0
M  V30 12 C 2.982449 0.723287 -1.401763 0
M  V30 13 C 2.144166 1.840213 1.779230 0
M  V30 14 C 2.176343 1.748539 3.158927 0
M  V30 15 O 2.269279 2.780920 3.886892 0
M  V30 16 N 2.111984 0.577203 3.812312 0
M  V30 17 N -0.343702 -1.836936 2.399059 0
M  V30 18 C -1.539108 -2.140072 1.714667 0
M  V30 19 C -2.347420 -1.110984 1.287151 0
M  V30 20 C -3.531500 -1.333974 0.632025 0
M  V30 21 Cl -4.481607 0.060647 0.132106 0
M  V30 22 C -3.972242 -2.612890 0.370166 0
M  V30 23 F -5.139885 -2.719364 -0.272195 0
M  V30 24 C -3.180806 -3.661939 0.788878 0
M  V30 25 Cl -3.782691 -5.262274 0.439032 0
M  V30 26 C -1.976514 -3.410145 1.452743 0
M  V30 27 H 1.786240 -1.970153 4.651574 0
M  V30 28 H 2.863995 -2.475725 3.281054 0
M  V30 29 H 0.184667 -0.461142 -0.269427 0
M  V30 30 H 0.009605 1.354218 -0.101811 0
M  V30 31 H -0.648766 -0.033115 -2.337603 0
M  V30 32 H -0.191898 1.680939 -2.317314 0
M  V30 33 H 2.964837 1.278928 -3.501509 0
M  V30 34 H 1.793917 2.200088 -2.386023 0
M  V30 35 H 3.799138 1.398494 -1.139656 0
M  V30 36 H 3.394596 -0.287282 -1.656909 0
M  V30 37 H 2.194807 2.770541 1.273078 0
M  V30 38 H 2.127622 0.398909 4.836787 0
M  V30 39 H -0.198474 -0.811791 2.662235 0
M  V30 40 H -2.053178 -0.064955 1.462167 0
M  V30 41 H -1.425038 -4.264129 1.736888 0
M  V30 END ATOM
M  V30 BEGIN BOND
M  V30 1 2 1 2
M  V30 2 1 2 3
M  V30 3 1 3 4
M  V30 4 2 4 5
M  V30 5 1 5 6
M  V30 6 1 6 7
M  V30 7 1 7 8
M  V30 8 1 8 9
M  V30 9 1 9 10
M  V30 10 1 10 11
M  V30 11 1 11 12
M  V30 12 2 6 13
M  V30 13 1 13 14
M  V30 14 2 14 15
M  V30 15 1 14 16
M  V30 16 1 2 17
M  V30 17 1 17 18
M  V30 18 2 18 19
M  V30 19 1 19 20
M  V30 20 1 20 21
M  V30 21 2 20 22
M  V30 22 1 22 23
M  V30 23 1 22 24
M  V30 24 1 24 25
M  V30 25 2 24 26
M  V30 26 1 16 4
M  V30 27 1 26 18
M  V30 28 1 12 7
M  V30 29 1 3 27
M  V30 30 1 3 28
M  V30 31 1 8 29
M  V30 32 1 8 30
M  V30 33 1 9 31
M  V30 34 1 9 32
M  V30 35 1 11 33
M  V30 36 1 11 34
M  V30 37 1 12 35
M  V30 38 1 12 36
M  V30 39 1 13 37
M  V30 40 1 16 38
M  V30 41 1 17 39
M  V30 42 1 19 40
M  V30 43 1 26 41
M  V30 END BOND
M  V30 END CTAB
M  END
>  <Dataset>  (233) 
ChEMBL_Kinases

>  <Ligand_Instance>  (233) 
nan

>  <PDB_ID>  (233) 
nan

>  <Standardized_SMILES>  (233) 
O=C(Cc1nc(N2CCOCC2)cc(=O)[nH]1)Nc1cc(Cl)c(F)c(Cl)c1

>  <Name>  (233) 
nan

>  <Pocket>  (233) 
nan

>  <ATP_Site>  (233) 
nan

>  <Peripheral>  (233) 
nan

>  <Num_H_Atoms_ProtBoundConf>  (233) 
nan

>  <Num_Resolved_Atoms>  (233) 
nan

>  <Num_Not_Resolved_Atoms>  (233) 
nan

$$$$
CHEMBL3696275
     RDKit          3D

  0  0  0  0  0  0  0  0  0  0999 V3000
M  V30 BEGIN CTAB
M  V30 COUNTS 41 43 0 0 0
M  V30 BEGIN ATOM
M  V30 1 O -0.283624 -0.848866 2.037000 0
M  V30 2 C -0.124974 -1.945887 2.630751 0
M  V30 3 C 1.110680 -1.168982 2.891595 0
M  V30 4 C 1.079068 0.161921 2.252436 0
M  V30 5 N 1.545354 0.323755 1.007711 0
M  V30 6 C 1.533217 1.525967 0.389200 0
M  V30 7 N 2.022954 1.721093 -0.931458 0
M  V30 8 C 2.044155 2.947215 -1.660676 0
M  V30 9 C 1.896961 2.771137 -3.147452 0
M  V30 10 O 2.524113 1.658829 -3.643330 0
M  V30 11 C 3.414205 1.077881 -2.746570 0
M  V30 12 C 2.560907 0.544295 -1.613895 0
M  V30 13 C 1.007814 2.560844 1.135123 0
M  V30 14 C 0.527268 2.392141 2.418982 0
M  V30 15 O 0.046385 3.370502 3.084875 0
M  V30 16 N 0.557628 1.173352 3.001154 0
M  V30 17 N -0.301586 -3.239665 3.147157 0
M  V30 18 C -1.563253 -3.839392 2.790127 0
M  V30 19 C -2.694944 -3.679013 3.595850 0
M  V30 20 C -3.885774 -4.270372 3.218368 0
M  V30 21 F -5.007525 -4.142052 3.967518 0
M  V30 22 C -3.968051 -5.021840 2.046798 0
M  V30 23 F -5.098492 -5.628520 1.615497 0
M  V30 24 C -2.842775 -5.176415 1.253550 0
M  V30 25 C -1.625297 -4.589003 1.611761 0
M  V30 26 F -0.494388 -4.721470 0.851316 0
M  V30 27 H 2.004000 -1.702196 2.497263 0
M  V30 28 H 1.311306 -1.044045 3.987773 0
M  V30 29 H 2.995953 3.519529 -1.485874 0
M  V30 30 H 1.245859 3.607810 -1.262077 0
M  V30 31 H 0.801291 2.660720 -3.368929 0
M  V30 32 H 2.220648 3.689880 -3.678128 0
M  V30 33 H 3.955166 0.302175 -3.292984 0
M  V30 34 H 4.082829 1.883647 -2.333817 0
M  V30 35 H 3.136672 -0.098809 -0.918611 0
M  V30 36 H 1.689738 0.022184 -2.074723 0
M  V30 37 H 0.946863 3.550489 0.752832 0
M  V30 38 H 0.201601 1.014755 3.970386 0
M  V30 39 H 0.488187 -3.607380 3.718579 0
M  V30 40 H -2.620843 -3.091243 4.507562 0
M  V30 41 H -2.886462 -5.761019 0.332444 0
M  V30 END ATOM
M  V30 BEGIN BOND
M  V30 1 2 1 2
M  V30 2 1 2 3
M  V30 3 1 3 4
M  V30 4 2 4 5
M  V30 5 1 5 6
M  V30 6 1 6 7
M  V30 7 1 7 8
M  V30 8 1 8 9
M  V30 9 1 9 10
M  V30 10 1 10 11
M  V30 11 1 11 12
M  V30 12 2 6 13
M  V30 13 1 13 14
M  V30 14 2 14 15
M  V30 15 1 14 16
M  V30 16 1 2 17
M  V30 17 1 17 18
M  V30 18 2 18 19
M  V30 19 1 19 20
M  V30 20 1 20 21
M  V30 21 2 20 22
M  V30 22 1 22 23
M  V30 23 1 22 24
M  V30 24 2 24 25
M  V30 25 1 25 26
M  V30 26 1 16 4
M  V30 27 1 25 18
M  V30 28 1 12 7
M  V30 29 1 3 27
M  V30 30 1 3 28
M  V30 31 1 8 29
M  V30 32 1 8 30
M  V30 33 1 9 31
M  V30 34 1 9 32
M  V30 35 1 11 33
M  V30 36 1 11 34
M  V30 37 1 12 35
M  V30 38 1 12 36
M  V30 39 1 13 37
M  V30 40 1 16 38
M  V30 41 1 17 39
M  V30 42 1 19 40
M  V30 43 1 24 41
M  V30 END BOND
M  V30 END CTAB
M  END
>  <Dataset>  (234) 
ChEMBL_Kinases

>  <Ligand_Instance>  (234) 
nan

>  <PDB_ID>  (234) 
nan

>  <Standardized_SMILES>  (234) 
O=C(Cc1nc(N2CCOCC2)cc(=O)[nH]1)Nc1cc(F)c(F)cc1F

>  <Name>  (234) 
nan

>  <Pocket>  (234) 
nan

>  <ATP_Site>  (234) 
nan

>  <Peripheral>  (234) 
nan

>  <Num_H_Atoms_ProtBoundConf>  (234) 
nan

>  <Num_Resolved_Atoms>  (234) 
nan

>  <Num_Not_Resolved_Atoms>  (234) 
nan

$$$$
CHEMBL3696274
     RDKit          3D

  0  0  0  0  0  0  0  0  0  0999 V3000
M  V30 BEGIN CTAB
M  V30 COUNTS 45 47 0 0 0
M  V30 BEGIN ATOM
M  V30 1 C 0.456741 -5.062356 0.885523 0
M  V30 2 O 0.883747 -4.921071 -0.476437 0
M  V30 3 C 1.653255 -3.801446 -0.821077 0
M  V30 4 C 3.022041 -3.733304 -0.795833 0
M  V30 5 F 3.677205 -4.851820 -0.414677 0
M  V30 6 C 3.648026 -2.550235 -1.158824 0
M  V30 7 C 2.972110 -1.417591 -1.550454 0
M  V30 8 C 1.598370 -1.439041 -1.591032 0
M  V30 9 N 0.639912 -0.400334 -1.861441 0
M  V30 10 C 0.771880 1.002218 -1.589663 0
M  V30 11 O 1.806384 1.480748 -1.075527 0
M  V30 12 C -0.452929 1.808887 -1.971626 0
M  V30 13 C -1.283894 1.943889 -0.704592 0
M  V30 14 N -0.623630 1.602297 0.417387 0
M  V30 15 C -1.221705 1.625487 1.646162 0
M  V30 16 N -0.416130 1.207533 2.752615 0
M  V30 17 C -0.612435 1.170347 4.181147 0
M  V30 18 C -0.235212 -0.133696 4.795105 0
M  V30 19 O 0.138314 -1.115467 3.926566 0
M  V30 20 C 0.886563 -0.776449 2.844454 0
M  V30 21 C 0.910958 0.679148 2.513803 0
M  V30 22 C -2.538123 2.013477 1.714727 0
M  V30 23 C -3.196027 2.358812 0.570975 0
M  V30 24 O -4.387650 2.714644 0.613524 0
M  V30 25 N -2.564002 2.322231 -0.637516 0
M  V30 26 C 0.985692 -2.641771 -1.222844 0
M  V30 27 F -0.385591 -2.764393 -1.232885 0
M  V30 28 H 1.209563 -5.574711 1.514911 0
M  V30 29 H -0.520504 -5.572923 0.877649 0
M  V30 30 H 0.294077 -4.051782 1.362746 0
M  V30 31 H 4.730631 -2.504022 -1.136479 0
M  V30 32 H 3.383993 -0.483493 -1.834655 0
M  V30 33 H -0.256688 -0.720509 -2.336071 0
M  V30 34 H -0.113848 2.805093 -2.283611 0
M  V30 35 H -1.021639 1.315971 -2.747398 0
M  V30 36 H 0.099080 1.932532 4.613453 0
M  V30 37 H -1.626673 1.534642 4.468158 0
M  V30 38 H -1.173055 -0.496963 5.323059 0
M  V30 39 H 0.514756 -0.039159 5.633314 0
M  V30 40 H 0.400079 -1.283076 1.957835 0
M  V30 41 H 1.933557 -1.151440 2.844176 0
M  V30 42 H 1.149458 0.772694 1.430229 0
M  V30 43 H 1.696081 1.227497 3.101076 0
M  V30 44 H -2.997971 2.025926 2.714296 0
M  V30 45 H -3.005936 2.569974 -1.540103 0
M  V30 END ATOM
M  V30 BEGIN BOND
M  V30 1 1 1 2
M  V30 2 1 2 3
M  V30 3 2 3 4
M  V30 4 1 4 5
M  V30 5 1 4 6
M  V30 6 2 6 7
M  V30 7 1 7 8
M  V30 8 1 8 9
M  V30 9 1 9 10
M  V30 10 2 10 11
M  V30 11 1 10 12
M  V30 12 1 12 13
M  V30 13 2 13 14
M  V30 14 1 14 15
M  V30 15 1 15 16
M  V30 16 1 16 17
M  V30 17 1 17 18
M  V30 18 1 18 19
M  V30 19 1 19 20
M  V30 20 1 20 21
M  V30 21 2 15 22
M  V30 22 1 22 23
M  V30 23 2 23 24
M  V30 24 1 23 25
M  V30 25 2 8 26
M  V30 26 1 26 27
M  V30 27 1 26 3
M  V30 28 1 25 13
M  V30 29 1 21 16
M  V30 30 1 1 28
M  V30 31 1 1 29
M  V30 32 1 1 30
M  V30 33 1 6 31
M  V30 34 1 7 32
M  V30 35 1 9 33
M  V30 36 1 12 34
M  V30 37 1 12 35
M  V30 38 1 17 36
M  V30 39 1 17 37
M  V30 40 1 18 38
M  V30 41 1 18 39
M  V30 42 1 20 40
M  V30 43 1 20 41
M  V30 44 1 21 42
M  V30 45 1 21 43
M  V30 46 1 22 44
M  V30 47 1 25 45
M  V30 END BOND
M  V30 END CTAB
M  END
>  <Dataset>  (235) 
ChEMBL_Kinases

>  <Ligand_Instance>  (235) 
nan

>  <PDB_ID>  (235) 
nan

>  <Standardized_SMILES>  (235) 
COc1c(F)ccc(NC(=O)Cc2nc(N3CCOCC3)cc(=O)[nH]2)c1F

>  <Name>  (235) 
nan

>  <Pocket>  (235) 
nan

>  <ATP_Site>  (235) 
nan

>  <Peripheral>  (235) 
nan

>  <Num_H_Atoms_ProtBoundConf>  (235) 
nan

>  <Num_Resolved_Atoms>  (235) 
nan

>  <Num_Not_Resolved_Atoms>  (235) 
nan

$$$$
CHEMBL3696273
     RDKit          3D

  0  0  0  0  0  0  0  0  0  0999 V3000
M  V30 BEGIN CTAB
M  V30 COUNTS 48 50 0 0 0
M  V30 BEGIN ATOM
M  V30 1 C -0.254373 -6.687379 -0.051341 0
M  V30 2 C -0.552226 -5.941499 -1.367358 0
M  V30 3 O -0.106357 -4.650980 -1.188426 0
M  V30 4 C -0.031910 -3.557419 -1.955330 0
M  V30 5 C -0.421348 -3.486264 -3.299298 0
M  V30 6 C -0.305197 -2.314160 -4.009400 0
M  V30 7 C 0.203725 -1.166218 -3.402989 0
M  V30 8 C 0.591593 -1.217179 -2.079824 0
M  V30 9 N 1.160050 -0.136136 -1.307428 0
M  V30 10 C 2.348231 -0.102576 -0.524597 0
M  V30 11 O 2.880055 -1.233684 -0.583735 0
M  V30 12 C 2.609415 1.211095 0.113632 0
M  V30 13 C 2.344769 1.200074 1.593760 0
M  V30 14 N 1.073780 1.700593 1.747480 0
M  V30 15 C 0.528747 1.828697 2.994037 0
M  V30 16 N -0.811064 2.356544 3.126532 0
M  V30 17 C -1.507745 2.695724 4.349133 0
M  V30 18 C -2.907721 2.252548 4.276617 0
M  V30 19 O -3.522919 2.083603 3.110007 0
M  V30 20 C -2.901209 2.143385 1.913482 0
M  V30 21 C -1.499404 2.559784 1.865993 0
M  V30 22 C 1.346464 1.422924 4.000979 0
M  V30 23 C 2.608928 0.925557 3.825640 0
M  V30 24 O 3.331158 0.560643 4.787005 0
M  V30 25 N 3.122992 0.810785 2.602484 0
M  V30 26 C 0.479627 -2.403937 -1.347110 0
M  V30 27 H -0.247396 -5.952343 0.749972 0
M  V30 28 H 0.778038 -7.128509 -0.169668 0
M  V30 29 H -1.010368 -7.450211 0.136626 0
M  V30 30 H -1.679480 -5.973187 -1.480265 0
M  V30 31 H -0.060311 -6.512577 -2.177122 0
M  V30 32 H -0.811968 -4.368317 -3.784830 0
M  V30 33 H -0.585603 -2.191028 -5.044675 0
M  V30 34 H 0.345651 -0.193113 -3.858730 0
M  V30 35 H 0.449025 0.634052 -1.489245 0
M  V30 36 H 2.178644 2.044084 -0.419445 0
M  V30 37 H 3.739209 1.348489 0.063991 0
M  V30 38 H -1.008082 2.291801 5.260818 0
M  V30 39 H -1.505069 3.831430 4.384366 0
M  V30 40 H -3.522298 3.007651 4.862792 0
M  V30 41 H -3.015289 1.330495 4.921367 0
M  V30 42 H -3.484181 2.851598 1.252049 0
M  V30 43 H -3.022632 1.159371 1.392717 0
M  V30 44 H -1.429918 3.661604 1.660927 0
M  V30 45 H -0.959123 2.075546 1.019433 0
M  V30 46 H 0.944842 1.510173 5.015032 0
M  V30 47 H 4.051816 0.453215 2.311652 0
M  V30 48 H 0.790455 -2.451960 -0.302980 0
M  V30 END ATOM
M  V30 BEGIN BOND
M  V30 1 1 1 2
M  V30 2 1 2 3
M  V30 3 1 3 4
M  V30 4 2 4 5
M  V30 5 1 5 6
M  V30 6 2 6 7
M  V30 7 1 7 8
M  V30 8 1 8 9
M  V30 9 1 9 10
M  V30 10 2 10 11
M  V30 11 1 10 12
M  V30 12 1 12 13
M  V30 13 2 13 14
M  V30 14 1 14 15
M  V30 15 1 15 16
M  V30 16 1 16 17
M  V30 17 1 17 18
M  V30 18 1 18 19
M  V30 19 1 19 20
M  V30 20 1 20 21
M  V30 21 2 15 22
M  V30 22 1 22 23
M  V30 23 2 23 24
M  V30 24 1 23 25
M  V30 25 2 8 26
M  V30 26 1 26 4
M  V30 27 1 25 13
M  V30 28 1 21 16
M  V30 29 1 1 27
M  V30 30 1 1 28
M  V30 31 1 1 29
M  V30 32 1 2 30
M  V30 33 1 2 31
M  V30 34 1 5 32
M  V30 35 1 6 33
M  V30 36 1 7 34
M  V30 37 1 9 35
M  V30 38 1 12 36
M  V30 39 1 12 37
M  V30 40 1 17 38
M  V30 41 1 17 39
M  V30 42 1 18 40
M  V30 43 1 18 41
M  V30 44 1 20 42
M  V30 45 1 20 43
M  V30 46 1 21 44
M  V30 47 1 21 45
M  V30 48 1 22 46
M  V30 49 1 25 47
M  V30 50 1 26 48
M  V30 END BOND
M  V30 END CTAB
M  END
>  <Dataset>  (236) 
ChEMBL_Kinases

>  <Ligand_Instance>  (236) 
nan

>  <PDB_ID>  (236) 
nan

>  <Standardized_SMILES>  (236) 
CCOc1cccc(NC(=O)Cc2nc(N3CCOCC3)cc(=O)[nH]2)c1

>  <Name>  (236) 
nan

>  <Pocket>  (236) 
nan

>  <ATP_Site>  (236) 
nan

>  <Peripheral>  (236) 
nan

>  <Num_H_Atoms_ProtBoundConf>  (236) 
nan

>  <Num_Resolved_Atoms>  (236) 
nan

>  <Num_Not_Resolved_Atoms>  (236) 
nan

$$$$
CHEMBL3696272
     RDKit          3D

  0  0  0  0  0  0  0  0  0  0999 V3000
M  V30 BEGIN CTAB
M  V30 COUNTS 41 43 0 0 0
M  V30 BEGIN ATOM
M  V30 1 O 0.438043 -0.090441 2.745223 0
M  V30 2 C -0.074626 -1.244147 2.867098 0
M  V30 3 C 0.439222 -2.284711 1.957230 0
M  V30 4 C 1.491469 -1.757469 1.047228 0
M  V30 5 N 1.050618 -1.259908 -0.121810 0
M  V30 6 C 1.891908 -0.746690 -1.047096 0
M  V30 7 N 1.423180 -0.221198 -2.282240 0
M  V30 8 C 2.238695 0.347658 -3.338169 0
M  V30 9 C 1.847468 -0.448105 -4.591679 0
M  V30 10 O 0.537991 -0.134527 -4.870494 0
M  V30 11 C -0.359756 -0.609457 -3.934884 0
M  V30 12 C -0.006252 -0.247600 -2.528562 0
M  V30 13 C 3.219382 -0.784822 -0.677508 0
M  V30 14 C 3.673833 -1.294216 0.520004 0
M  V30 15 O 4.914872 -1.295512 0.791381 0
M  V30 16 N 2.787105 -1.793149 1.404652 0
M  V30 17 N -1.088335 -1.626693 3.788922 0
M  V30 18 C -1.549171 -0.565027 4.650956 0
M  V30 19 C -2.619784 0.140930 4.114908 0
M  V30 20 C -3.188618 1.197451 4.812600 0
M  V30 21 C -2.671994 1.535001 6.049145 0
M  V30 22 C -1.599233 0.823685 6.580612 0
M  V30 23 I -0.776308 1.303776 8.467424 0
M  V30 24 C -1.032464 -0.229161 5.885233 0
M  V30 25 H 0.867838 -3.173232 2.501862 0
M  V30 26 H -0.421687 -2.678470 1.380155 0
M  V30 27 H 1.913193 1.398434 -3.570459 0
M  V30 28 H 3.308495 0.282872 -3.150475 0
M  V30 29 H 1.972032 -1.516686 -4.288109 0
M  V30 30 H 2.463212 -0.176945 -5.458403 0
M  V30 31 H -0.559689 -1.692873 -4.002970 0
M  V30 32 H -1.335098 -0.108420 -4.171183 0
M  V30 33 H -0.375604 0.801663 -2.345096 0
M  V30 34 H -0.533319 -0.959901 -1.833071 0
M  V30 35 H 3.967162 -0.397253 -1.351735 0
M  V30 36 H 3.093196 -2.182914 2.311966 0
M  V30 37 H -1.440159 -2.603647 3.806175 0
M  V30 38 H -3.066357 -0.085834 3.139855 0
M  V30 39 H -4.023110 1.761818 4.415104 0
M  V30 40 H -3.063236 2.355199 6.663838 0
M  V30 41 H -0.201280 -0.835530 6.217459 0
M  V30 END ATOM
M  V30 BEGIN BOND
M  V30 1 2 1 2
M  V30 2 1 2 3
M  V30 3 1 3 4
M  V30 4 2 4 5
M  V30 5 1 5 6
M  V30 6 1 6 7
M  V30 7 1 7 8
M  V30 8 1 8 9
M  V30 9 1 9 10
M  V30 10 1 10 11
M  V30 11 1 11 12
M  V30 12 2 6 13
M  V30 13 1 13 14
M  V30 14 2 14 15
M  V30 15 1 14 16
M  V30 16 1 2 17
M  V30 17 1 17 18
M  V30 18 2 18 19
M  V30 19 1 19 20
M  V30 20 2 20 21
M  V30 21 1 21 22
M  V30 22 1 22 23
M  V30 23 2 22 24
M  V30 24 1 16 4
M  V30 25 1 24 18
M  V30 26 1 12 7
M  V30 27 1 3 25
M  V30 28 1 3 26
M  V30 29 1 8 27
M  V30 30 1 8 28
M  V30 31 1 9 29
M  V30 32 1 9 30
M  V30 33 1 11 31
M  V30 34 1 11 32
M  V30 35 1 12 33
M  V30 36 1 12 34
M  V30 37 1 13 35
M  V30 38 1 16 36
M  V30 39 1 17 37
M  V30 40 1 19 38
M  V30 41 1 20 39
M  V30 42 1 21 40
M  V30 43 1 24 41
M  V30 END BOND
M  V30 END CTAB
M  END
>  <Dataset>  (237) 
ChEMBL_Kinases

>  <Ligand_Instance>  (237) 
nan

>  <PDB_ID>  (237) 
nan

>  <Standardized_SMILES>  (237) 
O=C(Cc1nc(N2CCOCC2)cc(=O)[nH]1)Nc1cccc(I)c1

>  <Name>  (237) 
nan

>  <Pocket>  (237) 
nan

>  <ATP_Site>  (237) 
nan

>  <Peripheral>  (237) 
nan

>  <Num_H_Atoms_ProtBoundConf>  (237) 
nan

>  <Num_Resolved_Atoms>  (237) 
nan

>  <Num_Not_Resolved_Atoms>  (237) 
nan

$$$$
CHEMBL3696271
     RDKit          3D

  0  0  0  0  0  0  0  0  0  0999 V3000
M  V30 BEGIN CTAB
M  V30 COUNTS 49 51 0 0 0
M  V30 BEGIN ATOM
M  V30 1 O 1.422281 -3.952563 2.213808 0
M  V30 2 C 1.157492 -2.737791 2.262775 0
M  V30 3 C 2.022588 -1.854125 3.077172 0
M  V30 4 C 1.876014 -0.416425 2.750105 0
M  V30 5 N 2.617644 0.225996 1.832390 0
M  V30 6 C 2.458079 1.533716 1.560962 0
M  V30 7 N 3.245179 2.198790 0.589505 0
M  V30 8 C 3.169935 3.577522 0.221807 0
M  V30 9 C 3.119759 3.821391 -1.270369 0
M  V30 10 O 3.534482 2.711563 -2.000041 0
M  V30 11 C 4.630330 2.081502 -1.417688 0
M  V30 12 C 4.235754 1.426094 -0.119797 0
M  V30 13 C 1.467844 2.142276 2.311379 0
M  V30 14 C 0.697310 1.518815 3.251194 0
M  V30 15 O -0.193904 2.130361 3.906638 0
M  V30 16 N 0.912752 0.207577 3.469744 0
M  V30 17 N 0.084992 -2.078074 1.605349 0
M  V30 18 C -1.020788 -2.402361 0.731467 0
M  V30 19 C -0.721659 -2.337446 -0.632729 0
M  V30 20 C -1.690239 -2.624342 -1.591136 0
M  V30 21 C -2.937769 -2.969357 -1.113756 0
M  V30 22 C -3.248879 -3.038179 0.229125 0
M  V30 23 O -4.489234 -3.381190 0.719409 0
M  V30 24 C -5.543573 -3.690506 -0.199014 0
M  V30 25 C -6.766711 -4.026243 0.638644 0
M  V30 26 O -6.494874 -5.120870 1.461617 0
M  V30 27 C -2.279158 -2.751122 1.178536 0
M  V30 28 H 3.076875 -2.139694 2.798355 0
M  V30 29 H 1.850886 -2.029513 4.147268 0
M  V30 30 H 2.329714 4.100521 0.720782 0
M  V30 31 H 4.088867 4.135327 0.571775 0
M  V30 32 H 3.645899 4.759064 -1.547130 0
M  V30 33 H 2.046619 3.977555 -1.517732 0
M  V30 34 H 4.912043 1.276562 -2.151102 0
M  V30 35 H 5.498412 2.741484 -1.324902 0
M  V30 36 H 3.829916 0.422085 -0.352352 0
M  V30 37 H 5.118617 1.346385 0.560195 0
M  V30 38 H 1.258741 3.192227 2.171424 0
M  V30 39 H 0.311938 -0.260636 4.195633 0
M  V30 40 H -0.101922 -1.054109 1.667930 0
M  V30 41 H 0.253664 -2.068379 -1.034384 0
M  V30 42 H -1.548556 -2.600354 -2.661593 0
M  V30 43 H -3.727830 -3.203387 -1.838025 0
M  V30 44 H -5.774464 -2.761564 -0.769516 0
M  V30 45 H -5.182790 -4.516036 -0.815692 0
M  V30 46 H -6.960008 -3.156289 1.281837 0
M  V30 47 H -7.612273 -4.230509 -0.049699 0
M  V30 48 H -5.574791 -5.458599 1.280219 0
M  V30 49 H -2.412306 -2.774601 2.245213 0
M  V30 END ATOM
M  V30 BEGIN BOND
M  V30 1 2 1 2
M  V30 2 1 2 3
M  V30 3 1 3 4
M  V30 4 2 4 5
M  V30 5 1 5 6
M  V30 6 1 6 7
M  V30 7 1 7 8
M  V30 8 1 8 9
M  V30 9 1 9 10
M  V30 10 1 10 11
M  V30 11 1 11 12
M  V30 12 2 6 13
M  V30 13 1 13 14
M  V30 14 2 14 15
M  V30 15 1 14 16
M  V30 16 1 2 17
M  V30 17 1 17 18
M  V30 18 2 18 19
M  V30 19 1 19 20
M  V30 20 2 20 21
M  V30 21 1 21 22
M  V30 22 1 22 23
M  V30 23 1 23 24
M  V30 24 1 24 25
M  V30 25 1 25 26
M  V30 26 2 22 27
M  V30 27 1 16 4
M  V30 28 1 27 18
M  V30 29 1 12 7
M  V30 30 1 3 28
M  V30 31 1 3 29
M  V30 32 1 8 30
M  V30 33 1 8 31
M  V30 34 1 9 32
M  V30 35 1 9 33
M  V30 36 1 11 34
M  V30 37 1 11 35
M  V30 38 1 12 36
M  V30 39 1 12 37
M  V30 40 1 13 38
M  V30 41 1 16 39
M  V30 42 1 17 40
M  V30 43 1 19 41
M  V30 44 1 20 42
M  V30 45 1 21 43
M  V30 46 1 24 44
M  V30 47 1 24 45
M  V30 48 1 25 46
M  V30 49 1 25 47
M  V30 50 1 26 48
M  V30 51 1 27 49
M  V30 END BOND
M  V30 END CTAB
M  END
>  <Dataset>  (238) 
ChEMBL_Kinases

>  <Ligand_Instance>  (238) 
nan

>  <PDB_ID>  (238) 
nan

>  <Standardized_SMILES>  (238) 
O=C(Cc1nc(N2CCOCC2)cc(=O)[nH]1)Nc1cccc(OCCO)c1

>  <Name>  (238) 
nan

>  <Pocket>  (238) 
nan

>  <ATP_Site>  (238) 
nan

>  <Peripheral>  (238) 
nan

>  <Num_H_Atoms_ProtBoundConf>  (238) 
nan

>  <Num_Resolved_Atoms>  (238) 
nan

>  <Num_Not_Resolved_Atoms>  (238) 
nan

$$$$
CHEMBL3696270
     RDKit          3D

  0  0  0  0  0  0  0  0  0  0999 V3000
M  V30 BEGIN CTAB
M  V30 COUNTS 45 47 0 0 0
M  V30 BEGIN ATOM
M  V30 1 O -0.844358 -0.321448 2.080280 0
M  V30 2 C -0.390011 -1.191348 2.895807 0
M  V30 3 C 1.051528 -0.912224 3.211233 0
M  V30 4 C 1.500928 0.298035 2.471558 0
M  V30 5 N 2.038133 0.223997 1.239991 0
M  V30 6 C 2.457618 1.255814 0.524785 0
M  V30 7 N 3.019258 1.115280 -0.776076 0
M  V30 8 C 3.474646 2.207628 -1.583417 0
M  V30 9 C 3.517962 1.657041 -3.015727 0
M  V30 10 O 4.453520 0.649548 -3.134777 0
M  V30 11 C 4.483528 -0.228038 -2.075961 0
M  V30 12 C 3.149115 -0.215764 -1.342079 0
M  V30 13 C 2.319403 2.493146 1.117207 0
M  V30 14 C 1.766900 2.601552 2.391205 0
M  V30 15 O 1.661479 3.763007 2.892383 0
M  V30 16 N 1.368914 1.496379 3.041322 0
M  V30 17 N -1.052914 -2.294048 3.479167 0
M  V30 18 C -2.420158 -2.345509 3.020724 0
M  V30 19 C -3.446638 -1.701430 3.680618 0
M  V30 20 C -4.712532 -1.832198 3.133270 0
M  V30 21 C -4.908052 -2.577500 1.981889 0
M  V30 22 F -6.151771 -2.696134 1.458686 0
M  V30 23 C -3.875339 -3.211412 1.338806 0
M  V30 24 O -4.039306 -3.967023 0.181243 0
M  V30 25 C -3.924825 -3.318411 -1.092832 0
M  V30 26 F -4.114141 -4.207938 -2.130853 0
M  V30 27 F -4.831638 -2.279225 -1.169491 0
M  V30 28 F -2.652352 -2.797360 -1.232071 0
M  V30 29 C -2.591353 -3.091623 1.874978 0
M  V30 30 H 1.280481 -0.914778 4.272822 0
M  V30 31 H 1.597159 -1.781900 2.744825 0
M  V30 32 H 4.466402 2.606254 -1.332199 0
M  V30 33 H 2.675529 2.984763 -1.582448 0
M  V30 34 H 2.502061 1.299830 -3.286186 0
M  V30 35 H 3.805765 2.485901 -3.683100 0
M  V30 36 H 4.791299 -1.257045 -2.362139 0
M  V30 37 H 5.236474 0.154405 -1.343111 0
M  V30 38 H 2.308380 -0.536254 -1.955590 0
M  V30 39 H 3.255238 -0.980810 -0.518030 0
M  V30 40 H 2.630884 3.384980 0.614722 0
M  V30 41 H 0.957633 1.558495 3.985452 0
M  V30 42 H -0.481214 -2.881410 4.125864 0
M  V30 43 H -3.199088 -1.143348 4.571202 0
M  V30 44 H -5.531554 -1.329229 3.643963 0
M  V30 45 H -1.774162 -3.595653 1.362229 0
M  V30 END ATOM
M  V30 BEGIN BOND
M  V30 1 2 1 2
M  V30 2 1 2 3
M  V30 3 1 3 4
M  V30 4 2 4 5
M  V30 5 1 5 6
M  V30 6 1 6 7
M  V30 7 1 7 8
M  V30 8 1 8 9
M  V30 9 1 9 10
M  V30 10 1 10 11
M  V30 11 1 11 12
M  V30 12 2 6 13
M  V30 13 1 13 14
M  V30 14 2 14 15
M  V30 15 1 14 16
M  V30 16 1 2 17
M  V30 17 1 17 18
M  V30 18 2 18 19
M  V30 19 1 19 20
M  V30 20 2 20 21
M  V30 21 1 21 22
M  V30 22 1 21 23
M  V30 23 1 23 24
M  V30 24 1 24 25
M  V30 25 1 25 26
M  V30 26 1 25 27
M  V30 27 1 25 28
M  V30 28 2 23 29
M  V30 29 1 16 4
M  V30 30 1 29 18
M  V30 31 1 12 7
M  V30 32 1 3 30
M  V30 33 1 3 31
M  V30 34 1 8 32
M  V30 35 1 8 33
M  V30 36 1 9 34
M  V30 37 1 9 35
M  V30 38 1 11 36
M  V30 39 1 11 37
M  V30 40 1 12 38
M  V30 41 1 12 39
M  V30 42 1 13 40
M  V30 43 1 16 41
M  V30 44 1 17 42
M  V30 45 1 19 43
M  V30 46 1 20 44
M  V30 47 1 29 45
M  V30 END BOND
M  V30 END CTAB
M  END
>  <Dataset>  (239) 
ChEMBL_Kinases

>  <Ligand_Instance>  (239) 
nan

>  <PDB_ID>  (239) 
nan

>  <Standardized_SMILES>  (239) 
O=C(Cc1nc(N2CCOCC2)cc(=O)[nH]1)Nc1ccc(F)c(OC(F)(F)F)c1

>  <Name>  (239) 
nan

>  <Pocket>  (239) 
nan

>  <ATP_Site>  (239) 
nan

>  <Peripheral>  (239) 
nan

>  <Num_H_Atoms_ProtBoundConf>  (239) 
nan

>  <Num_Resolved_Atoms>  (239) 
nan

>  <Num_Not_Resolved_Atoms>  (239) 
nan

$$$$
CHEMBL3696269
     RDKit          3D

  0  0  0  0  0  0  0  0  0  0999 V3000
M  V30 BEGIN CTAB
M  V30 COUNTS 41 43 0 0 0
M  V30 BEGIN ATOM
M  V30 1 O -1.055131 -1.041602 1.736551 0
M  V30 2 C -0.540241 -1.740106 2.646667 0
M  V30 3 C 0.702559 -1.032919 3.115637 0
M  V30 4 C 0.880632 0.225902 2.347386 0
M  V30 5 N 1.583848 0.248757 1.203002 0
M  V30 6 C 1.763064 1.376079 0.483168 0
M  V30 7 N 2.499447 1.449199 -0.733717 0
M  V30 8 C 2.604542 2.752142 -1.405166 0
M  V30 9 C 3.096745 2.616862 -2.808810 0
M  V30 10 O 2.825713 1.315415 -3.272738 0
M  V30 11 C 3.672772 0.471243 -2.586410 0
M  V30 12 C 3.088404 0.193973 -1.200868 0
M  V30 13 C 1.158205 2.497035 1.031990 0
M  V30 14 C 0.429974 2.492452 2.209783 0
M  V30 15 O -0.098361 3.523963 2.669172 0
M  V30 16 N 0.298615 1.329960 2.865770 0
M  V30 17 N -0.901513 -2.972250 3.251518 0
M  V30 18 C -2.107918 -3.519544 2.695826 0
M  V30 19 C -3.370583 -3.245581 3.183442 0
M  V30 20 C -4.500415 -3.805715 2.602760 0
M  V30 21 C -4.325608 -4.649674 1.517313 0
M  V30 22 F -5.450318 -5.168337 0.988303 0
M  V30 23 C -3.085728 -4.953458 0.994591 0
M  V30 24 F -3.000611 -5.785187 -0.065324 0
M  V30 25 C -1.990469 -4.367024 1.612355 0
M  V30 26 F -0.772363 -4.666390 1.097590 0
M  V30 27 H 1.534180 -1.740211 2.959006 0
M  V30 28 H 0.589350 -0.828953 4.179105 0
M  V30 29 H 1.556435 3.121208 -1.436471 0
M  V30 30 H 3.219344 3.453892 -0.825505 0
M  V30 31 H 2.566263 3.348659 -3.439706 0
M  V30 32 H 4.181157 2.827609 -2.921457 0
M  V30 33 H 3.839510 -0.436761 -3.174183 0
M  V30 34 H 4.642166 1.028517 -2.439626 0
M  V30 35 H 3.952330 -0.116000 -0.577512 0
M  V30 36 H 2.315880 -0.586677 -1.294957 0
M  V30 37 H 1.227107 3.459982 0.553026 0
M  V30 38 H -0.253994 1.323806 3.760583 0
M  V30 39 H -0.276389 -3.332967 4.004732 0
M  V30 40 H -3.460841 -2.574135 4.041615 0
M  V30 41 H -5.484923 -3.589212 2.986638 0
M  V30 END ATOM
M  V30 BEGIN BOND
M  V30 1 2 1 2
M  V30 2 1 2 3
M  V30 3 1 3 4
M  V30 4 2 4 5
M  V30 5 1 5 6
M  V30 6 1 6 7
M  V30 7 1 7 8
M  V30 8 1 8 9
M  V30 9 1 9 10
M  V30 10 1 10 11
M  V30 11 1 11 12
M  V30 12 2 6 13
M  V30 13 1 13 14
M  V30 14 2 14 15
M  V30 15 1 14 16
M  V30 16 1 2 17
M  V30 17 1 17 18
M  V30 18 2 18 19
M  V30 19 1 19 20
M  V30 20 2 20 21
M  V30 21 1 21 22
M  V30 22 1 21 23
M  V30 23 1 23 24
M  V30 24 2 23 25
M  V30 25 1 25 26
M  V30 26 1 16 4
M  V30 27 1 25 18
M  V30 28 1 12 7
M  V30 29 1 3 27
M  V30 30 1 3 28
M  V30 31 1 8 29
M  V30 32 1 8 30
M  V30 33 1 9 31
M  V30 34 1 9 32
M  V30 35 1 11 33
M  V30 36 1 11 34
M  V30 37 1 12 35
M  V30 38 1 12 36
M  V30 39 1 13 37
M  V30 40 1 16 38
M  V30 41 1 17 39
M  V30 42 1 19 40
M  V30 43 1 20 41
M  V30 END BOND
M  V30 END CTAB
M  END
>  <Dataset>  (240) 
ChEMBL_Kinases

>  <Ligand_Instance>  (240) 
nan

>  <PDB_ID>  (240) 
nan

>  <Standardized_SMILES>  (240) 
O=C(Cc1nc(N2CCOCC2)cc(=O)[nH]1)Nc1ccc(F)c(F)c1F

>  <Name>  (240) 
nan

>  <Pocket>  (240) 
nan

>  <ATP_Site>  (240) 
nan

>  <Peripheral>  (240) 
nan

>  <Num_H_Atoms_ProtBoundConf>  (240) 
nan

>  <Num_Resolved_Atoms>  (240) 
nan

>  <Num_Not_Resolved_Atoms>  (240) 
nan

$$$$
CHEMBL3699795
     RDKit          3D

  0  0  0  0  0  0  0  0  0  0999 V3000
M  V30 BEGIN CTAB
M  V30 COUNTS 60 63 0 0 0
M  V30 BEGIN ATOM
M  V30 1 O -1.754433 0.355700 1.662403 0
M  V30 2 C -1.823031 -0.496061 2.585612 0
M  V30 3 C -0.978463 -0.595407 3.820682 0
M  V30 4 C -0.008536 0.529621 3.762339 0
M  V30 5 N 1.186626 0.335118 3.161144 0
M  V30 6 C 2.113751 1.292296 3.065522 0
M  V30 7 N 3.325343 0.966359 2.413259 0
M  V30 8 C 3.525540 -0.367363 1.880313 0
M  V30 9 C 3.624108 -0.216885 0.379545 0
M  V30 10 O 4.448701 0.841820 0.026649 0
M  V30 11 C 5.252645 1.287322 1.069090 0
M  V30 12 C 4.434657 1.879580 2.218528 0
M  V30 13 C 1.893155 2.547872 3.584584 0
M  V30 14 C 0.671572 2.731843 4.194106 0
M  V30 15 O 0.435956 3.879899 4.683917 0
M  V30 16 N -0.237564 1.749431 4.273221 0
M  V30 17 N -2.851407 -1.472450 2.388078 0
M  V30 18 C -3.594510 -1.265320 1.159321 0
M  V30 19 C -4.671155 -0.423801 1.482225 0
M  V30 20 C -5.528295 -0.086686 0.446460 0
M  V30 21 C -5.369201 -0.531804 -0.845853 0
M  V30 22 F -6.162812 -0.240287 -1.884577 0
M  V30 23 C -4.289793 -1.345773 -1.052923 0
M  V30 24 C -3.363853 -1.758193 -0.124142 0
M  V30 25 O -2.289651 -2.492989 -0.033441 0
M  V30 26 C -1.404278 -3.275188 -0.690843 0
M  V30 27 C -0.590851 -2.608424 -1.776197 0
M  V30 28 C -1.454904 -2.072856 -2.834317 0
M  V30 29 C -0.624259 -1.949510 -4.123159 0
M  V30 30 N -0.416766 -3.339981 -4.500936 0
M  V30 31 C 0.478640 -4.015469 -3.604516 0
M  V30 32 C 0.558580 -3.450648 -2.228686 0
M  V30 33 H -1.698778 -0.375374 4.659761 0
M  V30 34 H -0.503593 -1.576972 3.911102 0
M  V30 35 H 4.479763 -0.718120 2.324059 0
M  V30 36 H 2.671605 -1.002385 2.110327 0
M  V30 37 H 2.589623 0.070216 0.043062 0
M  V30 38 H 3.895303 -1.177723 -0.073999 0
M  V30 39 H 5.904873 2.077518 0.653650 0
M  V30 40 H 5.943438 0.493673 1.443334 0
M  V30 41 H 4.145917 2.899427 1.963112 0
M  V30 42 H 5.101870 1.792431 3.108073 0
M  V30 43 H 2.639517 3.319058 3.507810 0
M  V30 44 H -1.164775 1.923193 4.747307 0
M  V30 45 H -3.021593 -2.239399 3.075682 0
M  V30 46 H -4.959020 0.019453 2.416495 0
M  V30 47 H -6.399514 0.563865 0.588252 0
M  V30 48 H -4.109187 -1.739272 -2.020142 0
M  V30 49 H -0.673350 -3.732126 0.061050 0
M  V30 50 H -1.884243 -4.198128 -1.142886 0
M  V30 51 H -0.138716 -1.709975 -1.249817 0
M  V30 52 H -2.267504 -2.788882 -3.094240 0
M  V30 53 H -1.880342 -1.093813 -2.613635 0
M  V30 54 H 0.305127 -1.393273 -3.961896 0
M  V30 55 H -1.303818 -1.524032 -4.879877 0
M  V30 56 H -0.087425 -3.328158 -5.492894 0
M  V30 57 H 0.202672 -5.091562 -3.598787 0
M  V30 58 H 1.477862 -3.982711 -4.119034 0
M  V30 59 H 1.522703 -2.909929 -2.139472 0
M  V30 60 H 0.632743 -4.313728 -1.518936 0
M  V30 END ATOM
M  V30 BEGIN BOND
M  V30 1 2 1 2
M  V30 2 1 2 3
M  V30 3 1 3 4
M  V30 4 2 4 5
M  V30 5 1 5 6
M  V30 6 1 6 7
M  V30 7 1 7 8
M  V30 8 1 8 9
M  V30 9 1 9 10
M  V30 10 1 10 11
M  V30 11 1 11 12
M  V30 12 2 6 13
M  V30 13 1 13 14
M  V30 14 2 14 15
M  V30 15 1 14 16
M  V30 16 1 2 17
M  V30 17 1 17 18
M  V30 18 2 18 19
M  V30 19 1 19 20
M  V30 20 2 20 21
M  V30 21 1 21 22
M  V30 22 1 21 23
M  V30 23 2 23 24
M  V30 24 1 24 25
M  V30 25 1 25 26
M  V30 26 1 26 27
M  V30 27 1 27 28
M  V30 28 1 28 29
M  V30 29 1 29 30
M  V30 30 1 30 31
M  V30 31 1 31 32
M  V30 32 1 16 4
M  V30 33 1 24 18
M  V30 34 1 32 27
M  V30 35 1 12 7
M  V30 36 1 3 33
M  V30 37 1 3 34
M  V30 38 1 8 35
M  V30 39 1 8 36
M  V30 40 1 9 37
M  V30 41 1 9 38
M  V30 42 1 11 39
M  V30 43 1 11 40
M  V30 44 1 12 41
M  V30 45 1 12 42
M  V30 46 1 13 43
M  V30 47 1 16 44
M  V30 48 1 17 45
M  V30 49 1 19 46
M  V30 50 1 20 47
M  V30 51 1 23 48
M  V30 52 1 26 49
M  V30 53 1 26 50
M  V30 54 1 27 51
M  V30 55 1 28 52
M  V30 56 1 28 53
M  V30 57 1 29 54
M  V30 58 1 29 55
M  V30 59 1 30 56
M  V30 60 1 31 57
M  V30 61 1 31 58
M  V30 62 1 32 59
M  V30 63 1 32 60
M  V30 END BOND
M  V30 END CTAB
M  END
>  <Dataset>  (241) 
ChEMBL_Kinases

>  <Ligand_Instance>  (241) 
nan

>  <PDB_ID>  (241) 
nan

>  <Standardized_SMILES>  (241) 
O=C(Cc1nc(N2CCOCC2)cc(=O)[nH]1)Nc1ccc(F)cc1OCC1CCNCC1

>  <Name>  (241) 
nan

>  <Pocket>  (241) 
nan

>  <ATP_Site>  (241) 
nan

>  <Peripheral>  (241) 
nan

>  <Num_H_Atoms_ProtBoundConf>  (241) 
nan

>  <Num_Resolved_Atoms>  (241) 
nan

>  <Num_Not_Resolved_Atoms>  (241) 
nan

$$$$
CHEMBL3696252
     RDKit          3D

  0  0  0  0  0  0  0  0  0  0999 V3000
M  V30 BEGIN CTAB
M  V30 COUNTS 45 47 0 0 0
M  V30 BEGIN ATOM
M  V30 1 O -0.518644 -1.489167 3.652844 0
M  V30 2 C 0.201205 -1.986382 2.751546 0
M  V30 3 C 1.671017 -1.916785 2.968026 0
M  V30 4 C 1.965277 -0.437426 3.035074 0
M  V30 5 N 2.258855 0.098626 1.838127 0
M  V30 6 C 2.553058 1.384880 1.641880 0
M  V30 7 N 2.848034 1.840158 0.329366 0
M  V30 8 C 3.206377 3.155992 -0.111988 0
M  V30 9 C 2.240575 3.701020 -1.142038 0
M  V30 10 O 1.576548 2.663079 -1.807260 0
M  V30 11 C 2.555013 1.686681 -2.061714 0
M  V30 12 C 2.805767 0.918887 -0.784952 0
M  V30 13 C 2.549841 2.199065 2.752136 0
M  V30 14 C 2.244576 1.635064 3.984203 0
M  V30 15 O 2.224731 2.329127 5.031649 0
M  V30 16 N 1.955130 0.332924 4.132341 0
M  V30 17 N -0.424159 -2.560500 1.625330 0
M  V30 18 C -1.800603 -2.677465 1.329147 0
M  V30 19 C -2.858277 -2.316130 2.092145 0
M  V30 20 C -4.194259 -2.441372 1.744711 0
M  V30 21 C -4.469565 -2.985961 0.503500 0
M  V30 22 F -5.793440 -3.105714 0.170998 0
M  V30 23 C -3.441705 -3.364312 -0.299934 0
M  V30 24 C -3.772247 -3.942925 -1.626862 0
M  V30 25 O -4.208769 -5.242740 -1.574917 0
M  V30 26 C -2.136037 -3.212084 0.107578 0
M  V30 27 H 2.183221 -2.397770 2.125715 0
M  V30 28 H 1.982479 -2.431635 3.898681 0
M  V30 29 H 3.166999 3.858251 0.743820 0
M  V30 30 H 4.261902 3.177602 -0.495433 0
M  V30 31 H 1.448365 4.344820 -0.717219 0
M  V30 32 H 2.763976 4.292655 -1.917928 0
M  V30 33 H 2.213406 0.990260 -2.878671 0
M  V30 34 H 3.480074 2.187482 -2.433721 0
M  V30 35 H 3.729647 0.309006 -0.862622 0
M  V30 36 H 1.951022 0.233585 -0.632952 0
M  V30 37 H 2.781436 3.247607 2.646006 0
M  V30 38 H 1.720835 -0.155484 5.007169 0
M  V30 39 H 0.293718 -2.928236 0.964189 0
M  V30 40 H -2.675257 -1.889431 3.065551 0
M  V30 41 H -4.986359 -2.124157 2.422505 0
M  V30 42 H -4.433702 -3.250501 -2.187914 0
M  V30 43 H -2.809739 -3.963070 -2.217262 0
M  V30 44 H -4.119613 -5.602877 -2.500130 0
M  V30 45 H -1.361873 -3.537651 -0.590577 0
M  V30 END ATOM
M  V30 BEGIN BOND
M  V30 1 2 1 2
M  V30 2 1 2 3
M  V30 3 1 3 4
M  V30 4 2 4 5
M  V30 5 1 5 6
M  V30 6 1 6 7
M  V30 7 1 7 8
M  V30 8 1 8 9
M  V30 9 1 9 10
M  V30 10 1 10 11
M  V30 11 1 11 12
M  V30 12 2 6 13
M  V30 13 1 13 14
M  V30 14 2 14 15
M  V30 15 1 14 16
M  V30 16 1 2 17
M  V30 17 1 17 18
M  V30 18 2 18 19
M  V30 19 1 19 20
M  V30 20 2 20 21
M  V30 21 1 21 22
M  V30 22 1 21 23
M  V30 23 1 23 24
M  V30 24 1 24 25
M  V30 25 2 23 26
M  V30 26 1 16 4
M  V30 27 1 26 18
M  V30 28 1 12 7
M  V30 29 1 3 27
M  V30 30 1 3 28
M  V30 31 1 8 29
M  V30 32 1 8 30
M  V30 33 1 9 31
M  V30 34 1 9 32
M  V30 35 1 11 33
M  V30 36 1 11 34
M  V30 37 1 12 35
M  V30 38 1 12 36
M  V30 39 1 13 37
M  V30 40 1 16 38
M  V30 41 1 17 39
M  V30 42 1 19 40
M  V30 43 1 20 41
M  V30 44 1 24 42
M  V30 45 1 24 43
M  V30 46 1 25 44
M  V30 47 1 26 45
M  V30 END BOND
M  V30 END CTAB
M  END
>  <Dataset>  (242) 
ChEMBL_Kinases

>  <Ligand_Instance>  (242) 
nan

>  <PDB_ID>  (242) 
nan

>  <Standardized_SMILES>  (242) 
O=C(Cc1nc(N2CCOCC2)cc(=O)[nH]1)Nc1ccc(F)c(CO)c1

>  <Name>  (242) 
nan

>  <Pocket>  (242) 
nan

>  <ATP_Site>  (242) 
nan

>  <Peripheral>  (242) 
nan

>  <Num_H_Atoms_ProtBoundConf>  (242) 
nan

>  <Num_Resolved_Atoms>  (242) 
nan

>  <Num_Not_Resolved_Atoms>  (242) 
nan

$$$$
CHEMBL3696253
     RDKit          3D

  0  0  0  0  0  0  0  0  0  0999 V3000
M  V30 BEGIN CTAB
M  V30 COUNTS 48 51 0 0 0
M  V30 BEGIN ATOM
M  V30 1 O 0.011826 -1.927483 0.728386 0
M  V30 2 C 0.595825 -2.785162 0.006082 0
M  V30 3 C 1.909403 -2.859868 0.663259 0
M  V30 4 C 1.891989 -1.905367 1.832274 0
M  V30 5 N 2.291524 -0.635773 1.613098 0
M  V30 6 C 2.305998 0.286854 2.591850 0
M  V30 7 N 2.727974 1.622840 2.346056 0
M  V30 8 C 2.769725 2.739311 3.235370 0
M  V30 9 C 1.975712 3.919679 2.713147 0
M  V30 10 O 1.927488 3.904672 1.317213 0
M  V30 11 C 3.105847 3.404639 0.777404 0
M  V30 12 C 3.186079 1.940843 1.031462 0
M  V30 13 C 1.897304 -0.096599 3.849931 0
M  V30 14 C 1.486181 -1.407884 4.070140 0
M  V30 15 O 1.088103 -1.903410 5.154735 0
M  V30 16 N 1.482578 -2.305875 3.072248 0
M  V30 17 N -0.066051 -3.365030 -1.083176 0
M  V30 18 C -1.374756 -3.131191 -1.544836 0
M  V30 19 C -1.750741 -3.860202 -2.648754 0
M  V30 20 C -3.004736 -3.733532 -3.208643 0
M  V30 21 C -3.911573 -2.839225 -2.634899 0
M  V30 22 C -3.580515 -2.099409 -1.543481 0
M  V30 23 C -4.495654 -1.126710 -0.875598 0
M  V30 24 C -4.366280 -0.981931 0.591684 0
M  V30 25 C -3.937725 0.137732 -0.312478 0
M  V30 26 C -2.304345 -2.278051 -1.033684 0
M  V30 27 H 2.701950 -2.525391 -0.022093 0
M  V30 28 H 2.100870 -3.909008 1.031740 0
M  V30 29 H 2.477738 2.414924 4.248543 0
M  V30 30 H 3.839555 3.084033 3.325517 0
M  V30 31 H 2.413101 4.881368 3.033782 0
M  V30 32 H 0.937724 3.831139 3.079177 0
M  V30 33 H 3.054167 3.558635 -0.325955 0
M  V30 34 H 4.001380 3.932413 1.168922 0
M  V30 35 H 4.242986 1.609145 0.858178 0
M  V30 36 H 2.500490 1.418800 0.302774 0
M  V30 37 H 1.867493 0.550781 4.708750 0
M  V30 38 H 1.198808 -3.313411 3.099440 0
M  V30 39 H 0.601369 -4.033501 -1.520575 0
M  V30 40 H -1.075675 -4.566011 -3.126176 0
M  V30 41 H -3.253718 -4.325616 -4.074716 0
M  V30 42 H -4.907885 -2.716770 -3.054842 0
M  V30 43 H -5.501557 -1.046928 -1.302586 0
M  V30 44 H -5.303061 -0.807086 1.198893 0
M  V30 45 H -3.614631 -1.594098 1.106692 0
M  V30 46 H -2.826509 0.316480 -0.365423 0
M  V30 47 H -4.525106 1.059308 -0.402664 0
M  V30 48 H -2.046644 -1.700287 -0.181443 0
M  V30 END ATOM
M  V30 BEGIN BOND
M  V30 1 2 1 2
M  V30 2 1 2 3
M  V30 3 1 3 4
M  V30 4 2 4 5
M  V30 5 1 5 6
M  V30 6 1 6 7
M  V30 7 1 7 8
M  V30 8 1 8 9
M  V30 9 1 9 10
M  V30 10 1 10 11
M  V30 11 1 11 12
M  V30 12 2 6 13
M  V30 13 1 13 14
M  V30 14 2 14 15
M  V30 15 1 14 16
M  V30 16 1 2 17
M  V30 17 1 17 18
M  V30 18 2 18 19
M  V30 19 1 19 20
M  V30 20 2 20 21
M  V30 21 1 21 22
M  V30 22 1 22 23
M  V30 23 1 23 24
M  V30 24 1 24 25
M  V30 25 2 22 26
M  V30 26 1 16 4
M  V30 27 1 26 18
M  V30 28 1 12 7
M  V30 29 1 25 23
M  V30 30 1 3 27
M  V30 31 1 3 28
M  V30 32 1 8 29
M  V30 33 1 8 30
M  V30 34 1 9 31
M  V30 35 1 9 32
M  V30 36 1 11 33
M  V30 37 1 11 34
M  V30 38 1 12 35
M  V30 39 1 12 36
M  V30 40 1 13 37
M  V30 41 1 16 38
M  V30 42 1 17 39
M  V30 43 1 19 40
M  V30 44 1 20 41
M  V30 45 1 21 42
M  V30 46 1 23 43
M  V30 47 1 24 44
M  V30 48 1 24 45
M  V30 49 1 25 46
M  V30 50 1 25 47
M  V30 51 1 26 48
M  V30 END BOND
M  V30 END CTAB
M  END
>  <Dataset>  (243) 
ChEMBL_Kinases

>  <Ligand_Instance>  (243) 
nan

>  <PDB_ID>  (243) 
nan

>  <Standardized_SMILES>  (243) 
O=C(Cc1nc(N2CCOCC2)cc(=O)[nH]1)Nc1cccc(C2CC2)c1

>  <Name>  (243) 
nan

>  <Pocket>  (243) 
nan

>  <ATP_Site>  (243) 
nan

>  <Peripheral>  (243) 
nan

>  <Num_H_Atoms_ProtBoundConf>  (243) 
nan

>  <Num_Resolved_Atoms>  (243) 
nan

>  <Num_Not_Resolved_Atoms>  (243) 
nan

$$$$
CHEMBL3696254
     RDKit          3D

  0  0  0  0  0  0  0  0  0  0999 V3000
M  V30 BEGIN CTAB
M  V30 COUNTS 42 44 0 0 0
M  V30 BEGIN ATOM
M  V30 1 O 0.902440 -1.179223 1.945219 0
M  V30 2 C 0.938297 -2.406929 2.229965 0
M  V30 3 C 2.089654 -2.565668 1.270355 0
M  V30 4 C 2.335765 -1.214138 0.709959 0
M  V30 5 N 1.695736 -0.814161 -0.412118 0
M  V30 6 C 1.891205 0.401257 -0.950555 0
M  V30 7 N 1.158694 0.699983 -2.129776 0
M  V30 8 C 0.260122 -0.290734 -2.687658 0
M  V30 9 C -1.091297 0.314596 -2.849524 0
M  V30 10 O -1.114847 1.683973 -3.035893 0
M  V30 11 C 0.011157 2.222160 -3.612021 0
M  V30 12 C 1.265619 1.981457 -2.824707 0
M  V30 13 C 2.754822 1.305575 -0.387811 0
M  V30 14 C 3.413083 0.901800 0.761162 0
M  V30 15 O 4.221698 1.687909 1.327962 0
M  V30 16 N 3.172551 -0.315002 1.240113 0
M  V30 17 N 0.291166 -3.365047 3.038783 0
M  V30 18 C -0.739337 -2.648007 3.749546 0
M  V30 19 C -1.973573 -2.598446 3.101360 0
M  V30 20 C -2.989200 -1.910856 3.766244 0
M  V30 21 C -2.721512 -1.340716 4.982963 0
M  V30 22 C -1.504794 -1.391352 5.618655 0
M  V30 23 C -0.498561 -2.062261 4.979045 0
M  V30 24 O 0.754384 -2.149127 5.569386 0
M  V30 25 H 1.833763 -3.280494 0.459386 0
M  V30 26 H 2.957961 -2.928410 1.838677 0
M  V30 27 H 0.175717 -1.158602 -1.993887 0
M  V30 28 H 0.688678 -0.669706 -3.638136 0
M  V30 29 H -1.710142 0.076361 -1.963734 0
M  V30 30 H -1.608442 -0.151503 -3.738190 0
M  V30 31 H -0.154275 3.319597 -3.648738 0
M  V30 32 H 0.151795 1.903734 -4.667989 0
M  V30 33 H 1.381090 2.792254 -2.085892 0
M  V30 34 H 2.133894 1.958458 -3.521267 0
M  V30 35 H 2.912793 2.281507 -0.818837 0
M  V30 36 H 3.674864 -0.623528 2.117173 0
M  V30 37 H 0.711430 -4.297351 2.913613 0
M  V30 38 H -2.151417 -3.054693 2.149531 0
M  V30 39 H -3.975600 -1.831057 3.322725 0
M  V30 40 H -3.558806 -0.813955 5.456793 0
M  V30 41 H -1.412249 -0.909467 6.566817 0
M  V30 42 H 1.290564 -1.352732 5.883014 0
M  V30 END ATOM
M  V30 BEGIN BOND
M  V30 1 2 1 2
M  V30 2 1 2 3
M  V30 3 1 3 4
M  V30 4 2 4 5
M  V30 5 1 5 6
M  V30 6 1 6 7
M  V30 7 1 7 8
M  V30 8 1 8 9
M  V30 9 1 9 10
M  V30 10 1 10 11
M  V30 11 1 11 12
M  V30 12 2 6 13
M  V30 13 1 13 14
M  V30 14 2 14 15
M  V30 15 1 14 16
M  V30 16 1 2 17
M  V30 17 1 17 18
M  V30 18 2 18 19
M  V30 19 1 19 20
M  V30 20 2 20 21
M  V30 21 1 21 22
M  V30 22 2 22 23
M  V30 23 1 23 24
M  V30 24 1 16 4
M  V30 25 1 23 18
M  V30 26 1 12 7
M  V30 27 1 3 25
M  V30 28 1 3 26
M  V30 29 1 8 27
M  V30 30 1 8 28
M  V30 31 1 9 29
M  V30 32 1 9 30
M  V30 33 1 11 31
M  V30 34 1 11 32
M  V30 35 1 12 33
M  V30 36 1 12 34
M  V30 37 1 13 35
M  V30 38 1 16 36
M  V30 39 1 17 37
M  V30 40 1 19 38
M  V30 41 1 20 39
M  V30 42 1 21 40
M  V30 43 1 22 41
M  V30 44 1 24 42
M  V30 END BOND
M  V30 END CTAB
M  END
>  <Dataset>  (244) 
ChEMBL_Kinases

>  <Ligand_Instance>  (244) 
nan

>  <PDB_ID>  (244) 
nan

>  <Standardized_SMILES>  (244) 
O=C(Cc1nc(N2CCOCC2)cc(=O)[nH]1)Nc1ccccc1O

>  <Name>  (244) 
nan

>  <Pocket>  (244) 
nan

>  <ATP_Site>  (244) 
nan

>  <Peripheral>  (244) 
nan

>  <Num_H_Atoms_ProtBoundConf>  (244) 
nan

>  <Num_Resolved_Atoms>  (244) 
nan

>  <Num_Not_Resolved_Atoms>  (244) 
nan

$$$$
CHEMBL3696255
     RDKit          3D

  0  0  0  0  0  0  0  0  0  0999 V3000
M  V30 BEGIN CTAB
M  V30 COUNTS 45 47 0 0 0
M  V30 BEGIN ATOM
M  V30 1 O 1.355997 -2.621061 2.240539 0
M  V30 2 C 0.572910 -1.796664 2.777413 0
M  V30 3 C 0.816592 -0.872684 3.944646 0
M  V30 4 C 1.535168 0.323002 3.433806 0
M  V30 5 N 1.790657 0.371384 2.110055 0
M  V30 6 C 2.409778 1.477483 1.590080 0
M  V30 7 N 2.613095 1.367609 0.197466 0
M  V30 8 C 2.090466 2.514698 -0.563081 0
M  V30 9 C 2.022382 2.075900 -2.033855 0
M  V30 10 O 3.302409 1.749745 -2.478038 0
M  V30 11 C 3.902746 0.720613 -1.807812 0
M  V30 12 C 3.266843 0.292002 -0.517953 0
M  V30 13 C 2.791238 2.561119 2.363675 0
M  V30 14 C 2.510181 2.463845 3.707362 0
M  V30 15 O 2.862808 3.454891 4.407059 0
M  V30 16 N 1.906376 1.380661 4.201662 0
M  V30 17 N -0.698552 -1.733605 2.202585 0
M  V30 18 C -1.625985 -2.183487 1.232518 0
M  V30 19 C -1.383001 -1.576103 -0.011397 0
M  V30 20 C -2.194661 -1.853333 -1.092309 0
M  V30 21 C -3.230776 -2.732132 -0.891199 0
M  V30 22 C -3.515977 -3.362634 0.333290 0
M  V30 23 O -4.484905 -4.249614 0.739785 0
M  V30 24 C -5.509666 -4.749191 -0.072909 0
M  V30 25 F -5.647673 -6.102769 -0.032657 0
M  V30 26 F -6.692422 -4.068889 0.232777 0
M  V30 27 C -2.670002 -3.056919 1.400813 0
M  V30 28 H 1.549297 -1.429826 4.598728 0
M  V30 29 H -0.109844 -0.641054 4.490867 0
M  V30 30 H 2.811930 3.340037 -0.466048 0
M  V30 31 H 1.066704 2.754301 -0.185139 0
M  V30 32 H 1.272653 1.287389 -2.206038 0
M  V30 33 H 1.688467 2.956673 -2.622974 0
M  V30 34 H 4.959972 1.024380 -1.595051 0
M  V30 35 H 3.990380 -0.193407 -2.447245 0
M  V30 36 H 2.532293 -0.547405 -0.644382 0
M  V30 37 H 4.069424 -0.101774 0.169238 0
M  V30 38 H 3.268865 3.362980 1.816613 0
M  V30 39 H 1.693903 1.318911 5.228612 0
M  V30 40 H -1.391033 -1.037457 2.635311 0
M  V30 41 H -0.565808 -0.868367 -0.223682 0
M  V30 42 H -2.137387 -1.471608 -2.097174 0
M  V30 43 H -3.934280 -3.037430 -1.646396 0
M  V30 44 H -5.283175 -4.421909 -1.118895 0
M  V30 45 H -2.749553 -3.461305 2.419478 0
M  V30 END ATOM
M  V30 BEGIN BOND
M  V30 1 2 1 2
M  V30 2 1 2 3
M  V30 3 1 3 4
M  V30 4 2 4 5
M  V30 5 1 5 6
M  V30 6 1 6 7
M  V30 7 1 7 8
M  V30 8 1 8 9
M  V30 9 1 9 10
M  V30 10 1 10 11
M  V30 11 1 11 12
M  V30 12 2 6 13
M  V30 13 1 13 14
M  V30 14 2 14 15
M  V30 15 1 14 16
M  V30 16 1 2 17
M  V30 17 1 17 18
M  V30 18 2 18 19
M  V30 19 1 19 20
M  V30 20 2 20 21
M  V30 21 1 21 22
M  V30 22 1 22 23
M  V30 23 1 23 24
M  V30 24 1 24 25
M  V30 25 1 24 26
M  V30 26 2 22 27
M  V30 27 1 16 4
M  V30 28 1 27 18
M  V30 29 1 12 7
M  V30 30 1 3 28
M  V30 31 1 3 29
M  V30 32 1 8 30
M  V30 33 1 8 31
M  V30 34 1 9 32
M  V30 35 1 9 33
M  V30 36 1 11 34
M  V30 37 1 11 35
M  V30 38 1 12 36
M  V30 39 1 12 37
M  V30 40 1 13 38
M  V30 41 1 16 39
M  V30 42 1 17 40
M  V30 43 1 19 41
M  V30 44 1 20 42
M  V30 45 1 21 43
M  V30 46 1 24 44
M  V30 47 1 27 45
M  V30 END BOND
M  V30 END CTAB
M  END
>  <Dataset>  (245) 
ChEMBL_Kinases

>  <Ligand_Instance>  (245) 
nan

>  <PDB_ID>  (245) 
nan

>  <Standardized_SMILES>  (245) 
O=C(Cc1nc(N2CCOCC2)cc(=O)[nH]1)Nc1cccc(OC(F)F)c1

>  <Name>  (245) 
nan

>  <Pocket>  (245) 
nan

>  <ATP_Site>  (245) 
nan

>  <Peripheral>  (245) 
nan

>  <Num_H_Atoms_ProtBoundConf>  (245) 
nan

>  <Num_Resolved_Atoms>  (245) 
nan

>  <Num_Not_Resolved_Atoms>  (245) 
nan

$$$$
CHEMBL3696256
     RDKit          3D

  0  0  0  0  0  0  0  0  0  0999 V3000
M  V30 BEGIN CTAB
M  V30 COUNTS 48 50 0 0 0
M  V30 BEGIN ATOM
M  V30 1 C 1.764759 -6.599955 0.856935 0
M  V30 2 O 0.427674 -6.471988 1.247484 0
M  V30 3 C -0.256790 -5.277055 1.109746 0
M  V30 4 C 0.369673 -4.180977 0.581151 0
M  V30 5 C -0.299671 -2.982522 0.437515 0
M  V30 6 N 0.209842 -1.763606 -0.090285 0
M  V30 7 C 0.097107 -1.509886 -1.463174 0
M  V30 8 O -0.465474 -2.403361 -2.168048 0
M  V30 9 C 0.608287 -0.255312 -2.082736 0
M  V30 10 C 2.087394 -0.099122 -1.781365 0
M  V30 11 C -0.080887 0.923082 -1.473739 0
M  V30 12 N 0.010518 1.086843 -0.141648 0
M  V30 13 C -0.571477 2.111913 0.505084 0
M  V30 14 N -0.450591 2.248810 1.915360 0
M  V30 15 C -1.027632 3.301773 2.714912 0
M  V30 16 C 0.143062 3.899369 3.506092 0
M  V30 17 O 0.494153 2.930884 4.436299 0
M  V30 18 C 0.997371 1.783819 3.871531 0
M  V30 19 C 0.295916 1.288638 2.655902 0
M  V30 20 C -1.267853 2.979196 -0.307022 0
M  V30 21 C -1.368413 2.821504 -1.673341 0
M  V30 22 O -2.005462 3.620918 -2.389677 0
M  V30 23 N -0.770089 1.780811 -2.280228 0
M  V30 24 C -1.618110 -2.880919 0.829963 0
M  V30 25 C -2.302449 -3.952656 1.369840 0
M  V30 26 C -1.587026 -5.139855 1.495333 0
M  V30 27 F -2.257157 -6.204068 2.028411 0
M  V30 28 H 2.264162 -7.462777 1.354102 0
M  V30 29 H 1.841877 -6.783287 -0.235139 0
M  V30 30 H 2.386489 -5.711238 1.151178 0
M  V30 31 H 1.396161 -4.172388 0.249378 0
M  V30 32 H 0.652470 -1.094645 0.561063 0
M  V30 33 H 0.467804 -0.290705 -3.176851 0
M  V30 34 H 2.400824 -0.919609 -1.085964 0
M  V30 35 H 2.686212 -0.077260 -2.717519 0
M  V30 36 H 2.314874 0.840952 -1.238565 0
M  V30 37 H -1.674911 2.783919 3.474382 0
M  V30 38 H -1.564158 4.063455 2.154604 0
M  V30 39 H -0.210445 4.790214 4.040907 0
M  V30 40 H 0.942005 4.107629 2.777078 0
M  V30 41 H 2.099800 1.930399 3.696978 0
M  V30 42 H 0.950296 0.979403 4.651845 0
M  V30 43 H 1.086228 0.868782 1.972551 0
M  V30 44 H -0.345422 0.385451 2.875841 0
M  V30 45 H -1.761808 3.826484 0.141780 0
M  V30 46 H -0.798755 1.591784 -3.305762 0
M  V30 47 H -2.229809 -1.969950 0.753787 0
M  V30 48 H -3.336543 -3.910102 1.688752 0
M  V30 END ATOM
M  V30 BEGIN BOND
M  V30 1 1 1 2
M  V30 2 1 2 3
M  V30 3 2 3 4
M  V30 4 1 4 5
M  V30 5 1 5 6
M  V30 6 1 6 7
M  V30 7 2 7 8
M  V30 8 1 7 9
M  V30 9 1 9 10
M  V30 10 1 9 11
M  V30 11 2 11 12
M  V30 12 1 12 13
M  V30 13 1 13 14
M  V30 14 1 14 15
M  V30 15 1 15 16
M  V30 16 1 16 17
M  V30 17 1 17 18
M  V30 18 1 18 19
M  V30 19 2 13 20
M  V30 20 1 20 21
M  V30 21 2 21 22
M  V30 22 1 21 23
M  V30 23 2 5 24
M  V30 24 1 24 25
M  V30 25 2 25 26
M  V30 26 1 26 27
M  V30 27 1 26 3
M  V30 28 1 23 11
M  V30 29 1 19 14
M  V30 30 1 1 28
M  V30 31 1 1 29
M  V30 32 1 1 30
M  V30 33 1 4 31
M  V30 34 1 6 32
M  V30 35 1 9 33
M  V30 36 1 10 34
M  V30 37 1 10 35
M  V30 38 1 10 36
M  V30 39 1 15 37
M  V30 40 1 15 38
M  V30 41 1 16 39
M  V30 42 1 16 40
M  V30 43 1 18 41
M  V30 44 1 18 42
M  V30 45 1 19 43
M  V30 46 1 19 44
M  V30 47 1 20 45
M  V30 48 1 23 46
M  V30 49 1 24 47
M  V30 50 1 25 48
M  V30 END BOND
M  V30 END CTAB
M  END
>  <Dataset>  (246) 
ChEMBL_Kinases

>  <Ligand_Instance>  (246) 
nan

>  <PDB_ID>  (246) 
nan

>  <Standardized_SMILES>  (246) 
COc1cc(NC(=O)C(C)c2nc(N3CCOCC3)cc(=O)[nH]2)ccc1F

>  <Name>  (246) 
nan

>  <Pocket>  (246) 
nan

>  <ATP_Site>  (246) 
nan

>  <Peripheral>  (246) 
nan

>  <Num_H_Atoms_ProtBoundConf>  (246) 
nan

>  <Num_Resolved_Atoms>  (246) 
nan

>  <Num_Not_Resolved_Atoms>  (246) 
nan

$$$$
CHEMBL3696257
     RDKit          3D

  0  0  0  0  0  0  0  0  0  0999 V3000
M  V30 BEGIN CTAB
M  V30 COUNTS 47 49 0 0 0
M  V30 BEGIN ATOM
M  V30 1 C -1.841835 -5.297584 1.876497 0
M  V30 2 C -0.947434 -4.511753 0.971381 0
M  V30 3 C 0.357960 -4.970125 0.974278 0
M  V30 4 C 1.311181 -4.342200 0.202938 0
M  V30 5 C 0.937965 -3.261376 -0.562465 0
M  V30 6 C -0.348384 -2.788266 -0.581062 0
M  V30 7 N -0.887137 -1.672551 -1.221207 0
M  V30 8 C 0.028484 -0.596527 -1.520023 0
M  V30 9 O 1.241726 -0.493797 -1.303216 0
M  V30 10 C -0.451269 0.668596 -2.203653 0
M  V30 11 C -0.599791 1.626657 -1.031953 0
M  V30 12 N 0.423878 1.703906 -0.194284 0
M  V30 13 C 0.423640 2.488835 0.917464 0
M  V30 14 N 1.582217 2.440290 1.735495 0
M  V30 15 C 1.877366 3.202030 2.930549 0
M  V30 16 C 2.144721 2.186972 4.022039 0
M  V30 17 O 1.931596 0.879291 3.646300 0
M  V30 18 C 2.631323 0.473864 2.524383 0
M  V30 19 C 2.673181 1.516943 1.426637 0
M  V30 20 C -0.719119 3.211772 1.123882 0
M  V30 21 C -1.809530 3.157051 0.267190 0
M  V30 22 O -2.849631 3.833781 0.483102 0
M  V30 23 N -1.731330 2.355176 -0.810377 0
M  V30 24 C -1.335867 -3.411231 0.196948 0
M  V30 25 C -2.760850 -3.106025 0.365176 0
M  V30 26 H -2.902756 -4.935749 1.800094 0
M  V30 27 H -1.708693 -6.360095 1.670165 0
M  V30 28 H -1.497078 -5.104574 2.936476 0
M  V30 29 H 0.702376 -5.822406 1.564445 0
M  V30 30 H 2.348320 -4.662031 0.166052 0
M  V30 31 H 1.645765 -2.735696 -1.184781 0
M  V30 32 H -1.859298 -1.481271 -1.536927 0
M  V30 33 H -1.442325 0.488802 -2.610869 0
M  V30 34 H 0.279194 1.100890 -2.878711 0
M  V30 35 H 1.127021 3.950231 3.168930 0
M  V30 36 H 2.888233 3.679898 2.741749 0
M  V30 37 H 3.142656 2.315131 4.507740 0
M  V30 38 H 1.399564 2.410057 4.817451 0
M  V30 39 H 3.677983 0.139431 2.769577 0
M  V30 40 H 2.106420 -0.412164 2.118372 0
M  V30 41 H 3.629803 2.070466 1.517462 0
M  V30 42 H 2.588045 1.097029 0.426822 0
M  V30 43 H -0.736428 3.843971 2.001789 0
M  V30 44 H -2.515990 2.250798 -1.518668 0
M  V30 45 H -3.443872 -3.951451 0.104697 0
M  V30 46 H -3.134195 -2.213924 -0.152117 0
M  V30 47 H -2.987725 -2.905343 1.455828 0
M  V30 END ATOM
M  V30 BEGIN BOND
M  V30 1 1 1 2
M  V30 2 2 2 3
M  V30 3 1 3 4
M  V30 4 2 4 5
M  V30 5 1 5 6
M  V30 6 1 6 7
M  V30 7 1 7 8
M  V30 8 2 8 9
M  V30 9 1 8 10
M  V30 10 1 10 11
M  V30 11 2 11 12
M  V30 12 1 12 13
M  V30 13 1 13 14
M  V30 14 1 14 15
M  V30 15 1 15 16
M  V30 16 1 16 17
M  V30 17 1 17 18
M  V30 18 1 18 19
M  V30 19 2 13 20
M  V30 20 1 20 21
M  V30 21 2 21 22
M  V30 22 1 21 23
M  V30 23 2 6 24
M  V30 24 1 24 25
M  V30 25 1 24 2
M  V30 26 1 23 11
M  V30 27 1 19 14
M  V30 28 1 1 26
M  V30 29 1 1 27
M  V30 30 1 1 28
M  V30 31 1 3 29
M  V30 32 1 4 30
M  V30 33 1 5 31
M  V30 34 1 7 32
M  V30 35 1 10 33
M  V30 36 1 10 34
M  V30 37 1 15 35
M  V30 38 1 15 36
M  V30 39 1 16 37
M  V30 40 1 16 38
M  V30 41 1 18 39
M  V30 42 1 18 40
M  V30 43 1 19 41
M  V30 44 1 19 42
M  V30 45 1 20 43
M  V30 46 1 23 44
M  V30 47 1 25 45
M  V30 48 1 25 46
M  V30 49 1 25 47
M  V30 END BOND
M  V30 END CTAB
M  END
>  <Dataset>  (247) 
ChEMBL_Kinases

>  <Ligand_Instance>  (247) 
nan

>  <PDB_ID>  (247) 
nan

>  <Standardized_SMILES>  (247) 
Cc1cccc(NC(=O)Cc2nc(N3CCOCC3)cc(=O)[nH]2)c1C

>  <Name>  (247) 
nan

>  <Pocket>  (247) 
nan

>  <ATP_Site>  (247) 
nan

>  <Peripheral>  (247) 
nan

>  <Num_H_Atoms_ProtBoundConf>  (247) 
nan

>  <Num_Resolved_Atoms>  (247) 
nan

>  <Num_Not_Resolved_Atoms>  (247) 
nan

$$$$
CHEMBL3696258
     RDKit          3D

  0  0  0  0  0  0  0  0  0  0999 V3000
M  V30 BEGIN CTAB
M  V30 COUNTS 44 46 0 0 0
M  V30 BEGIN ATOM
M  V30 1 C -0.345155 -5.279704 1.962480 0
M  V30 2 C -1.125260 -4.576018 0.900269 0
M  V30 3 C -2.501005 -4.654712 0.910927 0
M  V30 4 C -3.281009 -4.027974 -0.041454 0
M  V30 5 C -2.681518 -3.288035 -1.053501 0
M  V30 6 C -1.297265 -3.209792 -1.062942 0
M  V30 7 N -0.513120 -2.499004 -2.019753 0
M  V30 8 C -0.338441 -1.180297 -1.525084 0
M  V30 9 O -0.628391 -0.425456 -0.550498 0
M  V30 10 C 0.409467 -0.032415 -2.150979 0
M  V30 11 C 0.254010 1.094396 -1.186489 0
M  V30 12 N 1.173259 1.209030 -0.243115 0
M  V30 13 C 1.165369 2.183089 0.704693 0
M  V30 14 N 2.168258 2.283214 1.709128 0
M  V30 15 C 2.233566 3.275263 2.745036 0
M  V30 16 C 2.543403 2.581700 4.057994 0
M  V30 17 O 3.539530 1.638685 3.960339 0
M  V30 18 C 3.231039 0.626184 3.066439 0
M  V30 19 C 3.225092 1.290414 1.684910 0
M  V30 20 C 0.096343 3.045013 0.583278 0
M  V30 21 C -0.857335 2.918962 -0.402370 0
M  V30 22 O -1.806690 3.765806 -0.430370 0
M  V30 23 N -0.788355 1.936292 -1.303373 0
M  V30 24 C -0.520779 -3.834359 -0.113900 0
M  V30 25 F 0.824990 -3.805464 -0.055659 0
M  V30 26 H -0.908481 -6.171302 2.302954 0
M  V30 27 H 0.686638 -5.528474 1.624642 0
M  V30 28 H -0.284239 -4.592713 2.844733 0
M  V30 29 H -2.996567 -5.226061 1.690113 0
M  V30 30 H -4.362024 -4.076479 -0.052076 0
M  V30 31 H -3.201650 -2.753634 -1.854811 0
M  V30 32 H -0.041519 -2.639606 -2.941802 0
M  V30 33 H 1.458874 -0.276855 -2.316977 0
M  V30 34 H -0.031574 0.218717 -3.132403 0
M  V30 35 H 1.297097 3.817496 2.851406 0
M  V30 36 H 3.059357 3.987994 2.468027 0
M  V30 37 H 2.862973 3.353833 4.788484 0
M  V30 38 H 1.582298 2.133397 4.393468 0
M  V30 39 H 4.038831 -0.115125 3.108959 0
M  V30 40 H 2.221504 0.184004 3.215558 0
M  V30 41 H 4.236527 1.781438 1.597360 0
M  V30 42 H 3.103784 0.518444 0.913993 0
M  V30 43 H -0.003231 3.855329 1.287425 0
M  V30 44 H -1.500716 1.823961 -2.057471 0
M  V30 END ATOM
M  V30 BEGIN BOND
M  V30 1 1 1 2
M  V30 2 2 2 3
M  V30 3 1 3 4
M  V30 4 2 4 5
M  V30 5 1 5 6
M  V30 6 1 6 7
M  V30 7 1 7 8
M  V30 8 2 8 9
M  V30 9 1 8 10
M  V30 10 1 10 11
M  V30 11 2 11 12
M  V30 12 1 12 13
M  V30 13 1 13 14
M  V30 14 1 14 15
M  V30 15 1 15 16
M  V30 16 1 16 17
M  V30 17 1 17 18
M  V30 18 1 18 19
M  V30 19 2 13 20
M  V30 20 1 20 21
M  V30 21 2 21 22
M  V30 22 1 21 23
M  V30 23 2 6 24
M  V30 24 1 24 25
M  V30 25 1 24 2
M  V30 26 1 23 11
M  V30 27 1 19 14
M  V30 28 1 1 26
M  V30 29 1 1 27
M  V30 30 1 1 28
M  V30 31 1 3 29
M  V30 32 1 4 30
M  V30 33 1 5 31
M  V30 34 1 7 32
M  V30 35 1 10 33
M  V30 36 1 10 34
M  V30 37 1 15 35
M  V30 38 1 15 36
M  V30 39 1 16 37
M  V30 40 1 16 38
M  V30 41 1 18 39
M  V30 42 1 18 40
M  V30 43 1 19 41
M  V30 44 1 19 42
M  V30 45 1 20 43
M  V30 46 1 23 44
M  V30 END BOND
M  V30 END CTAB
M  END
>  <Dataset>  (248) 
ChEMBL_Kinases

>  <Ligand_Instance>  (248) 
nan

>  <PDB_ID>  (248) 
nan

>  <Standardized_SMILES>  (248) 
Cc1cccc(NC(=O)Cc2nc(N3CCOCC3)cc(=O)[nH]2)c1F

>  <Name>  (248) 
nan

>  <Pocket>  (248) 
nan

>  <ATP_Site>  (248) 
nan

>  <Peripheral>  (248) 
nan

>  <Num_H_Atoms_ProtBoundConf>  (248) 
nan

>  <Num_Resolved_Atoms>  (248) 
nan

>  <Num_Not_Resolved_Atoms>  (248) 
nan

$$$$
CHEMBL3696268
     RDKit          3D

  0  0  0  0  0  0  0  0  0  0999 V3000
M  V30 BEGIN CTAB
M  V30 COUNTS 48 51 0 0 0
M  V30 BEGIN ATOM
M  V30 1 O -0.190175 -1.133569 1.764130 0
M  V30 2 C 0.737402 -1.952980 1.971252 0
M  V30 3 C 2.022952 -1.347620 2.400933 0
M  V30 4 C 1.894751 0.130409 2.483530 0
M  V30 5 N 2.168284 0.852364 1.407099 0
M  V30 6 C 2.086445 2.192665 1.368627 0
M  V30 7 N 2.377844 2.962664 0.222743 0
M  V30 8 C 2.324131 4.390237 0.063983 0
M  V30 9 C 1.513688 4.791180 -1.154333 0
M  V30 10 O 1.698351 3.893142 -2.205060 0
M  V30 11 C 2.915548 3.223558 -2.087054 0
M  V30 12 C 2.792211 2.209758 -0.969867 0
M  V30 13 C 1.686096 2.748307 2.570767 0
M  V30 14 C 1.394365 2.020029 3.709203 0
M  V30 15 O 1.033222 2.558496 4.784945 0
M  V30 16 N 1.505293 0.673958 3.652203 0
M  V30 17 N 0.503502 -3.335656 1.788815 0
M  V30 18 C -0.684699 -3.988157 1.384112 0
M  V30 19 C -0.611120 -5.361919 1.292487 0
M  V30 20 C -1.700725 -6.110998 0.909473 0
M  V30 21 C -2.892866 -5.491356 0.609138 0
M  V30 22 F -3.937866 -6.263193 0.247547 0
M  V30 23 C -3.037598 -4.123109 0.678932 0
M  V30 24 C -4.242421 -3.369222 0.375982 0
M  V30 25 C -4.568536 -2.676799 -0.862938 0
M  V30 26 C -5.223842 -4.038287 -0.605207 0
M  V30 27 C -1.886471 -3.428716 1.075768 0
M  V30 28 H 2.777963 -1.591364 1.633988 0
M  V30 29 H 2.286847 -1.759151 3.396506 0
M  V30 30 H 3.369250 4.773958 -0.071046 0
M  V30 31 H 1.908889 4.851057 0.971334 0
M  V30 32 H 0.444148 4.744703 -0.869745 0
M  V30 33 H 1.747232 5.829050 -1.454020 0
M  V30 34 H 3.068648 2.675792 -3.039374 0
M  V30 35 H 3.768520 3.877125 -1.856723 0
M  V30 36 H 3.777481 1.741925 -0.748921 0
M  V30 37 H 2.030313 1.444207 -1.195211 0
M  V30 38 H 1.579137 3.812112 2.680610 0
M  V30 39 H 1.309284 0.057660 4.446385 0
M  V30 40 H 1.375264 -3.868351 2.003031 0
M  V30 41 H 0.310319 -5.897968 1.519913 0
M  V30 42 H -1.593497 -7.183773 0.852590 0
M  V30 43 H -4.737298 -2.960483 1.309375 0
M  V30 44 H -5.248632 -1.802265 -0.817451 0
M  V30 45 H -3.936170 -2.645534 -1.757944 0
M  V30 46 H -4.895485 -4.876263 -1.229334 0
M  V30 47 H -6.301261 -4.042172 -0.293382 0
M  V30 48 H -1.974694 -2.372665 1.136936 0
M  V30 END ATOM
M  V30 BEGIN BOND
M  V30 1 2 1 2
M  V30 2 1 2 3
M  V30 3 1 3 4
M  V30 4 2 4 5
M  V30 5 1 5 6
M  V30 6 1 6 7
M  V30 7 1 7 8
M  V30 8 1 8 9
M  V30 9 1 9 10
M  V30 10 1 10 11
M  V30 11 1 11 12
M  V30 12 2 6 13
M  V30 13 1 13 14
M  V30 14 2 14 15
M  V30 15 1 14 16
M  V30 16 1 2 17
M  V30 17 1 17 18
M  V30 18 2 18 19
M  V30 19 1 19 20
M  V30 20 2 20 21
M  V30 21 1 21 22
M  V30 22 1 21 23
M  V30 23 1 23 24
M  V30 24 1 24 25
M  V30 25 1 25 26
M  V30 26 2 23 27
M  V30 27 1 16 4
M  V30 28 1 27 18
M  V30 29 1 12 7
M  V30 30 1 26 24
M  V30 31 1 3 28
M  V30 32 1 3 29
M  V30 33 1 8 30
M  V30 34 1 8 31
M  V30 35 1 9 32
M  V30 36 1 9 33
M  V30 37 1 11 34
M  V30 38 1 11 35
M  V30 39 1 12 36
M  V30 40 1 12 37
M  V30 41 1 13 38
M  V30 42 1 16 39
M  V30 43 1 17 40
M  V30 44 1 19 41
M  V30 45 1 20 42
M  V30 46 1 24 43
M  V30 47 1 25 44
M  V30 48 1 25 45
M  V30 49 1 26 46
M  V30 50 1 26 47
M  V30 51 1 27 48
M  V30 END BOND
M  V30 END CTAB
M  END
>  <Dataset>  (249) 
ChEMBL_Kinases

>  <Ligand_Instance>  (249) 
nan

>  <PDB_ID>  (249) 
nan

>  <Standardized_SMILES>  (249) 
O=C(Cc1nc(N2CCOCC2)cc(=O)[nH]1)Nc1ccc(F)c(C2CC2)c1

>  <Name>  (249) 
nan

>  <Pocket>  (249) 
nan

>  <ATP_Site>  (249) 
nan

>  <Peripheral>  (249) 
nan

>  <Num_H_Atoms_ProtBoundConf>  (249) 
nan

>  <Num_Resolved_Atoms>  (249) 
nan

>  <Num_Not_Resolved_Atoms>  (249) 
nan

$$$$
CHEMBL3696260
     RDKit          3D

  0  0  0  0  0  0  0  0  0  0999 V3000
M  V30 BEGIN CTAB
M  V30 COUNTS 45 47 0 0 0
M  V30 BEGIN ATOM
M  V30 1 O -0.050929 -0.898565 4.147776 0
M  V30 2 C 0.526067 -1.381631 3.131426 0
M  V30 3 C 2.010831 -1.243478 2.970829 0
M  V30 4 C 2.218993 0.236842 2.793543 0
M  V30 5 N 2.012410 0.562581 1.514686 0
M  V30 6 C 2.112421 1.801958 1.004575 0
M  V30 7 N 1.870363 2.061345 -0.387960 0
M  V30 8 C 1.958617 3.310569 -1.068806 0
M  V30 9 C 2.083433 2.990555 -2.563832 0
M  V30 10 O 2.963559 1.967695 -2.789152 0
M  V30 11 C 2.636534 0.756503 -2.196395 0
M  V30 12 C 1.481894 0.913392 -1.218971 0
M  V30 13 C 2.456480 2.761937 1.918012 0
M  V30 14 C 2.674122 2.451417 3.236608 0
M  V30 15 O 2.990424 3.277357 4.118428 0
M  V30 16 N 2.556068 1.170691 3.694880 0
M  V30 17 N -0.188610 -2.059686 2.117158 0
M  V30 18 C -1.484054 -2.478855 1.717540 0
M  V30 19 C -2.110855 -1.459671 0.986836 0
M  V30 20 C -3.388764 -1.590399 0.458045 0
M  V30 21 C -4.022452 -2.791737 0.690826 0
M  V30 22 C -3.410128 -3.794664 1.407162 0
M  V30 23 O -3.953099 -5.060429 1.707416 0
M  V30 24 C -3.669703 -6.073670 0.720335 0
M  V30 25 F -2.296431 -6.235001 0.598063 0
M  V30 26 F -4.278252 -7.277920 1.056810 0
M  V30 27 F -4.148727 -5.717590 -0.526505 0
M  V30 28 C -2.144451 -3.670471 1.933291 0
M  V30 29 H 2.522898 -1.522879 3.920666 0
M  V30 30 H 2.340766 -1.838903 2.129923 0
M  V30 31 H 2.739510 4.001824 -0.714458 0
M  V30 32 H 0.970485 3.839258 -0.948436 0
M  V30 33 H 1.076772 2.690235 -2.949915 0
M  V30 34 H 2.438330 3.890854 -3.120892 0
M  V30 35 H 3.517089 0.502358 -1.531815 0
M  V30 36 H 2.419194 -0.059296 -2.898162 0
M  V30 37 H 0.543230 1.132013 -1.764902 0
M  V30 38 H 1.397261 -0.003479 -0.589296 0
M  V30 39 H 2.556792 3.774927 1.595503 0
M  V30 40 H 2.683448 0.779012 4.648867 0
M  V30 41 H 0.355292 -2.442161 1.298652 0
M  V30 42 H -1.683758 -0.472201 0.751436 0
M  V30 43 H -3.892536 -0.823595 -0.106567 0
M  V30 44 H -5.016852 -3.007404 0.329912 0
M  V30 45 H -1.544848 -4.342643 2.497003 0
M  V30 END ATOM
M  V30 BEGIN BOND
M  V30 1 2 1 2
M  V30 2 1 2 3
M  V30 3 1 3 4
M  V30 4 2 4 5
M  V30 5 1 5 6
M  V30 6 1 6 7
M  V30 7 1 7 8
M  V30 8 1 8 9
M  V30 9 1 9 10
M  V30 10 1 10 11
M  V30 11 1 11 12
M  V30 12 2 6 13
M  V30 13 1 13 14
M  V30 14 2 14 15
M  V30 15 1 14 16
M  V30 16 1 2 17
M  V30 17 1 17 18
M  V30 18 2 18 19
M  V30 19 1 19 20
M  V30 20 2 20 21
M  V30 21 1 21 22
M  V30 22 1 22 23
M  V30 23 1 23 24
M  V30 24 1 24 25
M  V30 25 1 24 26
M  V30 26 1 24 27
M  V30 27 2 22 28
M  V30 28 1 16 4
M  V30 29 1 28 18
M  V30 30 1 12 7
M  V30 31 1 3 29
M  V30 32 1 3 30
M  V30 33 1 8 31
M  V30 34 1 8 32
M  V30 35 1 9 33
M  V30 36 1 9 34
M  V30 37 1 11 35
M  V30 38 1 11 36
M  V30 39 1 12 37
M  V30 40 1 12 38
M  V30 41 1 13 39
M  V30 42 1 16 40
M  V30 43 1 17 41
M  V30 44 1 19 42
M  V30 45 1 20 43
M  V30 46 1 21 44
M  V30 47 1 28 45
M  V30 END BOND
M  V30 END CTAB
M  END
>  <Dataset>  (250) 
ChEMBL_Kinases

>  <Ligand_Instance>  (250) 
nan

>  <PDB_ID>  (250) 
nan

>  <Standardized_SMILES>  (250) 
O=C(Cc1nc(N2CCOCC2)cc(=O)[nH]1)Nc1cccc(OC(F)(F)F)c1

>  <Name>  (250) 
nan

>  <Pocket>  (250) 
nan

>  <ATP_Site>  (250) 
nan

>  <Peripheral>  (250) 
nan

>  <Num_H_Atoms_ProtBoundConf>  (250) 
nan

>  <Num_Resolved_Atoms>  (250) 
nan

>  <Num_Not_Resolved_Atoms>  (250) 
nan

$$$$
CHEMBL3696261
     RDKit          3D

  0  0  0  0  0  0  0  0  0  0999 V3000
M  V30 BEGIN CTAB
M  V30 COUNTS 51 53 0 0 0
M  V30 BEGIN ATOM
M  V30 1 C 2.746700 -2.477569 6.579552 0
M  V30 2 C 2.397661 -2.850593 5.151565 0
M  V30 3 C 1.036502 -3.556103 5.222062 0
M  V30 4 O 2.216871 -1.742195 4.331655 0
M  V30 5 C 2.960553 -1.559927 3.204447 0
M  V30 6 C 3.964417 -2.301891 2.620417 0
M  V30 7 C 4.564788 -1.881946 1.451636 0
M  V30 8 C 4.203006 -0.716169 0.809653 0
M  V30 9 C 3.189105 0.047010 1.386423 0
M  V30 10 N 2.857928 1.229195 0.689519 0
M  V30 11 C 1.840632 0.984747 -0.259395 0
M  V30 12 O 1.082347 0.129763 -0.759900 0
M  V30 13 C 1.169402 1.908406 -1.218933 0
M  V30 14 C 0.182375 1.063824 -1.952996 0
M  V30 15 N -1.095442 0.897575 -1.512250 0
M  V30 16 C -1.986614 0.150131 -2.152569 0
M  V30 17 N -3.313009 0.001252 -1.659023 0
M  V30 18 C -3.733667 0.662235 -0.435774 0
M  V30 19 C -4.965202 1.469353 -0.774191 0
M  V30 20 O -5.892283 0.688672 -1.421641 0
M  V30 21 C -5.574727 -0.640807 -1.550111 0
M  V30 22 C -4.284773 -0.816148 -2.364431 0
M  V30 23 C -1.629360 -0.497200 -3.317009 0
M  V30 24 C -0.325922 -0.296897 -3.720460 0
M  V30 25 O 0.029075 -0.886522 -4.797056 0
M  V30 26 N 0.613018 0.462102 -3.088607 0
M  V30 27 C 2.590927 -0.388601 2.567281 0
M  V30 28 H 3.856977 -2.483506 6.737225 0
M  V30 29 H 2.280520 -1.540817 6.882028 0
M  V30 30 H 2.367007 -3.300463 7.226867 0
M  V30 31 H 3.171688 -3.569868 4.841175 0
M  V30 32 H 1.067314 -4.426317 5.891555 0
M  V30 33 H 0.341316 -2.800267 5.676353 0
M  V30 34 H 0.677392 -3.773423 4.198022 0
M  V30 35 H 4.203154 -3.186479 3.153438 0
M  V30 36 H 5.344979 -2.526098 1.061852 0
M  V30 37 H 4.710748 -0.437070 -0.106744 0
M  V30 38 H 3.159337 2.231389 0.684843 0
M  V30 39 H 1.875967 2.417215 -1.882112 0
M  V30 40 H 0.572846 2.677239 -0.676031 0
M  V30 41 H -4.052792 -0.092685 0.325949 0
M  V30 42 H -2.945049 1.245432 0.031212 0
M  V30 43 H -5.374364 1.992727 0.112039 0
M  V30 44 H -4.634722 2.256091 -1.508459 0
M  V30 45 H -6.367768 -1.097261 -2.183640 0
M  V30 46 H -5.506808 -1.194534 -0.597409 0
M  V30 47 H -3.976794 -1.873244 -2.293654 0
M  V30 48 H -4.464388 -0.486013 -3.386651 0
M  V30 49 H -2.283756 -1.118822 -3.896478 0
M  V30 50 H 1.563619 0.547343 -3.474157 0
M  V30 51 H 1.816972 0.331030 2.877573 0
M  V30 END ATOM
M  V30 BEGIN BOND
M  V30 1 1 1 2
M  V30 2 1 2 3
M  V30 3 1 2 4
M  V30 4 1 4 5
M  V30 5 2 5 6
M  V30 6 1 6 7
M  V30 7 2 7 8
M  V30 8 1 8 9
M  V30 9 1 9 10
M  V30 10 1 10 11
M  V30 11 2 11 12
M  V30 12 1 11 13
M  V30 13 1 13 14
M  V30 14 2 14 15
M  V30 15 1 15 16
M  V30 16 1 16 17
M  V30 17 1 17 18
M  V30 18 1 18 19
M  V30 19 1 19 20
M  V30 20 1 20 21
M  V30 21 1 21 22
M  V30 22 2 16 23
M  V30 23 1 23 24
M  V30 24 2 24 25
M  V30 25 1 24 26
M  V30 26 2 9 27
M  V30 27 1 27 5
M  V30 28 1 26 14
M  V30 29 1 22 17
M  V30 30 1 1 28
M  V30 31 1 1 29
M  V30 32 1 1 30
M  V30 33 1 2 31
M  V30 34 1 3 32
M  V30 35 1 3 33
M  V30 36 1 3 34
M  V30 37 1 6 35
M  V30 38 1 7 36
M  V30 39 1 8 37
M  V30 40 1 10 38
M  V30 41 1 13 39
M  V30 42 1 13 40
M  V30 43 1 18 41
M  V30 44 1 18 42
M  V30 45 1 19 43
M  V30 46 1 19 44
M  V30 47 1 21 45
M  V30 48 1 21 46
M  V30 49 1 22 47
M  V30 50 1 22 48
M  V30 51 1 23 49
M  V30 52 1 26 50
M  V30 53 1 27 51
M  V30 END BOND
M  V30 END CTAB
M  END
>  <Dataset>  (251) 
ChEMBL_Kinases

>  <Ligand_Instance>  (251) 
nan

>  <PDB_ID>  (251) 
nan

>  <Standardized_SMILES>  (251) 
CC(C)Oc1cccc(NC(=O)Cc2nc(N3CCOCC3)cc(=O)[nH]2)c1

>  <Name>  (251) 
nan

>  <Pocket>  (251) 
nan

>  <ATP_Site>  (251) 
nan

>  <Peripheral>  (251) 
nan

>  <Num_H_Atoms_ProtBoundConf>  (251) 
nan

>  <Num_Resolved_Atoms>  (251) 
nan

>  <Num_Not_Resolved_Atoms>  (251) 
nan

$$$$
CHEMBL3696262
     RDKit          3D

  0  0  0  0  0  0  0  0  0  0999 V3000
M  V30 BEGIN CTAB
M  V30 COUNTS 45 47 0 0 0
M  V30 BEGIN ATOM
M  V30 1 C 1.006691 -3.342276 0.147541 0
M  V30 2 O 1.079557 -2.047877 -0.383181 0
M  V30 3 C 2.269231 -1.328336 -0.486547 0
M  V30 4 C 3.408197 -1.925987 -0.047879 0
M  V30 5 C 4.588940 -1.198764 -0.156407 0
M  V30 6 F 5.777725 -1.704990 0.254081 0
M  V30 7 C 4.625432 0.066201 -0.676429 0
M  V30 8 C 3.495840 0.679132 -1.118626 0
M  V30 9 C 2.316318 -0.023302 -1.021561 0
M  V30 10 N 0.989979 0.440935 -1.350493 0
M  V30 11 C 0.700619 1.838056 -1.132281 0
M  V30 12 O 1.470014 2.725121 -0.699912 0
M  V30 13 C -0.752142 2.087204 -1.507911 0
M  V30 14 C -1.550161 0.980835 -0.841050 0
M  V30 15 N -0.958876 0.616767 0.317362 0
M  V30 16 C -1.465700 -0.397727 1.070724 0
M  V30 17 N -0.867858 -0.791525 2.291243 0
M  V30 18 C -1.252458 -1.883285 3.166218 0
M  V30 19 C -1.745060 -1.155913 4.435934 0
M  V30 20 O -1.680673 0.207168 4.327079 0
M  V30 21 C -0.481379 0.757900 3.989595 0
M  V30 22 C 0.245137 -0.086492 2.916146 0
M  V30 23 C -2.593267 -1.037608 0.626923 0
M  V30 24 C -3.177244 -0.652972 -0.538931 0
M  V30 25 O -4.202509 -1.119468 -1.094796 0
M  V30 26 N -2.652279 0.335363 -1.242021 0
M  V30 27 H 1.566457 -4.079947 -0.460248 0
M  V30 28 H 1.383124 -3.424646 1.192108 0
M  V30 29 H -0.046138 -3.709603 0.167191 0
M  V30 30 H 3.443098 -2.938579 0.382946 0
M  V30 31 H 5.506534 0.689917 -0.792659 0
M  V30 32 H 3.385662 1.652836 -1.543104 0
M  V30 33 H 0.290199 -0.233088 -1.732461 0
M  V30 34 H -0.870959 2.136741 -2.563659 0
M  V30 35 H -1.096578 3.038635 -1.040171 0
M  V30 36 H -0.337850 -2.445263 3.456035 0
M  V30 37 H -1.988756 -2.570594 2.750696 0
M  V30 38 H -2.843592 -1.407075 4.460240 0
M  V30 39 H -1.297952 -1.571523 5.352560 0
M  V30 40 H 0.198991 1.022002 4.797025 0
M  V30 41 H -0.716840 1.723535 3.431619 0
M  V30 42 H 0.943513 -0.761809 3.427045 0
M  V30 43 H 0.767635 0.578786 2.182911 0
M  V30 44 H -3.086027 -1.859577 1.152524 0
M  V30 45 H -2.965763 0.748089 -2.145274 0
M  V30 END ATOM
M  V30 BEGIN BOND
M  V30 1 1 1 2
M  V30 2 1 2 3
M  V30 3 2 3 4
M  V30 4 1 4 5
M  V30 5 1 5 6
M  V30 6 2 5 7
M  V30 7 1 7 8
M  V30 8 2 8 9
M  V30 9 1 9 10
M  V30 10 1 10 11
M  V30 11 2 11 12
M  V30 12 1 11 13
M  V30 13 1 13 14
M  V30 14 2 14 15
M  V30 15 1 15 16
M  V30 16 1 16 17
M  V30 17 1 17 18
M  V30 18 1 18 19
M  V30 19 1 19 20
M  V30 20 1 20 21
M  V30 21 1 21 22
M  V30 22 2 16 23
M  V30 23 1 23 24
M  V30 24 2 24 25
M  V30 25 1 24 26
M  V30 26 1 9 3
M  V30 27 1 26 14
M  V30 28 1 22 17
M  V30 29 1 1 27
M  V30 30 1 1 28
M  V30 31 1 1 29
M  V30 32 1 4 30
M  V30 33 1 7 31
M  V30 34 1 8 32
M  V30 35 1 10 33
M  V30 36 1 13 34
M  V30 37 1 13 35
M  V30 38 1 18 36
M  V30 39 1 18 37
M  V30 40 1 19 38
M  V30 41 1 19 39
M  V30 42 1 21 40
M  V30 43 1 21 41
M  V30 44 1 22 42
M  V30 45 1 22 43
M  V30 46 1 23 44
M  V30 47 1 26 45
M  V30 END BOND
M  V30 END CTAB
M  END
>  <Dataset>  (252) 
ChEMBL_Kinases

>  <Ligand_Instance>  (252) 
nan

>  <PDB_ID>  (252) 
nan

>  <Standardized_SMILES>  (252) 
COc1cc(F)ccc1NC(=O)Cc1nc(N2CCOCC2)cc(=O)[nH]1

>  <Name>  (252) 
nan

>  <Pocket>  (252) 
nan

>  <ATP_Site>  (252) 
nan

>  <Peripheral>  (252) 
nan

>  <Num_H_Atoms_ProtBoundConf>  (252) 
nan

>  <Num_Resolved_Atoms>  (252) 
nan

>  <Num_Not_Resolved_Atoms>  (252) 
nan

$$$$
CHEMBL3696263
     RDKit          3D

  0  0  0  0  0  0  0  0  0  0999 V3000
M  V30 BEGIN CTAB
M  V30 COUNTS 64 66 0 0 0
M  V30 BEGIN ATOM
M  V30 1 C 5.160032 -0.021081 3.549401 0
M  V30 2 C 4.260847 0.708695 4.527461 0
M  V30 3 C 4.876817 0.944574 5.866271 0
M  V30 4 C 3.047968 -0.174226 4.719320 0
M  V30 5 O 3.913916 1.937544 3.888038 0
M  V30 6 C 3.251596 1.981912 2.694852 0
M  V30 7 O 2.919395 0.922760 2.110454 0
M  V30 8 N 2.923391 3.220886 2.087064 0
M  V30 9 C 2.220687 3.277123 0.822888 0
M  V30 10 C 0.881979 2.635890 0.836009 0
M  V30 11 C 0.186260 2.710135 -0.477887 0
M  V30 12 C -0.640438 3.759232 -0.833960 0
M  V30 13 C -1.283079 3.821022 -2.053349 0
M  V30 14 C -1.115792 2.811552 -2.978815 0
M  V30 15 C -0.278819 1.779459 -2.580955 0
M  V30 16 N -0.034025 0.667275 -3.473037 0
M  V30 17 C -1.052148 -0.266607 -3.160353 0
M  V30 18 O -2.025629 -0.294975 -2.333047 0
M  V30 19 C -1.345333 -1.618936 -3.732281 0
M  V30 20 C -2.536531 -2.213659 -3.067540 0
M  V30 21 N -2.406903 -2.980195 -1.962244 0
M  V30 22 C -3.519220 -3.503931 -1.381238 0
M  V30 23 N -3.334976 -4.296773 -0.231329 0
M  V30 24 C -1.996215 -4.538307 0.258527 0
M  V30 25 C -1.829140 -5.969361 0.750004 0
M  V30 26 O -2.942732 -6.446406 1.417477 0
M  V30 27 C -3.816939 -5.433017 1.791515 0
M  V30 28 C -4.435909 -4.892633 0.498472 0
M  V30 29 C -4.799119 -3.288667 -1.871894 0
M  V30 30 C -4.848002 -2.498099 -2.999808 0
M  V30 31 O -5.940952 -2.219107 -3.553713 0
M  V30 32 N -3.761541 -1.969278 -3.591694 0
M  V30 33 C 0.373378 1.695176 -1.370012 0
M  V30 34 H 5.584622 0.676216 2.768062 0
M  V30 35 H 6.035474 -0.479304 4.041708 0
M  V30 36 H 4.603429 -0.784876 2.964107 0
M  V30 37 H 4.617041 0.102863 6.567198 0
M  V30 38 H 4.509986 1.861182 6.343167 0
M  V30 39 H 5.977977 0.911419 5.760156 0
M  V30 40 H 2.804503 -0.748049 3.797755 0
M  V30 41 H 3.329196 -0.930378 5.482545 0
M  V30 42 H 2.174813 0.365328 5.152734 0
M  V30 43 H 3.223008 4.091128 2.613896 0
M  V30 44 H 2.847978 2.834835 0.022836 0
M  V30 45 H 2.071576 4.343117 0.543320 0
M  V30 46 H 0.206661 3.143285 1.570250 0
M  V30 47 H 0.870623 1.577255 1.138812 0
M  V30 48 H -0.767860 4.556972 -0.093372 0
M  V30 49 H -1.918172 4.663871 -2.280857 0
M  V30 50 H -1.590147 2.808453 -3.939850 0
M  V30 51 H 0.587045 0.309288 -4.230478 0
M  V30 52 H -1.593316 -1.469626 -4.796959 0
M  V30 53 H -0.481452 -2.307497 -3.664887 0
M  V30 54 H -1.238256 -4.430866 -0.572626 0
M  V30 55 H -1.706867 -3.797162 1.017640 0
M  V30 56 H -1.551432 -6.623650 -0.100737 0
M  V30 57 H -0.992892 -5.994709 1.485319 0
M  V30 58 H -4.626488 -5.886053 2.384040 0
M  V30 59 H -3.281161 -4.609189 2.298793 0
M  V30 60 H -4.882487 -5.702373 -0.078705 0
M  V30 61 H -5.198768 -4.115732 0.754149 0
M  V30 62 H -5.671627 -3.696682 -1.420772 0
M  V30 63 H -3.814446 -1.374655 -4.442233 0
M  V30 64 H 1.009080 0.872234 -1.115888 0
M  V30 END ATOM
M  V30 BEGIN BOND
M  V30 1 1 1 2
M  V30 2 1 2 3
M  V30 3 1 2 4
M  V30 4 1 2 5
M  V30 5 1 5 6
M  V30 6 2 6 7
M  V30 7 1 6 8
M  V30 8 1 8 9
M  V30 9 1 9 10
M  V30 10 1 10 11
M  V30 11 2 11 12
M  V30 12 1 12 13
M  V30 13 2 13 14
M  V30 14 1 14 15
M  V30 15 1 15 16
M  V30 16 1 16 17
M  V30 17 2 17 18
M  V30 18 1 17 19
M  V30 19 1 19 20
M  V30 20 2 20 21
M  V30 21 1 21 22
M  V30 22 1 22 23
M  V30 23 1 23 24
M  V30 24 1 24 25
M  V30 25 1 25 26
M  V30 26 1 26 27
M  V30 27 1 27 28
M  V30 28 2 22 29
M  V30 29 1 29 30
M  V30 30 2 30 31
M  V30 31 1 30 32
M  V30 32 2 15 33
M  V30 33 1 33 11
M  V30 34 1 32 20
M  V30 35 1 28 23
M  V30 36 1 1 34
M  V30 37 1 1 35
M  V30 38 1 1 36
M  V30 39 1 3 37
M  V30 40 1 3 38
M  V30 41 1 3 39
M  V30 42 1 4 40
M  V30 43 1 4 41
M  V30 44 1 4 42
M  V30 45 1 8 43
M  V30 46 1 9 44
M  V30 47 1 9 45
M  V30 48 1 10 46
M  V30 49 1 10 47
M  V30 50 1 12 48
M  V30 51 1 13 49
M  V30 52 1 14 50
M  V30 53 1 16 51
M  V30 54 1 19 52
M  V30 55 1 19 53
M  V30 56 1 24 54
M  V30 57 1 24 55
M  V30 58 1 25 56
M  V30 59 1 25 57
M  V30 60 1 27 58
M  V30 61 1 27 59
M  V30 62 1 28 60
M  V30 63 1 28 61
M  V30 64 1 29 62
M  V30 65 1 32 63
M  V30 66 1 33 64
M  V30 END BOND
M  V30 END CTAB
M  END
>  <Dataset>  (253) 
ChEMBL_Kinases

>  <Ligand_Instance>  (253) 
nan

>  <PDB_ID>  (253) 
nan

>  <Standardized_SMILES>  (253) 
CC(C)(C)OC(=O)NCCc1cccc(NC(=O)Cc2nc(N3CCOCC3)cc(=O)[nH]2)c1

>  <Name>  (253) 
nan

>  <Pocket>  (253) 
nan

>  <ATP_Site>  (253) 
nan

>  <Peripheral>  (253) 
nan

>  <Num_H_Atoms_ProtBoundConf>  (253) 
nan

>  <Num_Resolved_Atoms>  (253) 
nan

>  <Num_Not_Resolved_Atoms>  (253) 
nan

$$$$
CHEMBL3696264
     RDKit          3D

  0  0  0  0  0  0  0  0  0  0999 V3000
M  V30 BEGIN CTAB
M  V30 COUNTS 44 46 0 0 0
M  V30 BEGIN ATOM
M  V30 1 O 0.063172 -1.310869 3.974770 0
M  V30 2 C 0.845744 -1.490251 3.014675 0
M  V30 3 C 2.143133 -0.762620 2.860380 0
M  V30 4 C 1.915107 0.690492 2.642234 0
M  V30 5 N 1.726196 0.999514 1.349499 0
M  V30 6 C 1.509402 2.223385 0.861907 0
M  V30 7 N 1.319371 2.419221 -0.530896 0
M  V30 8 C 1.183292 3.671955 -1.205359 0
M  V30 9 C 1.003193 3.424930 -2.683604 0
M  V30 10 O 1.977046 2.626755 -3.234173 0
M  V30 11 C 2.277951 1.500416 -2.487453 0
M  V30 12 C 1.242111 1.251773 -1.411990 0
M  V30 13 C 1.476158 3.250978 1.756365 0
M  V30 14 C 1.666983 2.945697 3.079145 0
M  V30 15 O 1.650692 3.832983 3.975559 0
M  V30 16 N 1.884778 1.691696 3.535132 0
M  V30 17 N 0.452458 -2.437496 2.041433 0
M  V30 18 C -0.702237 -3.246468 1.965655 0
M  V30 19 C -1.700706 -3.394955 2.910194 0
M  V30 20 C -2.818447 -4.186527 2.773873 0
M  V30 21 C -2.984649 -4.899198 1.616995 0
M  V30 22 F -4.083189 -5.672161 1.495977 0
M  V30 23 C -2.025802 -4.796486 0.633894 0
M  V30 24 C -2.186209 -5.557406 -0.637651 0
M  V30 25 F -2.227470 -6.892691 -0.313508 0
M  V30 26 F -3.394975 -5.229356 -1.229091 0
M  V30 27 F -1.123828 -5.274004 -1.456819 0
M  V30 28 C -0.941176 -3.992382 0.836992 0
M  V30 29 H 2.636214 -0.842024 3.859464 0
M  V30 30 H 2.741481 -1.170358 2.050991 0
M  V30 31 H 1.990061 4.387291 -1.031257 0
M  V30 32 H 0.222999 4.139265 -0.867055 0
M  V30 33 H 1.089198 4.411405 -3.184372 0
M  V30 34 H -0.002047 3.032877 -2.914814 0
M  V30 35 H 3.230408 1.762593 -1.940884 0
M  V30 36 H 2.511174 0.600678 -3.061621 0
M  V30 37 H 1.464492 0.330786 -0.877377 0
M  V30 38 H 0.249320 1.248741 -1.908026 0
M  V30 39 H 1.308257 4.253730 1.440950 0
M  V30 40 H 2.036956 1.383937 4.513475 0
M  V30 41 H 1.149190 -2.541647 1.252528 0
M  V30 42 H -1.603762 -2.854884 3.827213 0
M  V30 43 H -3.546152 -4.240623 3.566498 0
M  V30 44 H -0.228002 -3.959512 0.017739 0
M  V30 END ATOM
M  V30 BEGIN BOND
M  V30 1 2 1 2
M  V30 2 1 2 3
M  V30 3 1 3 4
M  V30 4 2 4 5
M  V30 5 1 5 6
M  V30 6 1 6 7
M  V30 7 1 7 8
M  V30 8 1 8 9
M  V30 9 1 9 10
M  V30 10 1 10 11
M  V30 11 1 11 12
M  V30 12 2 6 13
M  V30 13 1 13 14
M  V30 14 2 14 15
M  V30 15 1 14 16
M  V30 16 1 2 17
M  V30 17 1 17 18
M  V30 18 2 18 19
M  V30 19 1 19 20
M  V30 20 2 20 21
M  V30 21 1 21 22
M  V30 22 1 21 23
M  V30 23 1 23 24
M  V30 24 1 24 25
M  V30 25 1 24 26
M  V30 26 1 24 27
M  V30 27 2 23 28
M  V30 28 1 16 4
M  V30 29 1 28 18
M  V30 30 1 12 7
M  V30 31 1 3 29
M  V30 32 1 3 30
M  V30 33 1 8 31
M  V30 34 1 8 32
M  V30 35 1 9 33
M  V30 36 1 9 34
M  V30 37 1 11 35
M  V30 38 1 11 36
M  V30 39 1 12 37
M  V30 40 1 12 38
M  V30 41 1 13 39
M  V30 42 1 16 40
M  V30 43 1 17 41
M  V30 44 1 19 42
M  V30 45 1 20 43
M  V30 46 1 28 44
M  V30 END BOND
M  V30 END CTAB
M  END
>  <Dataset>  (254) 
ChEMBL_Kinases

>  <Ligand_Instance>  (254) 
nan

>  <PDB_ID>  (254) 
nan

>  <Standardized_SMILES>  (254) 
O=C(Cc1nc(N2CCOCC2)cc(=O)[nH]1)Nc1ccc(F)c(C(F)(F)F)c1

>  <Name>  (254) 
nan

>  <Pocket>  (254) 
nan

>  <ATP_Site>  (254) 
nan

>  <Peripheral>  (254) 
nan

>  <Num_H_Atoms_ProtBoundConf>  (254) 
nan

>  <Num_Resolved_Atoms>  (254) 
nan

>  <Num_Not_Resolved_Atoms>  (254) 
nan

$$$$
CHEMBL3696265
     RDKit          3D

  0  0  0  0  0  0  0  0  0  0999 V3000
M  V30 BEGIN CTAB
M  V30 COUNTS 43 45 0 0 0
M  V30 BEGIN ATOM
M  V30 1 C -2.164082 -7.006150 1.531588 0
M  V30 2 C -1.278000 -6.161376 1.573305 0
M  V30 3 C -0.259431 -5.158735 1.632126 0
M  V30 4 C 0.638469 -5.140758 2.674939 0
M  V30 5 C 1.623142 -4.147884 2.742998 0
M  V30 6 C 1.619365 -3.212934 1.700125 0
M  V30 7 C 0.700970 -3.249471 0.650625 0
M  V30 8 N 1.004848 -2.132746 -0.154400 0
M  V30 9 C 2.276357 -1.661131 -0.630858 0
M  V30 10 O 3.195959 -2.423628 -0.250965 0
M  V30 11 C 2.143802 -0.390718 -1.434021 0
M  V30 12 C 2.353416 0.755095 -0.469894 0
M  V30 13 N 1.174448 1.245481 0.014420 0
M  V30 14 C 1.074630 2.234784 0.910306 0
M  V30 15 N -0.315463 2.526298 1.181156 0
M  V30 16 C -1.013534 3.170729 0.067924 0
M  V30 17 C -2.042627 2.164946 -0.435042 0
M  V30 18 O -2.885124 1.751088 0.585503 0
M  V30 19 C -2.259096 1.298931 1.722741 0
M  V30 20 C -1.266748 2.329872 2.291483 0
M  V30 21 C 2.216707 2.813627 1.390518 0
M  V30 22 C 3.392873 2.324858 0.905915 0
M  V30 23 O 4.447934 2.826147 1.320474 0
M  V30 24 N 3.458359 1.331074 0.007635 0
M  V30 25 C -0.247945 -4.228064 0.612701 0
M  V30 26 H -2.924591 -7.753357 1.491041 0
M  V30 27 H 0.563573 -5.910902 3.452752 0
M  V30 28 H 2.264789 -4.225636 3.598010 0
M  V30 29 H 2.439801 -2.527248 1.920180 0
M  V30 30 H 0.036125 -1.716018 -0.314930 0
M  V30 31 H 1.154545 -0.294577 -1.873715 0
M  V30 32 H 2.923193 -0.377826 -2.223501 0
M  V30 33 H -0.331651 3.386022 -0.749610 0
M  V30 34 H -1.567502 4.056270 0.443716 0
M  V30 35 H -2.673774 2.760443 -1.147615 0
M  V30 36 H -1.580787 1.342751 -1.013019 0
M  V30 37 H -3.023351 1.159959 2.492707 0
M  V30 38 H -1.723611 0.344764 1.584106 0
M  V30 39 H -0.810553 1.883865 3.172342 0
M  V30 40 H -1.833142 3.246081 2.447238 0
M  V30 41 H 2.042679 3.600383 2.109890 0
M  V30 42 H 4.319471 0.917856 -0.401796 0
M  V30 43 H -0.889476 -4.131546 -0.240312 0
M  V30 END ATOM
M  V30 BEGIN BOND
M  V30 1 3 1 2
M  V30 2 1 2 3
M  V30 3 2 3 4
M  V30 4 1 4 5
M  V30 5 2 5 6
M  V30 6 1 6 7
M  V30 7 1 7 8
M  V30 8 1 8 9
M  V30 9 2 9 10
M  V30 10 1 9 11
M  V30 11 1 11 12
M  V30 12 2 12 13
M  V30 13 1 13 14
M  V30 14 1 14 15
M  V30 15 1 15 16
M  V30 16 1 16 17
M  V30 17 1 17 18
M  V30 18 1 18 19
M  V30 19 1 19 20
M  V30 20 2 14 21
M  V30 21 1 21 22
M  V30 22 2 22 23
M  V30 23 1 22 24
M  V30 24 2 7 25
M  V30 25 1 25 3
M  V30 26 1 24 12
M  V30 27 1 20 15
M  V30 28 1 1 26
M  V30 29 1 4 27
M  V30 30 1 5 28
M  V30 31 1 6 29
M  V30 32 1 8 30
M  V30 33 1 11 31
M  V30 34 1 11 32
M  V30 35 1 16 33
M  V30 36 1 16 34
M  V30 37 1 17 35
M  V30 38 1 17 36
M  V30 39 1 19 37
M  V30 40 1 19 38
M  V30 41 1 20 39
M  V30 42 1 20 40
M  V30 43 1 21 41
M  V30 44 1 24 42
M  V30 45 1 25 43
M  V30 END BOND
M  V30 END CTAB
M  END
>  <Dataset>  (255) 
ChEMBL_Kinases

>  <Ligand_Instance>  (255) 
nan

>  <PDB_ID>  (255) 
nan

>  <Standardized_SMILES>  (255) 
C#Cc1cccc(NC(=O)Cc2nc(N3CCOCC3)cc(=O)[nH]2)c1

>  <Name>  (255) 
nan

>  <Pocket>  (255) 
nan

>  <ATP_Site>  (255) 
nan

>  <Peripheral>  (255) 
nan

>  <Num_H_Atoms_ProtBoundConf>  (255) 
nan

>  <Num_Resolved_Atoms>  (255) 
nan

>  <Num_Not_Resolved_Atoms>  (255) 
nan

$$$$
CHEMBL3696266
     RDKit          3D

  0  0  0  0  0  0  0  0  0  0999 V3000
M  V30 BEGIN CTAB
M  V30 COUNTS 55 58 0 0 0
M  V30 BEGIN ATOM
M  V30 1 O -0.066572 0.787417 1.784453 0
M  V30 2 C 0.266542 -0.405974 1.846770 0
M  V30 3 C 1.610903 -0.640804 2.436818 0
M  V30 4 C 2.209352 0.681702 2.781427 0
M  V30 5 N 2.919489 1.291431 1.784809 0
M  V30 6 C 3.505556 2.483987 1.968461 0
M  V30 7 N 4.227907 3.047597 0.879079 0
M  V30 8 C 4.855118 4.365073 1.029597 0
M  V30 9 C 5.407054 4.720763 -0.337070 0
M  V30 10 O 4.448280 4.559318 -1.327349 0
M  V30 11 C 4.164270 3.228914 -1.584631 0
M  V30 12 C 4.360345 2.342458 -0.381154 0
M  V30 13 C 3.428331 3.154132 3.152270 0
M  V30 14 C 2.701339 2.497756 4.125917 0
M  V30 15 O 2.549552 3.005519 5.269489 0
M  V30 16 N 2.102876 1.306739 3.977374 0
M  V30 17 N -0.599834 -1.400432 1.380895 0
M  V30 18 C -1.886922 -1.272204 0.809322 0
M  V30 19 C -2.591564 -0.107623 0.620552 0
M  V30 20 C -3.840460 -0.010683 0.049680 0
M  V30 21 C -4.450689 -1.169377 -0.374585 0
M  V30 22 C -3.764909 -2.378130 -0.200051 0
M  V30 23 O -4.481080 -3.461138 -0.666502 0
M  V30 24 C -4.079919 -4.790924 -0.626639 0
M  V30 25 C -5.128131 -5.685410 -0.056885 0
M  V30 26 C -5.246585 -6.904705 -0.958426 0
M  V30 27 C -3.949276 -6.852850 -1.736705 0
M  V30 28 C -3.848856 -5.368849 -2.014408 0
M  V30 29 C -2.519697 -2.408130 0.377643 0
M  V30 30 H 2.232650 -1.111565 1.648992 0
M  V30 31 H 1.557777 -1.300616 3.328633 0
M  V30 32 H 4.111855 5.109378 1.347365 0
M  V30 33 H 5.683421 4.321092 1.766681 0
M  V30 34 H 5.700549 5.789949 -0.306839 0
M  V30 35 H 6.298655 4.082414 -0.547242 0
M  V30 36 H 3.161526 3.137549 -2.033801 0
M  V30 37 H 4.896669 2.876797 -2.342872 0
M  V30 38 H 3.511374 1.605439 -0.412305 0
M  V30 39 H 5.283598 1.734925 -0.423213 0
M  V30 40 H 3.887540 4.109823 3.326269 0
M  V30 41 H 1.562878 0.817796 4.700809 0
M  V30 42 H -0.176623 -2.350967 1.501238 0
M  V30 43 H -2.158397 0.825406 0.935239 0
M  V30 44 H -4.333722 0.951709 -0.064316 0
M  V30 45 H -5.435107 -1.074925 -0.824961 0
M  V30 46 H -3.115852 -4.969416 -0.078750 0
M  V30 47 H -4.886306 -6.082786 0.960366 0
M  V30 48 H -6.108990 -5.171087 -0.006211 0
M  V30 49 H -6.072595 -6.795358 -1.692607 0
M  V30 50 H -5.366786 -7.847754 -0.383932 0
M  V30 51 H -3.145551 -7.166964 -1.024605 0
M  V30 52 H -3.960026 -7.457405 -2.658324 0
M  V30 53 H -2.823532 -5.155515 -2.377861 0
M  V30 54 H -4.621017 -5.080352 -2.728318 0
M  V30 55 H -2.041328 -3.354072 0.487662 0
M  V30 END ATOM
M  V30 BEGIN BOND
M  V30 1 2 1 2
M  V30 2 1 2 3
M  V30 3 1 3 4
M  V30 4 2 4 5
M  V30 5 1 5 6
M  V30 6 1 6 7
M  V30 7 1 7 8
M  V30 8 1 8 9
M  V30 9 1 9 10
M  V30 10 1 10 11
M  V30 11 1 11 12
M  V30 12 2 6 13
M  V30 13 1 13 14
M  V30 14 2 14 15
M  V30 15 1 14 16
M  V30 16 1 2 17
M  V30 17 1 17 18
M  V30 18 2 18 19
M  V30 19 1 19 20
M  V30 20 2 20 21
M  V30 21 1 21 22
M  V30 22 1 22 23
M  V30 23 1 23 24
M  V30 24 1 24 25
M  V30 25 1 25 26
M  V30 26 1 26 27
M  V30 27 1 27 28
M  V30 28 2 22 29
M  V30 29 1 16 4
M  V30 30 1 29 18
M  V30 31 1 12 7
M  V30 32 1 28 24
M  V30 33 1 3 30
M  V30 34 1 3 31
M  V30 35 1 8 32
M  V30 36 1 8 33
M  V30 37 1 9 34
M  V30 38 1 9 35
M  V30 39 1 11 36
M  V30 40 1 11 37
M  V30 41 1 12 38
M  V30 42 1 12 39
M  V30 43 1 13 40
M  V30 44 1 16 41
M  V30 45 1 17 42
M  V30 46 1 19 43
M  V30 47 1 20 44
M  V30 48 1 21 45
M  V30 49 1 24 46
M  V30 50 1 25 47
M  V30 51 1 25 48
M  V30 52 1 26 49
M  V30 53 1 26 50
M  V30 54 1 27 51
M  V30 55 1 27 52
M  V30 56 1 28 53
M  V30 57 1 28 54
M  V30 58 1 29 55
M  V30 END BOND
M  V30 END CTAB
M  END
>  <Dataset>  (256) 
ChEMBL_Kinases

>  <Ligand_Instance>  (256) 
nan

>  <PDB_ID>  (256) 
nan

>  <Standardized_SMILES>  (256) 
O=C(Cc1nc(N2CCOCC2)cc(=O)[nH]1)Nc1cccc(OC2CCCC2)c1

>  <Name>  (256) 
nan

>  <Pocket>  (256) 
nan

>  <ATP_Site>  (256) 
nan

>  <Peripheral>  (256) 
nan

>  <Num_H_Atoms_ProtBoundConf>  (256) 
nan

>  <Num_Resolved_Atoms>  (256) 
nan

>  <Num_Not_Resolved_Atoms>  (256) 
nan

$$$$
CHEMBL3696267
     RDKit          3D

  0  0  0  0  0  0  0  0  0  0999 V3000
M  V30 BEGIN CTAB
M  V30 COUNTS 42 44 0 0 0
M  V30 BEGIN ATOM
M  V30 1 O 0.541993 -3.142036 3.533946 0
M  V30 2 C 0.968083 -2.938242 2.373593 0
M  V30 3 C 2.296138 -2.873978 1.695208 0
M  V30 4 C 2.860160 -1.500999 1.898188 0
M  V30 5 N 2.201340 -0.695189 1.022200 0
M  V30 6 C 2.375008 0.620756 0.877728 0
M  V30 7 N 1.604232 1.338901 -0.098686 0
M  V30 8 C 0.187470 1.605346 0.066615 0
M  V30 9 C -0.293022 2.448031 -1.111125 0
M  V30 10 O 0.156408 1.804162 -2.254554 0
M  V30 11 C 1.492185 2.052700 -2.454696 0
M  V30 12 C 2.363827 1.733275 -1.259088 0
M  V30 13 C 3.300919 1.217490 1.686190 0
M  V30 14 C 3.960247 0.399875 2.561876 0
M  V30 15 O 4.855560 0.793422 3.384860 0
M  V30 16 N 3.798552 -0.948374 2.723348 0
M  V30 17 N -0.142591 -2.708163 1.538225 0
M  V30 18 C -1.566854 -2.609033 1.474333 0
M  V30 19 C -2.220144 -1.931119 2.518260 0
M  V30 20 C -3.625765 -1.774108 2.570340 0
M  V30 21 C -4.190922 -2.365479 1.486663 0
M  V30 22 F -5.563456 -2.253641 1.463979 0
M  V30 23 C -3.702743 -3.043583 0.420160 0
M  V30 24 C -2.313794 -3.156513 0.439721 0
M  V30 25 O -1.668283 -3.823740 -0.586118 0
M  V30 26 H 2.187711 -3.065496 0.639369 0
M  V30 27 H 2.960288 -3.650385 2.089394 0
M  V30 28 H -0.042874 2.064265 1.030373 0
M  V30 29 H -0.319713 0.605675 -0.063207 0
M  V30 30 H 0.159531 3.453147 -0.999115 0
M  V30 31 H -1.400139 2.458995 -1.064675 0
M  V30 32 H 1.594316 3.122765 -2.780057 0
M  V30 33 H 1.849053 1.475106 -3.341946 0
M  V30 34 H 2.944329 2.654011 -1.031411 0
M  V30 35 H 3.100417 0.953370 -1.546612 0
M  V30 36 H 3.510801 2.257488 1.650870 0
M  V30 37 H 4.193434 -1.688494 3.302436 0
M  V30 38 H 0.111411 -2.496376 0.505963 0
M  V30 39 H -1.611924 -1.505214 3.320710 0
M  V30 40 H -4.132816 -1.253951 3.354072 0
M  V30 41 H -4.243806 -3.474833 -0.395339 0
M  V30 42 H -0.669675 -3.952382 -0.610277 0
M  V30 END ATOM
M  V30 BEGIN BOND
M  V30 1 2 1 2
M  V30 2 1 2 3
M  V30 3 1 3 4
M  V30 4 2 4 5
M  V30 5 1 5 6
M  V30 6 1 6 7
M  V30 7 1 7 8
M  V30 8 1 8 9
M  V30 9 1 9 10
M  V30 10 1 10 11
M  V30 11 1 11 12
M  V30 12 2 6 13
M  V30 13 1 13 14
M  V30 14 2 14 15
M  V30 15 1 14 16
M  V30 16 1 2 17
M  V30 17 1 17 18
M  V30 18 2 18 19
M  V30 19 1 19 20
M  V30 20 2 20 21
M  V30 21 1 21 22
M  V30 22 1 21 23
M  V30 23 2 23 24
M  V30 24 1 24 25
M  V30 25 1 16 4
M  V30 26 1 24 18
M  V30 27 1 12 7
M  V30 28 1 3 26
M  V30 29 1 3 27
M  V30 30 1 8 28
M  V30 31 1 8 29
M  V30 32 1 9 30
M  V30 33 1 9 31
M  V30 34 1 11 32
M  V30 35 1 11 33
M  V30 36 1 12 34
M  V30 37 1 12 35
M  V30 38 1 13 36
M  V30 39 1 16 37
M  V30 40 1 17 38
M  V30 41 1 19 39
M  V30 42 1 20 40
M  V30 43 1 23 41
M  V30 44 1 25 42
M  V30 END BOND
M  V30 END CTAB
M  END
>  <Dataset>  (257) 
ChEMBL_Kinases

>  <Ligand_Instance>  (257) 
nan

>  <PDB_ID>  (257) 
nan

>  <Standardized_SMILES>  (257) 
O=C(Cc1nc(N2CCOCC2)cc(=O)[nH]1)Nc1ccc(F)cc1O

>  <Name>  (257) 
nan

>  <Pocket>  (257) 
nan

>  <ATP_Site>  (257) 
nan

>  <Peripheral>  (257) 
nan

>  <Num_H_Atoms_ProtBoundConf>  (257) 
nan

>  <Num_Resolved_Atoms>  (257) 
nan

>  <Num_Not_Resolved_Atoms>  (257) 
nan

$$$$
CHEMBL3696259
     RDKit          3D

  0  0  0  0  0  0  0  0  0  0999 V3000
M  V30 BEGIN CTAB
M  V30 COUNTS 43 46 0 0 0
M  V30 BEGIN ATOM
M  V30 1 O 2.390788 -3.519787 2.927096 0
M  V30 2 C 1.843147 -2.423268 2.645089 0
M  V30 3 C 2.567188 -1.179882 2.951656 0
M  V30 4 C 1.782668 0.047839 2.594145 0
M  V30 5 N 1.956158 0.522300 1.356167 0
M  V30 6 C 1.334575 1.604825 0.878550 0
M  V30 7 N 1.558218 2.063500 -0.446682 0
M  V30 8 C 0.940427 3.214791 -1.071591 0
M  V30 9 C 0.092239 2.717577 -2.248400 0
M  V30 10 O 0.635076 1.577317 -2.805186 0
M  V30 11 C 2.005251 1.510596 -2.725596 0
M  V30 12 C 2.484840 1.341026 -1.288472 0
M  V30 13 C 0.477416 2.223984 1.762686 0
M  V30 14 C 0.307073 1.724654 3.037433 0
M  V30 15 O -0.486454 2.322704 3.812199 0
M  V30 16 N 0.948849 0.633050 3.484422 0
M  V30 17 N 0.562472 -2.300665 2.045696 0
M  V30 18 C -0.493649 -3.130630 1.574368 0
M  V30 19 C -0.392954 -3.501075 0.231962 0
M  V30 20 C -1.359010 -4.307193 -0.344518 0
M  V30 21 C -2.410513 -4.723120 0.452102 0
M  V30 22 C -2.548414 -4.379170 1.786295 0
M  V30 23 O -3.402896 -4.615598 2.746980 0
M  V30 24 C -3.018266 -4.006266 3.866363 0
M  V30 25 N -1.854401 -3.345135 3.604164 0
M  V30 26 C -1.563009 -3.574591 2.319774 0
M  V30 27 H 3.520989 -1.199202 2.364076 0
M  V30 28 H 2.843046 -1.125947 4.023331 0
M  V30 29 H 1.738498 3.899666 -1.441066 0
M  V30 30 H 0.274343 3.786841 -0.420368 0
M  V30 31 H -0.905950 2.452107 -1.801600 0
M  V30 32 H -0.004103 3.557885 -2.958047 0
M  V30 33 H 2.327705 0.615684 -3.301380 0
M  V30 34 H 2.487064 2.379995 -3.206593 0
M  V30 35 H 3.517646 1.710514 -1.223347 0
M  V30 36 H 2.492725 0.250286 -1.082491 0
M  V30 37 H -0.063518 3.099280 1.465054 0
M  V30 38 H 0.842282 0.229716 4.442666 0
M  V30 39 H 0.161355 -1.342951 1.835058 0
M  V30 40 H 0.417260 -3.189074 -0.408021 0
M  V30 41 H -1.273518 -4.591288 -1.390139 0
M  V30 42 H -3.192345 -5.356031 0.045667 0
M  V30 43 H -3.565332 -4.054647 4.799289 0
M  V30 END ATOM
M  V30 BEGIN BOND
M  V30 1 2 1 2
M  V30 2 1 2 3
M  V30 3 1 3 4
M  V30 4 2 4 5
M  V30 5 1 5 6
M  V30 6 1 6 7
M  V30 7 1 7 8
M  V30 8 1 8 9
M  V30 9 1 9 10
M  V30 10 1 10 11
M  V30 11 1 11 12
M  V30 12 2 6 13
M  V30 13 1 13 14
M  V30 14 2 14 15
M  V30 15 1 14 16
M  V30 16 1 2 17
M  V30 17 1 17 18
M  V30 18 2 18 19
M  V30 19 1 19 20
M  V30 20 2 20 21
M  V30 21 1 21 22
M  V30 22 1 22 23
M  V30 23 1 23 24
M  V30 24 2 24 25
M  V30 25 1 25 26
M  V30 26 1 16 4
M  V30 27 1 26 18
M  V30 28 1 12 7
M  V30 29 2 26 22
M  V30 30 1 3 27
M  V30 31 1 3 28
M  V30 32 1 8 29
M  V30 33 1 8 30
M  V30 34 1 9 31
M  V30 35 1 9 32
M  V30 36 1 11 33
M  V30 37 1 11 34
M  V30 38 1 12 35
M  V30 39 1 12 36
M  V30 40 1 13 37
M  V30 41 1 16 38
M  V30 42 1 17 39
M  V30 43 1 19 40
M  V30 44 1 20 41
M  V30 45 1 21 42
M  V30 46 1 24 43
M  V30 END BOND
M  V30 END CTAB
M  END
>  <Dataset>  (258) 
ChEMBL_Kinases

>  <Ligand_Instance>  (258) 
nan

>  <PDB_ID>  (258) 
nan

>  <Standardized_SMILES>  (258) 
O=C(Cc1nc(N2CCOCC2)cc(=O)[nH]1)Nc1cccc2ocnc12

>  <Name>  (258) 
nan

>  <Pocket>  (258) 
nan

>  <ATP_Site>  (258) 
nan

>  <Peripheral>  (258) 
nan

>  <Num_H_Atoms_ProtBoundConf>  (258) 
nan

>  <Num_Resolved_Atoms>  (258) 
nan

>  <Num_Not_Resolved_Atoms>  (258) 
nan

$$$$
CHEMBL3696549
     RDKit          3D

  0  0  0  0  0  0  0  0  0  0999 V3000
M  V30 BEGIN CTAB
M  V30 COUNTS 43 45 0 0 0
M  V30 BEGIN ATOM
M  V30 1 C 4.111600 -4.554183 2.010701 0
M  V30 2 C 3.548212 -3.276851 1.376889 0 CFG=1
M  V30 3 C 2.782886 -3.748258 0.160086 0
M  V30 4 N 2.353658 -2.645445 -0.686810 0
M  V30 5 C 2.573249 -2.581991 -2.006801 0
M  V30 6 C 2.040555 -1.411308 -2.504897 0
M  V30 7 C 2.066123 -0.960942 -3.896090 0
M  V30 8 N 1.459113 0.285640 -4.219232 0
M  V30 9 O 2.622953 -1.690589 -4.755878 0
M  V30 10 N 1.496446 -0.774454 -1.452372 0
M  V30 11 C 1.687578 -1.524728 -0.351210 0
M  V30 12 C 1.241744 -1.182059 1.011540 0
M  V30 13 C 0.236365 -0.228587 0.945596 0
M  V30 14 C -0.274731 0.184089 2.162738 0
M  V30 15 C -1.325602 1.175757 2.178961 0
M  V30 16 C -2.223877 2.004648 2.208436 0
M  V30 17 C -3.311153 2.977685 2.251416 0
M  V30 18 C -4.610527 2.416427 1.746570 0
M  V30 19 C -3.493262 3.407176 3.679205 0
M  V30 20 O -2.979478 4.065383 1.415639 0
M  V30 21 C 0.166992 -0.303089 3.376931 0
M  V30 22 C 1.169778 -1.250797 3.385379 0
M  V30 23 C 1.731299 -1.713391 2.207929 0
M  V30 24 O 2.732117 -2.666989 2.350962 0
M  V30 25 H 4.849096 -4.351585 2.790389 0
M  V30 26 H 3.230502 -5.115955 2.389780 0
M  V30 27 H 4.532598 -5.183454 1.184029 0
M  V30 28 H 4.386069 -2.612607 1.080536 0
M  V30 29 H 1.893140 -4.316807 0.550435 0
M  V30 30 H 3.415781 -4.436711 -0.409737 0
M  V30 31 H 3.071198 -3.285813 -2.631977 0
M  V30 32 H 1.576909 1.318382 -4.332299 0
M  V30 33 H 0.464211 -0.005405 -4.426970 0
M  V30 34 H -0.104084 0.147930 -0.008358 0
M  V30 35 H -4.463807 1.476272 1.172962 0
M  V30 36 H -5.138397 3.129941 1.102160 0
M  V30 37 H -5.317370 2.193828 2.587540 0
M  V30 38 H -3.399298 4.517678 3.706993 0
M  V30 39 H -2.680539 3.021317 4.352588 0
M  V30 40 H -4.489539 3.071428 4.086934 0
M  V30 41 H -2.927533 3.649182 0.503393 0
M  V30 42 H -0.277139 0.063861 4.289598 0
M  V30 43 H 1.551129 -1.664005 4.305107 0
M  V30 END ATOM
M  V30 BEGIN BOND
M  V30 1 1 1 2
M  V30 2 1 2 3
M  V30 3 1 3 4
M  V30 4 1 4 5
M  V30 5 2 5 6
M  V30 6 1 6 7
M  V30 7 1 7 8
M  V30 8 2 7 9
M  V30 9 1 6 10
M  V30 10 2 10 11
M  V30 11 1 11 12
M  V30 12 2 12 13
M  V30 13 1 13 14
M  V30 14 1 14 15
M  V30 15 3 15 16
M  V30 16 1 16 17
M  V30 17 1 17 18
M  V30 18 1 17 19
M  V30 19 1 17 20
M  V30 20 2 14 21
M  V30 21 1 21 22
M  V30 22 2 22 23
M  V30 23 1 23 24
M  V30 24 1 24 2
M  V30 25 1 11 4
M  V30 26 1 23 12
M  V30 27 1 1 25
M  V30 28 1 1 26
M  V30 29 1 1 27
M  V30 30 1 2 28 CFG=3
M  V30 31 1 3 29
M  V30 32 1 3 30
M  V30 33 1 5 31
M  V30 34 1 8 32
M  V30 35 1 8 33
M  V30 36 1 13 34
M  V30 37 1 18 35
M  V30 38 1 18 36
M  V30 39 1 18 37
M  V30 40 1 19 38
M  V30 41 1 19 39
M  V30 42 1 19 40
M  V30 43 1 20 41
M  V30 44 1 21 42
M  V30 45 1 22 43
M  V30 END BOND
M  V30 END CTAB
M  END
>  <Dataset>  (259) 
ChEMBL_Kinases

>  <Ligand_Instance>  (259) 
nan

>  <PDB_ID>  (259) 
nan

>  <Standardized_SMILES>  (259) 
C[C@H]1Cn2cc(C(N)=O)nc2-c2cc(C#CC(C)(C)O)ccc2O1

>  <Name>  (259) 
nan

>  <Pocket>  (259) 
nan

>  <ATP_Site>  (259) 
nan

>  <Peripheral>  (259) 
nan

>  <Num_H_Atoms_ProtBoundConf>  (259) 
nan

>  <Num_Resolved_Atoms>  (259) 
nan

>  <Num_Not_Resolved_Atoms>  (259) 
nan

$$$$
CHEMBL3696315
     RDKit          3D

  0  0  0  0  0  0  0  0  0  0999 V3000
M  V30 BEGIN CTAB
M  V30 COUNTS 54 57 0 0 0
M  V30 BEGIN ATOM
M  V30 1 O -1.709203 -0.092778 1.475561 0
M  V30 2 C -1.650891 0.677643 0.466827 0
M  V30 3 C -0.875218 1.731817 -0.230969 0
M  V30 4 C 0.363957 2.086269 0.493760 0
M  V30 5 N 1.544671 1.480092 0.290929 0
M  V30 6 C 2.662542 1.791309 0.936642 0
M  V30 7 N 3.900463 1.131549 0.700937 0
M  V30 8 C 5.107592 1.496215 1.418620 0
M  V30 9 C 6.302605 0.841576 0.798178 0
M  V30 10 O 6.328741 0.804324 -0.567145 0
M  V30 11 C 5.159068 0.491548 -1.203796 0
M  V30 12 C 4.049788 0.056267 -0.263624 0
M  V30 13 C 2.622865 2.790062 1.869482 0
M  V30 14 C 1.445076 3.445426 2.119794 0
M  V30 15 O 1.381316 4.368278 2.973196 0
M  V30 16 N 0.357539 3.077564 1.429986 0
M  V30 17 N -2.838656 0.382128 -0.289103 0
M  V30 18 C -3.793405 -0.611747 0.149941 0
M  V30 19 C -4.729205 0.054501 0.955313 0
M  V30 20 C -5.773479 -0.692693 1.513228 0
M  V30 21 C -5.875533 -2.033354 1.277701 0
M  V30 22 C -4.930217 -2.627508 0.481905 0
M  V30 23 C -3.867330 -1.994681 -0.114656 0
M  V30 24 O -2.807206 -2.244039 -0.912187 0
M  V30 25 C -2.421887 -3.457099 -1.448420 0
M  V30 26 C -2.082861 -4.462118 -0.426859 0
M  V30 27 C -2.697954 -5.500082 0.196724 0
M  V30 28 C -2.062616 -6.244502 1.159094 0
M  V30 29 C -0.773449 -5.996375 1.555724 0
M  V30 30 N -0.131496 -4.971839 0.955977 0
M  V30 31 C -0.767619 -4.238446 0.003387 0
M  V30 32 H -1.543988 2.603544 -0.379410 0
M  V30 33 H -0.637524 1.356274 -1.241008 0
M  V30 34 H 5.006791 1.131095 2.447740 0
M  V30 35 H 5.267383 2.591709 1.437136 0
M  V30 36 H 7.192547 1.463773 1.110948 0
M  V30 37 H 6.497487 -0.143078 1.290901 0
M  V30 38 H 4.790138 1.428488 -1.693895 0
M  V30 39 H 5.266570 -0.309563 -1.966127 0
M  V30 40 H 4.349668 -0.860796 0.310923 0
M  V30 41 H 3.135717 -0.109264 -0.851452 0
M  V30 42 H 3.487420 3.108145 2.442107 0
M  V30 43 H -0.556088 3.554395 1.594188 0
M  V30 44 H -3.220485 0.771414 -1.202264 0
M  V30 45 H -4.794342 1.076917 1.234541 0
M  V30 46 H -6.547212 -0.280309 2.147603 0
M  V30 47 H -6.619492 -2.728772 1.637871 0
M  V30 48 H -4.898855 -3.664441 0.211684 0
M  V30 49 H -3.282930 -3.923389 -2.034901 0
M  V30 50 H -1.608026 -3.343774 -2.210883 0
M  V30 51 H -3.705210 -5.620211 -0.195772 0
M  V30 52 H -2.688475 -7.037655 1.561693 0
M  V30 53 H -0.375463 -6.646439 2.321269 0
M  V30 54 H -0.062668 -3.480821 -0.330340 0
M  V30 END ATOM
M  V30 BEGIN BOND
M  V30 1 2 1 2
M  V30 2 1 2 3
M  V30 3 1 3 4
M  V30 4 2 4 5
M  V30 5 1 5 6
M  V30 6 1 6 7
M  V30 7 1 7 8
M  V30 8 1 8 9
M  V30 9 1 9 10
M  V30 10 1 10 11
M  V30 11 1 11 12
M  V30 12 2 6 13
M  V30 13 1 13 14
M  V30 14 2 14 15
M  V30 15 1 14 16
M  V30 16 1 2 17
M  V30 17 1 17 18
M  V30 18 2 18 19
M  V30 19 1 19 20
M  V30 20 2 20 21
M  V30 21 1 21 22
M  V30 22 2 22 23
M  V30 23 1 23 24
M  V30 24 1 24 25
M  V30 25 1 25 26
M  V30 26 2 26 27
M  V30 27 1 27 28
M  V30 28 2 28 29
M  V30 29 1 29 30
M  V30 30 2 30 31
M  V30 31 1 16 4
M  V30 32 1 23 18
M  V30 33 1 31 26
M  V30 34 1 12 7
M  V30 35 1 3 32
M  V30 36 1 3 33
M  V30 37 1 8 34
M  V30 38 1 8 35
M  V30 39 1 9 36
M  V30 40 1 9 37
M  V30 41 1 11 38
M  V30 42 1 11 39
M  V30 43 1 12 40
M  V30 44 1 12 41
M  V30 45 1 13 42
M  V30 46 1 16 43
M  V30 47 1 17 44
M  V30 48 1 19 45
M  V30 49 1 20 46
M  V30 50 1 21 47
M  V30 51 1 22 48
M  V30 52 1 25 49
M  V30 53 1 25 50
M  V30 54 1 27 51
M  V30 55 1 28 52
M  V30 56 1 29 53
M  V30 57 1 31 54
M  V30 END BOND
M  V30 END CTAB
M  END
>  <Dataset>  (260) 
ChEMBL_Kinases

>  <Ligand_Instance>  (260) 
nan

>  <PDB_ID>  (260) 
nan

>  <Standardized_SMILES>  (260) 
O=C(Cc1nc(N2CCOCC2)cc(=O)[nH]1)Nc1ccccc1OCc1cccnc1

>  <Name>  (260) 
nan

>  <Pocket>  (260) 
nan

>  <ATP_Site>  (260) 
nan

>  <Peripheral>  (260) 
nan

>  <Num_H_Atoms_ProtBoundConf>  (260) 
nan

>  <Num_Resolved_Atoms>  (260) 
nan

>  <Num_Not_Resolved_Atoms>  (260) 
nan

$$$$
CHEMBL3696314
     RDKit          3D

  0  0  0  0  0  0  0  0  0  0999 V3000
M  V30 BEGIN CTAB
M  V30 COUNTS 60 63 0 0 0
M  V30 BEGIN ATOM
M  V30 1 O 0.090755 0.908064 1.500450 0
M  V30 2 C -0.010150 -0.027569 0.670890 0
M  V30 3 C 1.237557 -0.774085 0.481860 0
M  V30 4 C 2.345734 -0.254622 1.318455 0
M  V30 5 N 2.560544 -0.741158 2.563373 0
M  V30 6 C 3.586211 -0.253412 3.321509 0
M  V30 7 N 3.760607 -0.806994 4.615527 0
M  V30 8 C 4.770147 -0.472064 5.596461 0
M  V30 9 C 5.483888 -1.752000 5.975502 0
M  V30 10 O 5.135295 -2.745264 5.085932 0
M  V30 11 C 3.781921 -3.091586 5.235684 0
M  V30 12 C 2.897292 -1.843034 5.146744 0
M  V30 13 C 4.426976 0.733786 2.859788 0
M  V30 14 C 4.209441 1.232764 1.587697 0
M  V30 15 O 4.907731 2.145499 1.032576 0
M  V30 16 N 3.181586 0.713411 0.883950 0
M  V30 17 N -1.229637 -0.278886 0.023322 0
M  V30 18 C -2.467433 0.397127 0.153863 0
M  V30 19 C -2.731956 1.471265 0.962310 0
M  V30 20 C -3.950003 2.108401 1.067410 0
M  V30 21 C -5.004667 1.646118 0.307299 0
M  V30 22 C -4.760030 0.565615 -0.513442 0
M  V30 23 C -3.525380 -0.058305 -0.601593 0
M  V30 24 O -3.342886 -1.146560 -1.450941 0
M  V30 25 C -4.416439 -1.602928 -2.210194 0
M  V30 26 C -4.107361 -2.783364 -3.096292 0
M  V30 27 N -3.102071 -2.584693 -4.067305 0
M  V30 28 C -3.377525 -1.692306 -5.133791 0
M  V30 29 C -2.170834 -0.834353 -5.370544 0
M  V30 30 C -1.173645 -1.232851 -4.317191 0
M  V30 31 C -1.764867 -2.441991 -3.630621 0
M  V30 32 H 1.177813 -1.859534 0.617989 0
M  V30 33 H 1.508160 -0.639264 -0.608180 0
M  V30 34 H 4.264770 -0.106325 6.539580 0
M  V30 35 H 5.504047 0.285487 5.237076 0
M  V30 36 H 6.590657 -1.622641 5.951760 0
M  V30 37 H 5.199642 -2.098811 6.997708 0
M  V30 38 H 3.509138 -3.814332 4.428071 0
M  V30 39 H 3.662583 -3.612878 6.187603 0
M  V30 40 H 2.011399 -2.010828 4.499401 0
M  V30 41 H 2.585788 -1.633481 6.203757 0
M  V30 42 H 5.236863 1.140401 3.419589 0
M  V30 43 H 3.006114 1.082993 -0.082675 0
M  V30 44 H -1.133293 -1.084041 -0.623461 0
M  V30 45 H -1.950786 1.878297 1.579749 0
M  V30 46 H -4.089698 2.953581 1.727167 0
M  V30 47 H -5.956933 2.150204 0.394153 0
M  V30 48 H -5.557141 0.173832 -1.124758 0
M  V30 49 H -5.288785 -1.791289 -1.570988 0
M  V30 50 H -4.716309 -0.776547 -2.906434 0
M  V30 51 H -3.772162 -3.603129 -2.421730 0
M  V30 52 H -5.027621 -3.131990 -3.576731 0
M  V30 53 H -4.289974 -1.071357 -5.010552 0
M  V30 54 H -3.509825 -2.326046 -6.060663 0
M  V30 55 H -1.713952 -1.008453 -6.388938 0
M  V30 56 H -2.424955 0.231669 -5.325755 0
M  V30 57 H -1.121416 -0.416755 -3.589273 0
M  V30 58 H -0.181095 -1.424642 -4.765864 0
M  V30 59 H -1.700912 -2.400187 -2.538603 0
M  V30 60 H -1.106241 -3.312920 -3.922818 0
M  V30 END ATOM
M  V30 BEGIN BOND
M  V30 1 2 1 2
M  V30 2 1 2 3
M  V30 3 1 3 4
M  V30 4 2 4 5
M  V30 5 1 5 6
M  V30 6 1 6 7
M  V30 7 1 7 8
M  V30 8 1 8 9
M  V30 9 1 9 10
M  V30 10 1 10 11
M  V30 11 1 11 12
M  V30 12 2 6 13
M  V30 13 1 13 14
M  V30 14 2 14 15
M  V30 15 1 14 16
M  V30 16 1 2 17
M  V30 17 1 17 18
M  V30 18 2 18 19
M  V30 19 1 19 20
M  V30 20 2 20 21
M  V30 21 1 21 22
M  V30 22 2 22 23
M  V30 23 1 23 24
M  V30 24 1 24 25
M  V30 25 1 25 26
M  V30 26 1 26 27
M  V30 27 1 27 28
M  V30 28 1 28 29
M  V30 29 1 29 30
M  V30 30 1 30 31
M  V30 31 1 16 4
M  V30 32 1 23 18
M  V30 33 1 31 27
M  V30 34 1 12 7
M  V30 35 1 3 32
M  V30 36 1 3 33
M  V30 37 1 8 34
M  V30 38 1 8 35
M  V30 39 1 9 36
M  V30 40 1 9 37
M  V30 41 1 11 38
M  V30 42 1 11 39
M  V30 43 1 12 40
M  V30 44 1 12 41
M  V30 45 1 13 42
M  V30 46 1 16 43
M  V30 47 1 17 44
M  V30 48 1 19 45
M  V30 49 1 20 46
M  V30 50 1 21 47
M  V30 51 1 22 48
M  V30 52 1 25 49
M  V30 53 1 25 50
M  V30 54 1 26 51
M  V30 55 1 26 52
M  V30 56 1 28 53
M  V30 57 1 28 54
M  V30 58 1 29 55
M  V30 59 1 29 56
M  V30 60 1 30 57
M  V30 61 1 30 58
M  V30 62 1 31 59
M  V30 63 1 31 60
M  V30 END BOND
M  V30 END CTAB
M  END
>  <Dataset>  (261) 
ChEMBL_Kinases

>  <Ligand_Instance>  (261) 
nan

>  <PDB_ID>  (261) 
nan

>  <Standardized_SMILES>  (261) 
O=C(Cc1nc(N2CCOCC2)cc(=O)[nH]1)Nc1ccccc1OCCN1CCCC1

>  <Name>  (261) 
nan

>  <Pocket>  (261) 
nan

>  <ATP_Site>  (261) 
nan

>  <Peripheral>  (261) 
nan

>  <Num_H_Atoms_ProtBoundConf>  (261) 
nan

>  <Num_Resolved_Atoms>  (261) 
nan

>  <Num_Not_Resolved_Atoms>  (261) 
nan

$$$$
CHEMBL3696313
     RDKit          3D

  0  0  0  0  0  0  0  0  0  0999 V3000
M  V30 BEGIN CTAB
M  V30 COUNTS 48 51 0 0 0
M  V30 BEGIN ATOM
M  V30 1 O -0.572268 -2.333176 4.165221 0
M  V30 2 C -0.102521 -2.573297 3.026405 0
M  V30 3 C 1.366664 -2.244679 2.883982 0
M  V30 4 C 1.535858 -0.762081 2.858503 0
M  V30 5 N 1.609927 -0.293255 1.574013 0
M  V30 6 C 1.735442 1.009298 1.276868 0
M  V30 7 N 1.816127 1.303263 -0.128021 0
M  V30 8 C 1.250960 2.366932 -0.932498 0
M  V30 9 C 0.800614 1.774836 -2.249864 0
M  V30 10 O 1.888636 1.315479 -2.989464 0
M  V30 11 C 2.995487 1.080386 -2.196088 0
M  V30 12 C 2.640783 0.364640 -0.912319 0
M  V30 13 C 1.791162 1.901385 2.315485 0
M  V30 14 C 1.715111 1.392978 3.592459 0
M  V30 15 O 1.762204 2.174548 4.587186 0
M  V30 16 N 1.589772 0.087791 3.910612 0
M  V30 17 N -0.748092 -3.101439 1.846196 0
M  V30 18 C -0.255098 -3.396239 0.509019 0
M  V30 19 C -0.830506 -2.284529 -0.379557 0
M  V30 20 C -2.088622 -1.739239 0.180649 0
M  V30 21 C -2.574140 -0.628739 -0.505454 0
M  V30 22 C -3.764313 -0.080523 -0.032885 0
M  V30 23 C -4.470349 -0.561684 1.043858 0
M  V30 24 C -3.981984 -1.675527 1.731760 0
M  V30 25 C -2.806373 -2.211450 1.261102 0
M  V30 26 C -2.186150 -3.399533 1.953829 0
M  V30 27 H 1.845494 -2.724115 2.043606 0
M  V30 28 H 1.862956 -2.598550 3.824662 0
M  V30 29 H 0.368304 2.839752 -0.441811 0
M  V30 30 H 1.970068 3.170326 -1.151456 0
M  V30 31 H 0.302951 2.561406 -2.826524 0
M  V30 32 H 0.088233 0.939302 -2.121139 0
M  V30 33 H 3.713541 0.457925 -2.748707 0
M  V30 34 H 3.498474 2.068244 -1.995268 0
M  V30 35 H 3.623276 0.182346 -0.399832 0
M  V30 36 H 2.127416 -0.566265 -1.148750 0
M  V30 37 H 1.891466 2.933596 2.077117 0
M  V30 38 H 1.529758 -0.357530 4.832833 0
M  V30 39 H 0.834861 -3.466878 0.463157 0
M  V30 40 H -0.662765 -4.387216 0.171830 0
M  V30 41 H -0.105440 -1.536682 -0.664460 0
M  V30 42 H -1.144385 -2.779084 -1.350761 0
M  V30 43 H -2.149644 -0.119119 -1.366489 0
M  V30 44 H -4.201839 0.795094 -0.524550 0
M  V30 45 H -5.396593 -0.159707 1.428422 0
M  V30 46 H -4.449236 -2.147104 2.583292 0
M  V30 47 H -2.483876 -3.447410 3.021927 0
M  V30 48 H -2.437330 -4.311689 1.396630 0
M  V30 END ATOM
M  V30 BEGIN BOND
M  V30 1 2 1 2
M  V30 2 1 2 3
M  V30 3 1 3 4
M  V30 4 2 4 5
M  V30 5 1 5 6
M  V30 6 1 6 7
M  V30 7 1 7 8
M  V30 8 1 8 9
M  V30 9 1 9 10
M  V30 10 1 10 11
M  V30 11 1 11 12
M  V30 12 2 6 13
M  V30 13 1 13 14
M  V30 14 2 14 15
M  V30 15 1 14 16
M  V30 16 1 2 17
M  V30 17 1 17 18
M  V30 18 1 18 19
M  V30 19 1 19 20
M  V30 20 2 20 21
M  V30 21 1 21 22
M  V30 22 2 22 23
M  V30 23 1 23 24
M  V30 24 2 24 25
M  V30 25 1 25 26
M  V30 26 1 16 4
M  V30 27 1 26 17
M  V30 28 1 12 7
M  V30 29 1 25 20
M  V30 30 1 3 27
M  V30 31 1 3 28
M  V30 32 1 8 29
M  V30 33 1 8 30
M  V30 34 1 9 31
M  V30 35 1 9 32
M  V30 36 1 11 33
M  V30 37 1 11 34
M  V30 38 1 12 35
M  V30 39 1 12 36
M  V30 40 1 13 37
M  V30 41 1 16 38
M  V30 42 1 18 39
M  V30 43 1 18 40
M  V30 44 1 19 41
M  V30 45 1 19 42
M  V30 46 1 21 43
M  V30 47 1 22 44
M  V30 48 1 23 45
M  V30 49 1 24 46
M  V30 50 1 26 47
M  V30 51 1 26 48
M  V30 END BOND
M  V30 END CTAB
M  END
>  <Dataset>  (262) 
ChEMBL_Kinases

>  <Ligand_Instance>  (262) 
nan

>  <PDB_ID>  (262) 
nan

>  <Standardized_SMILES>  (262) 
O=C(Cc1nc(N2CCOCC2)cc(=O)[nH]1)N1CCc2ccccc2C1

>  <Name>  (262) 
nan

>  <Pocket>  (262) 
nan

>  <ATP_Site>  (262) 
nan

>  <Peripheral>  (262) 
nan

>  <Num_H_Atoms_ProtBoundConf>  (262) 
nan

>  <Num_Resolved_Atoms>  (262) 
nan

>  <Num_Not_Resolved_Atoms>  (262) 
nan

$$$$
CHEMBL3696312
     RDKit          3D

  0  0  0  0  0  0  0  0  0  0999 V3000
M  V30 BEGIN CTAB
M  V30 COUNTS 52 55 0 0 0
M  V30 BEGIN ATOM
M  V30 1 C 1.645609 -0.936956 6.636482 0
M  V30 2 O 2.178441 -0.934974 5.344238 0
M  V30 3 C 1.604202 -0.228469 4.327002 0
M  V30 4 C 0.452838 0.563501 4.406828 0
M  V30 5 C -0.092393 1.255038 3.368501 0
M  V30 6 C 0.529623 1.180793 2.123357 0
M  V30 7 C 1.665951 0.435287 1.919019 0
M  V30 8 C 2.116298 -0.215381 3.045794 0
M  V30 9 C 3.351167 -0.961091 2.583325 0
M  V30 10 C 3.790315 -0.173973 1.369713 0
M  V30 11 N 2.497471 0.155834 0.792030 0
M  V30 12 C 2.127288 0.226089 -0.560051 0
M  V30 13 O 3.025450 -0.266530 -1.318555 0
M  V30 14 C 1.108551 0.641890 -1.506501 0
M  V30 15 C 0.332989 -0.471910 -2.124598 0
M  V30 16 N -0.809642 -0.782917 -1.440719 0
M  V30 17 C -1.673668 -1.726456 -1.781746 0
M  V30 18 N -2.805583 -1.842475 -0.888250 0
M  V30 19 C -4.022395 -1.108041 -1.274043 0
M  V30 20 C -4.068761 0.043159 -0.257416 0
M  V30 21 O -4.395976 -0.566519 0.976477 0
M  V30 22 C -3.395672 -1.406383 1.392349 0
M  V30 23 C -3.129986 -2.502771 0.385740 0
M  V30 24 C -1.390295 -2.463028 -2.934588 0
M  V30 25 C -0.242668 -2.161828 -3.632944 0
M  V30 26 O 0.004967 -2.822242 -4.659509 0
M  V30 27 N 0.591979 -1.179563 -3.219172 0
M  V30 28 C 1.796704 -0.869443 -3.959238 0
M  V30 29 H 1.780844 0.027613 7.142724 0
M  V30 30 H 2.173193 -1.757668 7.204204 0
M  V30 31 H 0.551355 -1.161619 6.615050 0
M  V30 32 H -0.030609 0.609984 5.397682 0
M  V30 33 H -0.996181 1.840140 3.555761 0
M  V30 34 H 0.119564 1.720930 1.293239 0
M  V30 35 H 4.124724 -0.884630 3.349941 0
M  V30 36 H 3.099684 -1.994176 2.275719 0
M  V30 37 H 4.340915 0.757413 1.661094 0
M  V30 38 H 4.443368 -0.748562 0.694324 0
M  V30 39 H 1.531855 1.286847 -2.335523 0
M  V30 40 H 0.397354 1.340083 -0.972220 0
M  V30 41 H -3.894744 -0.660004 -2.265093 0
M  V30 42 H -4.936064 -1.727386 -1.174647 0
M  V30 43 H -3.022649 0.455299 -0.205043 0
M  V30 44 H -4.772079 0.824859 -0.530083 0
M  V30 45 H -2.435414 -0.890651 1.614711 0
M  V30 46 H -3.751241 -1.856722 2.367680 0
M  V30 47 H -4.073025 -3.070621 0.245076 0
M  V30 48 H -2.305168 -3.157351 0.734904 0
M  V30 49 H -2.128217 -3.215404 -3.158878 0
M  V30 50 H 2.616730 -1.581797 -3.700456 0
M  V30 51 H 2.133342 0.159096 -3.884377 0
M  V30 52 H 1.604003 -1.092857 -5.055627 0
M  V30 END ATOM
M  V30 BEGIN BOND
M  V30 1 1 1 2
M  V30 2 1 2 3
M  V30 3 2 3 4
M  V30 4 1 4 5
M  V30 5 2 5 6
M  V30 6 1 6 7
M  V30 7 2 7 8
M  V30 8 1 8 9
M  V30 9 1 9 10
M  V30 10 1 10 11
M  V30 11 1 11 12
M  V30 12 2 12 13
M  V30 13 1 12 14
M  V30 14 1 14 15
M  V30 15 2 15 16
M  V30 16 1 16 17
M  V30 17 1 17 18
M  V30 18 1 18 19
M  V30 19 1 19 20
M  V30 20 1 20 21
M  V30 21 1 21 22
M  V30 22 1 22 23
M  V30 23 2 17 24
M  V30 24 1 24 25
M  V30 25 2 25 26
M  V30 26 1 25 27
M  V30 27 1 27 28
M  V30 28 1 8 3
M  V30 29 1 27 15
M  V30 30 1 11 7
M  V30 31 1 23 18
M  V30 32 1 1 29
M  V30 33 1 1 30
M  V30 34 1 1 31
M  V30 35 1 4 32
M  V30 36 1 5 33
M  V30 37 1 6 34
M  V30 38 1 9 35
M  V30 39 1 9 36
M  V30 40 1 10 37
M  V30 41 1 10 38
M  V30 42 1 14 39
M  V30 43 1 14 40
M  V30 44 1 19 41
M  V30 45 1 19 42
M  V30 46 1 20 43
M  V30 47 1 20 44
M  V30 48 1 22 45
M  V30 49 1 22 46
M  V30 50 1 23 47
M  V30 51 1 23 48
M  V30 52 1 24 49
M  V30 53 1 28 50
M  V30 54 1 28 51
M  V30 55 1 28 52
M  V30 END BOND
M  V30 END CTAB
M  END
>  <Dataset>  (263) 
ChEMBL_Kinases

>  <Ligand_Instance>  (263) 
nan

>  <PDB_ID>  (263) 
nan

>  <Standardized_SMILES>  (263) 
COc1cccc2c1CCN2C(=O)Cc1nc(N2CCOCC2)cc(=O)n1C

>  <Name>  (263) 
nan

>  <Pocket>  (263) 
nan

>  <ATP_Site>  (263) 
nan

>  <Peripheral>  (263) 
nan

>  <Num_H_Atoms_ProtBoundConf>  (263) 
nan

>  <Num_Resolved_Atoms>  (263) 
nan

>  <Num_Not_Resolved_Atoms>  (263) 
nan

$$$$
CHEMBL3696311
     RDKit          3D

  0  0  0  0  0  0  0  0  0  0999 V3000
M  V30 BEGIN CTAB
M  V30 COUNTS 49 52 0 0 0
M  V30 BEGIN ATOM
M  V30 1 C 1.919016 -2.860809 2.684949 0
M  V30 2 N 0.586367 -2.960804 2.125556 0
M  V30 3 C 0.040057 -1.819997 1.628039 0
M  V30 4 C 0.736024 -0.501098 1.632721 0
M  V30 5 C 1.525206 -0.312520 0.396073 0
M  V30 6 O 1.269643 -1.408367 -0.164636 0
M  V30 7 N 2.339933 0.730215 -0.093193 0
M  V30 8 C 2.993144 0.595822 -1.370825 0
M  V30 9 C 3.220368 2.020765 -1.831358 0
M  V30 10 C 3.216261 2.771266 -0.570657 0
M  V30 11 C 3.640517 4.058025 -0.308509 0
M  V30 12 O 4.181002 4.891959 -1.302189 0
M  V30 13 C 3.528859 4.542324 0.979181 0
M  V30 14 C 3.003237 3.757336 1.988392 0
M  V30 15 C 2.576707 2.465410 1.727763 0
M  V30 16 C 2.695180 1.998214 0.438559 0
M  V30 17 N -1.213544 -1.853157 1.088016 0
M  V30 18 C -1.914697 -2.999992 1.042035 0
M  V30 19 N -3.210814 -2.933945 0.460984 0
M  V30 20 C -3.687001 -1.657062 -0.037228 0
M  V30 21 C -4.964039 -1.401768 0.775260 0
M  V30 22 O -5.878655 -2.338490 0.340012 0
M  V30 23 C -5.560645 -3.637240 0.611391 0
M  V30 24 C -4.137191 -4.007269 0.300438 0
M  V30 25 C -1.374404 -4.151832 1.539424 0
M  V30 26 C -0.114815 -4.109463 2.079971 0
M  V30 27 O 0.440457 -5.145131 2.557538 0
M  V30 28 H 2.266280 -3.908568 2.912748 0
M  V30 29 H 2.649541 -2.398710 2.007917 0
M  V30 30 H 1.901055 -2.369220 3.693304 0
M  V30 31 H -0.028947 0.297295 1.703831 0
M  V30 32 H 1.380012 -0.402667 2.538811 0
M  V30 33 H 2.277596 0.162107 -2.084419 0
M  V30 34 H 3.941144 0.026598 -1.307147 0
M  V30 35 H 4.180879 2.088419 -2.363467 0
M  V30 36 H 2.434911 2.366487 -2.536285 0
M  V30 37 H 3.641030 5.731664 -1.483704 0
M  V30 38 H 3.858634 5.542909 1.183561 0
M  V30 39 H 2.926013 4.165428 2.999432 0
M  V30 40 H 2.169734 1.847463 2.491198 0
M  V30 41 H -4.008475 -1.709086 -1.099008 0
M  V30 42 H -2.953382 -0.853431 0.061428 0
M  V30 43 H -4.658048 -1.546733 1.846819 0
M  V30 44 H -5.348998 -0.397854 0.611175 0
M  V30 45 H -5.848629 -3.889127 1.650454 0
M  V30 46 H -6.198049 -4.277052 -0.045821 0
M  V30 47 H -3.883125 -4.846361 0.980079 0
M  V30 48 H -4.036080 -4.393784 -0.740973 0
M  V30 49 H -1.926368 -5.075615 1.507960 0
M  V30 END ATOM
M  V30 BEGIN BOND
M  V30 1 1 1 2
M  V30 2 1 2 3
M  V30 3 1 3 4
M  V30 4 1 4 5
M  V30 5 2 5 6
M  V30 6 1 5 7
M  V30 7 1 7 8
M  V30 8 1 8 9
M  V30 9 1 9 10
M  V30 10 2 10 11
M  V30 11 1 11 12
M  V30 12 1 11 13
M  V30 13 2 13 14
M  V30 14 1 14 15
M  V30 15 2 15 16
M  V30 16 2 3 17
M  V30 17 1 17 18
M  V30 18 1 18 19
M  V30 19 1 19 20
M  V30 20 1 20 21
M  V30 21 1 21 22
M  V30 22 1 22 23
M  V30 23 1 23 24
M  V30 24 2 18 25
M  V30 25 1 25 26
M  V30 26 2 26 27
M  V30 27 1 26 2
M  V30 28 1 16 7
M  V30 29 1 24 19
M  V30 30 1 16 10
M  V30 31 1 1 28
M  V30 32 1 1 29
M  V30 33 1 1 30
M  V30 34 1 4 31
M  V30 35 1 4 32
M  V30 36 1 8 33
M  V30 37 1 8 34
M  V30 38 1 9 35
M  V30 39 1 9 36
M  V30 40 1 12 37
M  V30 41 1 13 38
M  V30 42 1 14 39
M  V30 43 1 15 40
M  V30 44 1 20 41
M  V30 45 1 20 42
M  V30 46 1 21 43
M  V30 47 1 21 44
M  V30 48 1 23 45
M  V30 49 1 23 46
M  V30 50 1 24 47
M  V30 51 1 24 48
M  V30 52 1 25 49
M  V30 END BOND
M  V30 END CTAB
M  END
>  <Dataset>  (264) 
ChEMBL_Kinases

>  <Ligand_Instance>  (264) 
nan

>  <PDB_ID>  (264) 
nan

>  <Standardized_SMILES>  (264) 
Cn1c(CC(=O)N2CCc3c(O)cccc32)nc(N2CCOCC2)cc1=O

>  <Name>  (264) 
nan

>  <Pocket>  (264) 
nan

>  <ATP_Site>  (264) 
nan

>  <Peripheral>  (264) 
nan

>  <Num_H_Atoms_ProtBoundConf>  (264) 
nan

>  <Num_Resolved_Atoms>  (264) 
nan

>  <Num_Not_Resolved_Atoms>  (264) 
nan

$$$$
CHEMBL3696310
     RDKit          3D

  0  0  0  0  0  0  0  0  0  0999 V3000
M  V30 BEGIN CTAB
M  V30 COUNTS 52 54 0 0 0
M  V30 BEGIN ATOM
M  V30 1 C -1.772531 2.542383 -0.085979 0
M  V30 2 O -0.504619 2.072635 -0.419797 0
M  V30 3 C 0.369439 3.076821 -0.752555 0
M  V30 4 C 1.717181 2.437742 -1.096706 0
M  V30 5 O 2.125962 1.751601 0.057355 0
M  V30 6 C 3.296817 1.027945 0.189428 0
M  V30 7 C 4.107616 1.008906 -0.950874 0
M  V30 8 C 5.286789 0.295355 -0.856782 0
M  V30 9 C 5.694259 -0.387986 0.291842 0
M  V30 10 C 4.873648 -0.350664 1.399840 0
M  V30 11 C 3.689991 0.355571 1.330955 0
M  V30 12 N 2.729024 0.489265 2.398227 0
M  V30 13 C 1.806104 -0.587515 2.275688 0
M  V30 14 O 1.467573 -1.615418 1.628076 0
M  V30 15 C 0.641112 -0.811472 3.201987 0
M  V30 16 C -0.049842 -2.033034 2.715214 0
M  V30 17 N -1.034324 -1.913832 1.804201 0
M  V30 18 C -1.688771 -2.969670 1.331451 0
M  V30 19 N -2.716156 -2.744656 0.368912 0
M  V30 20 C -2.999908 -1.396071 -0.048315 0
M  V30 21 C -4.498492 -1.157375 0.027973 0
M  V30 22 O -5.245118 -2.225795 -0.415321 0
M  V30 23 C -4.513063 -3.156408 -1.136817 0
M  V30 24 C -3.504676 -3.810173 -0.224103 0
M  V30 25 C -1.384869 -4.243632 1.757465 0
M  V30 26 C -0.383604 -4.345014 2.681664 0
M  V30 27 O -0.093982 -5.518830 3.082932 0
M  V30 28 N 0.273034 -3.267214 3.153856 0
M  V30 29 H -1.767318 3.232536 0.780457 0
M  V30 30 H -2.474511 1.692598 0.028823 0
M  V30 31 H -2.124822 3.103703 -0.998629 0
M  V30 32 H -0.014969 3.642303 -1.632506 0
M  V30 33 H 0.526754 3.786504 0.080568 0
M  V30 34 H 2.425152 3.278685 -1.260411 0
M  V30 35 H 1.646561 1.802987 -1.986025 0
M  V30 36 H 3.882740 1.504027 -1.886218 0
M  V30 37 H 5.941385 0.262714 -1.733178 0
M  V30 38 H 6.606892 -0.935174 0.351750 0
M  V30 39 H 5.074785 -0.837062 2.347746 0
M  V30 40 H 2.506558 1.102643 3.199899 0
M  V30 41 H -0.026718 0.066275 3.232114 0
M  V30 42 H 1.080606 -1.069617 4.191786 0
M  V30 43 H -2.685077 -1.298688 -1.105135 0
M  V30 44 H -2.529382 -0.636358 0.605688 0
M  V30 45 H -4.686694 -0.207620 -0.511606 0
M  V30 46 H -4.725135 -0.982595 1.105973 0
M  V30 47 H -4.050542 -2.699529 -2.024985 0
M  V30 48 H -5.238993 -3.954393 -1.427724 0
M  V30 49 H -2.777061 -4.417535 -0.836452 0
M  V30 50 H -4.022308 -4.409899 0.530923 0
M  V30 51 H -1.939046 -5.070607 1.349307 0
M  V30 52 H 1.046890 -3.375910 3.871707 0
M  V30 END ATOM
M  V30 BEGIN BOND
M  V30 1 1 1 2
M  V30 2 1 2 3
M  V30 3 1 3 4
M  V30 4 1 4 5
M  V30 5 1 5 6
M  V30 6 2 6 7
M  V30 7 1 7 8
M  V30 8 2 8 9
M  V30 9 1 9 10
M  V30 10 2 10 11
M  V30 11 1 11 12
M  V30 12 1 12 13
M  V30 13 2 13 14
M  V30 14 1 13 15
M  V30 15 1 15 16
M  V30 16 2 16 17
M  V30 17 1 17 18
M  V30 18 1 18 19
M  V30 19 1 19 20
M  V30 20 1 20 21
M  V30 21 1 21 22
M  V30 22 1 22 23
M  V30 23 1 23 24
M  V30 24 2 18 25
M  V30 25 1 25 26
M  V30 26 2 26 27
M  V30 27 1 26 28
M  V30 28 1 11 6
M  V30 29 1 28 16
M  V30 30 1 24 19
M  V30 31 1 1 29
M  V30 32 1 1 30
M  V30 33 1 1 31
M  V30 34 1 3 32
M  V30 35 1 3 33
M  V30 36 1 4 34
M  V30 37 1 4 35
M  V30 38 1 7 36
M  V30 39 1 8 37
M  V30 40 1 9 38
M  V30 41 1 10 39
M  V30 42 1 12 40
M  V30 43 1 15 41
M  V30 44 1 15 42
M  V30 45 1 20 43
M  V30 46 1 20 44
M  V30 47 1 21 45
M  V30 48 1 21 46
M  V30 49 1 23 47
M  V30 50 1 23 48
M  V30 51 1 24 49
M  V30 52 1 24 50
M  V30 53 1 25 51
M  V30 54 1 28 52
M  V30 END BOND
M  V30 END CTAB
M  END
>  <Dataset>  (265) 
ChEMBL_Kinases

>  <Ligand_Instance>  (265) 
nan

>  <PDB_ID>  (265) 
nan

>  <Standardized_SMILES>  (265) 
COCCOc1ccccc1NC(=O)Cc1nc(N2CCOCC2)cc(=O)[nH]1

>  <Name>  (265) 
nan

>  <Pocket>  (265) 
nan

>  <ATP_Site>  (265) 
nan

>  <Peripheral>  (265) 
nan

>  <Num_H_Atoms_ProtBoundConf>  (265) 
nan

>  <Num_Resolved_Atoms>  (265) 
nan

>  <Num_Not_Resolved_Atoms>  (265) 
nan

$$$$
CHEMBL3696309
     RDKit          3D

  0  0  0  0  0  0  0  0  0  0999 V3000
M  V30 BEGIN CTAB
M  V30 COUNTS 63 66 0 0 0
M  V30 BEGIN ATOM
M  V30 1 O -1.170925 0.101557 2.068590 0
M  V30 2 C -1.675931 -0.866788 2.695078 0
M  V30 3 C -0.571507 -0.616893 3.627775 0
M  V30 4 C 0.217319 0.508832 3.104256 0
M  V30 5 N 1.332334 0.298463 2.379972 0
M  V30 6 C 2.048186 1.316234 1.895434 0
M  V30 7 N 3.228234 1.153949 1.136967 0
M  V30 8 C 4.032454 2.160293 0.503877 0
M  V30 9 C 5.501461 2.063733 0.858224 0
M  V30 10 O 5.955309 0.752393 0.830882 0
M  V30 11 C 5.041782 -0.109457 0.230082 0
M  V30 12 C 3.730201 -0.202184 0.954443 0
M  V30 13 C 1.590093 2.601112 2.172269 0
M  V30 14 C 0.439550 2.798082 2.920168 0
M  V30 15 O 0.000762 3.957372 3.187336 0
M  V30 16 N -0.256199 1.748837 3.392431 0
M  V30 17 N -2.735164 -1.806311 2.666092 0
M  V30 18 C -3.709001 -1.843724 1.630504 0
M  V30 19 C -4.748814 -0.984294 2.015719 0
M  V30 20 C -5.878394 -0.796198 1.210407 0
M  V30 21 C -5.975493 -1.472141 0.005143 0
M  V30 22 C -4.931849 -2.302043 -0.327349 0
M  V30 23 C -3.799788 -2.531065 0.412597 0
M  V30 24 O -2.707647 -3.303749 0.223250 0
M  V30 25 C -2.342632 -4.145906 -0.808824 0
M  V30 26 C -2.164704 -3.510584 -2.163818 0
M  V30 27 N -1.170295 -2.510913 -2.218943 0
M  V30 28 C 0.178079 -2.929656 -2.068049 0
M  V30 29 C 0.943341 -1.847938 -1.338106 0
M  V30 30 C -0.028642 -0.786724 -0.830168 0
M  V30 31 C -0.739860 -0.170128 -2.034154 0
M  V30 32 C -1.436313 -1.277660 -2.816648 0
M  V30 33 H -0.907771 -0.400269 4.658246 0
M  V30 34 H 0.126649 -1.501160 3.714678 0
M  V30 35 H 3.731203 3.194011 0.744095 0
M  V30 36 H 3.974036 2.097999 -0.616731 0
M  V30 37 H 6.055775 2.629638 0.061001 0
M  V30 38 H 5.683881 2.528737 1.831136 0
M  V30 39 H 5.521923 -1.126231 0.292911 0
M  V30 40 H 4.875665 0.080643 -0.836424 0
M  V30 41 H 3.864136 -0.675782 1.950999 0
M  V30 42 H 3.065133 -0.828931 0.331436 0
M  V30 43 H 2.056025 3.498207 1.851590 0
M  V30 44 H -1.111107 1.880979 3.948075 0
M  V30 45 H -2.659965 -2.422333 3.502530 0
M  V30 46 H -4.846586 -0.382775 2.907450 0
M  V30 47 H -6.714401 -0.153031 1.442410 0
M  V30 48 H -6.807914 -1.391316 -0.682827 0
M  V30 49 H -4.978991 -2.840950 -1.239462 0
M  V30 50 H -3.119567 -4.950677 -0.928974 0
M  V30 51 H -1.394942 -4.654437 -0.504684 0
M  V30 52 H -1.816637 -4.351187 -2.837948 0
M  V30 53 H -3.094894 -3.117307 -2.576933 0
M  V30 54 H 0.185094 -3.897624 -1.549818 0
M  V30 55 H 0.662060 -3.060665 -3.063568 0
M  V30 56 H 1.350277 -2.339493 -0.407782 0
M  V30 57 H 1.703097 -1.359028 -1.951815 0
M  V30 58 H 0.526526 -0.029384 -0.285212 0
M  V30 59 H -0.763822 -1.365564 -0.214424 0
M  V30 60 H -1.487920 0.564489 -1.688940 0
M  V30 61 H 0.038596 0.347423 -2.633728 0
M  V30 62 H -1.037916 -1.235211 -3.854416 0
M  V30 63 H -2.529055 -1.117836 -2.858014 0
M  V30 END ATOM
M  V30 BEGIN BOND
M  V30 1 2 1 2
M  V30 2 1 2 3
M  V30 3 1 3 4
M  V30 4 2 4 5
M  V30 5 1 5 6
M  V30 6 1 6 7
M  V30 7 1 7 8
M  V30 8 1 8 9
M  V30 9 1 9 10
M  V30 10 1 10 11
M  V30 11 1 11 12
M  V30 12 2 6 13
M  V30 13 1 13 14
M  V30 14 2 14 15
M  V30 15 1 14 16
M  V30 16 1 2 17
M  V30 17 1 17 18
M  V30 18 2 18 19
M  V30 19 1 19 20
M  V30 20 2 20 21
M  V30 21 1 21 22
M  V30 22 2 22 23
M  V30 23 1 23 24
M  V30 24 1 24 25
M  V30 25 1 25 26
M  V30 26 1 26 27
M  V30 27 1 27 28
M  V30 28 1 28 29
M  V30 29 1 29 30
M  V30 30 1 30 31
M  V30 31 1 31 32
M  V30 32 1 16 4
M  V30 33 1 23 18
M  V30 34 1 32 27
M  V30 35 1 12 7
M  V30 36 1 3 33
M  V30 37 1 3 34
M  V30 38 1 8 35
M  V30 39 1 8 36
M  V30 40 1 9 37
M  V30 41 1 9 38
M  V30 42 1 11 39
M  V30 43 1 11 40
M  V30 44 1 12 41
M  V30 45 1 12 42
M  V30 46 1 13 43
M  V30 47 1 16 44
M  V30 48 1 17 45
M  V30 49 1 19 46
M  V30 50 1 20 47
M  V30 51 1 21 48
M  V30 52 1 22 49
M  V30 53 1 25 50
M  V30 54 1 25 51
M  V30 55 1 26 52
M  V30 56 1 26 53
M  V30 57 1 28 54
M  V30 58 1 28 55
M  V30 59 1 29 56
M  V30 60 1 29 57
M  V30 61 1 30 58
M  V30 62 1 30 59
M  V30 63 1 31 60
M  V30 64 1 31 61
M  V30 65 1 32 62
M  V30 66 1 32 63
M  V30 END BOND
M  V30 END CTAB
M  END
>  <Dataset>  (266) 
ChEMBL_Kinases

>  <Ligand_Instance>  (266) 
nan

>  <PDB_ID>  (266) 
nan

>  <Standardized_SMILES>  (266) 
O=C(Cc1nc(N2CCOCC2)cc(=O)[nH]1)Nc1ccccc1OCCN1CCCCC1

>  <Name>  (266) 
nan

>  <Pocket>  (266) 
nan

>  <ATP_Site>  (266) 
nan

>  <Peripheral>  (266) 
nan

>  <Num_H_Atoms_ProtBoundConf>  (266) 
nan

>  <Num_Resolved_Atoms>  (266) 
nan

>  <Num_Not_Resolved_Atoms>  (266) 
nan

$$$$
CHEMBL3696308
     RDKit          3D

  0  0  0  0  0  0  0  0  0  0999 V3000
M  V30 BEGIN CTAB
M  V30 COUNTS 49 52 0 0 0
M  V30 BEGIN ATOM
M  V30 1 O -0.841446 -0.567280 -0.114727 0
M  V30 2 C -1.299563 -0.609681 1.055823 0
M  V30 3 C -0.420181 0.472689 1.562447 0
M  V30 4 C 0.475040 0.987559 0.491877 0
M  V30 5 N 1.692008 0.386753 0.339378 0
M  V30 6 C 2.550873 0.802682 -0.609595 0
M  V30 7 N 3.816965 0.214514 -0.805671 0
M  V30 8 C 4.801000 0.601576 -1.796771 0
M  V30 9 C 4.855784 -0.557856 -2.783964 0
M  V30 10 O 5.122078 -1.717458 -2.099679 0
M  V30 11 C 5.368269 -1.585595 -0.757931 0
M  V30 12 C 4.265170 -0.892560 0.017184 0
M  V30 13 C 2.126348 1.850587 -1.396138 0
M  V30 14 C 0.890849 2.470724 -1.251514 0
M  V30 15 O 0.505229 3.425122 -1.968515 0
M  V30 16 N 0.072622 2.009293 -0.282119 0
M  V30 17 N -2.278577 -1.372524 1.707882 0
M  V30 18 C -2.775207 -1.406778 3.036411 0
M  V30 19 C -2.461373 -0.578812 4.092679 0
M  V30 20 C -3.127572 -0.874477 5.287213 0
M  V30 21 C -4.017974 -1.917610 5.360559 0
M  V30 22 C -4.302144 -2.721385 4.277169 0
M  V30 23 C -3.660967 -2.453848 3.087525 0
M  V30 24 C -3.776501 -3.147608 1.787866 0
M  V30 25 C -2.931629 -2.346982 0.819720 0
M  V30 26 C -3.898941 -1.666389 -0.116909 0
M  V30 27 O -3.334873 -0.727366 -0.942973 0
M  V30 28 H 0.226088 0.131431 2.389719 0
M  V30 29 H -1.031073 1.325567 1.981686 0
M  V30 30 H 4.635450 1.573493 -2.258631 0
M  V30 31 H 5.825442 0.616277 -1.329294 0
M  V30 32 H 5.504968 -0.364451 -3.641839 0
M  V30 33 H 3.804006 -0.670368 -3.180323 0
M  V30 34 H 6.368957 -1.182794 -0.536284 0
M  V30 35 H 5.389701 -2.636703 -0.345410 0
M  V30 36 H 3.463183 -1.614905 0.228424 0
M  V30 37 H 4.750115 -0.539662 0.962610 0
M  V30 38 H 2.723347 2.272420 -2.188815 0
M  V30 39 H -0.866019 2.448158 -0.139984 0
M  V30 40 H -1.751931 0.227689 3.978420 0
M  V30 41 H -2.885239 -0.222300 6.132563 0
M  V30 42 H -4.509604 -2.103809 6.317386 0
M  V30 43 H -5.011446 -3.529567 4.389319 0
M  V30 44 H -3.463309 -4.208608 1.843082 0
M  V30 45 H -4.853512 -3.169237 1.521396 0
M  V30 46 H -2.217549 -3.020454 0.327871 0
M  V30 47 H -4.405479 -2.460777 -0.683089 0
M  V30 48 H -4.649302 -1.152092 0.550285 0
M  V30 49 H -3.869180 0.095949 -1.070719 0
M  V30 END ATOM
M  V30 BEGIN BOND
M  V30 1 2 1 2
M  V30 2 1 2 3
M  V30 3 1 3 4
M  V30 4 2 4 5
M  V30 5 1 5 6
M  V30 6 1 6 7
M  V30 7 1 7 8
M  V30 8 1 8 9
M  V30 9 1 9 10
M  V30 10 1 10 11
M  V30 11 1 11 12
M  V30 12 2 6 13
M  V30 13 1 13 14
M  V30 14 2 14 15
M  V30 15 1 14 16
M  V30 16 1 2 17
M  V30 17 1 17 18
M  V30 18 2 18 19
M  V30 19 1 19 20
M  V30 20 2 20 21
M  V30 21 1 21 22
M  V30 22 2 22 23
M  V30 23 1 23 24
M  V30 24 1 24 25
M  V30 25 1 25 26
M  V30 26 1 26 27
M  V30 27 1 16 4
M  V30 28 1 25 17
M  V30 29 1 12 7
M  V30 30 1 23 18
M  V30 31 1 3 28
M  V30 32 1 3 29
M  V30 33 1 8 30
M  V30 34 1 8 31
M  V30 35 1 9 32
M  V30 36 1 9 33
M  V30 37 1 11 34
M  V30 38 1 11 35
M  V30 39 1 12 36
M  V30 40 1 12 37
M  V30 41 1 13 38
M  V30 42 1 16 39
M  V30 43 1 19 40
M  V30 44 1 20 41
M  V30 45 1 21 42
M  V30 46 1 22 43
M  V30 47 1 24 44
M  V30 48 1 24 45
M  V30 49 1 25 46
M  V30 50 1 26 47
M  V30 51 1 26 48
M  V30 52 1 27 49
M  V30 END BOND
M  V30 END CTAB
M  END
>  <Dataset>  (267) 
ChEMBL_Kinases

>  <Ligand_Instance>  (267) 
nan

>  <PDB_ID>  (267) 
nan

>  <Standardized_SMILES>  (267) 
O=C(Cc1nc(N2CCOCC2)cc(=O)[nH]1)N1c2ccccc2CC1CO

>  <Name>  (267) 
nan

>  <Pocket>  (267) 
nan

>  <ATP_Site>  (267) 
nan

>  <Peripheral>  (267) 
nan

>  <Num_H_Atoms_ProtBoundConf>  (267) 
nan

>  <Num_Resolved_Atoms>  (267) 
nan

>  <Num_Not_Resolved_Atoms>  (267) 
nan

$$$$
CHEMBL3696307
     RDKit          3D

  0  0  0  0  0  0  0  0  0  0999 V3000
M  V30 BEGIN CTAB
M  V30 COUNTS 44 47 0 0 0
M  V30 BEGIN ATOM
M  V30 1 O 2.024687 -2.653677 2.054244 0
M  V30 2 C 1.113279 -2.078584 2.690209 0
M  V30 3 C 1.243123 -1.265506 3.970512 0
M  V30 4 C 1.601873 0.125036 3.500471 0
M  V30 5 N 1.544521 0.259773 2.147659 0
M  V30 6 C 1.783561 1.426808 1.489815 0
M  V30 7 N 1.640797 1.200585 0.066821 0
M  V30 8 C 0.282403 1.585928 -0.307284 0
M  V30 9 C 0.012002 1.453119 -1.774527 0
M  V30 10 O 0.886363 0.621382 -2.453960 0
M  V30 11 C 2.181548 1.140126 -2.251826 0
M  V30 12 C 2.622673 0.672618 -0.884300 0
M  V30 13 C 2.099423 2.530880 2.244250 0
M  V30 14 C 2.148804 2.353099 3.604625 0
M  V30 15 O 2.440175 3.379638 4.263815 0
M  V30 16 N 1.912474 1.204603 4.218920 0
M  V30 17 N -0.187088 -2.163641 2.175344 0
M  V30 18 C -0.716283 -2.790180 1.003361 0
M  V30 19 C -0.080887 -3.789860 0.315048 0
M  V30 20 C -0.439521 -4.399762 -0.867387 0
M  V30 21 C -1.623048 -3.896791 -1.405852 0
M  V30 22 C -2.302673 -2.893120 -0.760267 0
M  V30 23 S -3.768689 -2.136036 -1.306294 0
M  V30 24 C -3.854531 -0.945683 0.164138 0
M  V30 25 C -2.673327 -1.307059 0.935933 0
M  V30 26 C -1.891259 -2.308201 0.444545 0
M  V30 27 H 0.330199 -1.236577 4.537927 0
M  V30 28 H 2.143069 -1.645933 4.488075 0
M  V30 29 H -0.380439 0.897219 0.274630 0
M  V30 30 H 0.042837 2.611456 0.018890 0
M  V30 31 H -1.023235 1.028071 -1.890631 0
M  V30 32 H -0.025701 2.466762 -2.237050 0
M  V30 33 H 2.881278 0.835377 -3.055333 0
M  V30 34 H 2.057631 2.249220 -2.211389 0
M  V30 35 H 3.636031 0.992743 -0.603918 0
M  V30 36 H 2.544105 -0.453793 -0.884659 0
M  V30 37 H 2.261003 3.384311 1.627554 0
M  V30 38 H 1.945240 1.048555 5.238771 0
M  V30 39 H -0.935190 -1.697441 2.767422 0
M  V30 40 H 0.838659 -4.164400 0.769190 0
M  V30 41 H 0.150085 -5.177258 -1.303385 0
M  V30 42 H -1.995540 -4.304359 -2.328021 0
M  V30 43 H -4.551388 -0.091095 0.541278 0
M  V30 44 H -2.521161 -0.739174 1.850223 0
M  V30 END ATOM
M  V30 BEGIN BOND
M  V30 1 2 1 2
M  V30 2 1 2 3
M  V30 3 1 3 4
M  V30 4 2 4 5
M  V30 5 1 5 6
M  V30 6 1 6 7
M  V30 7 1 7 8
M  V30 8 1 8 9
M  V30 9 1 9 10
M  V30 10 1 10 11
M  V30 11 1 11 12
M  V30 12 2 6 13
M  V30 13 1 13 14
M  V30 14 2 14 15
M  V30 15 1 14 16
M  V30 16 1 2 17
M  V30 17 1 17 18
M  V30 18 2 18 19
M  V30 19 1 19 20
M  V30 20 2 20 21
M  V30 21 1 21 22
M  V30 22 1 22 23
M  V30 23 1 23 24
M  V30 24 2 24 25
M  V30 25 1 25 26
M  V30 26 1 16 4
M  V30 27 1 26 18
M  V30 28 1 12 7
M  V30 29 2 26 22
M  V30 30 1 3 27
M  V30 31 1 3 28
M  V30 32 1 8 29
M  V30 33 1 8 30
M  V30 34 1 9 31
M  V30 35 1 9 32
M  V30 36 1 11 33
M  V30 37 1 11 34
M  V30 38 1 12 35
M  V30 39 1 12 36
M  V30 40 1 13 37
M  V30 41 1 16 38
M  V30 42 1 17 39
M  V30 43 1 19 40
M  V30 44 1 20 41
M  V30 45 1 21 42
M  V30 46 1 24 43
M  V30 47 1 25 44
M  V30 END BOND
M  V30 END CTAB
M  END
>  <Dataset>  (268) 
ChEMBL_Kinases

>  <Ligand_Instance>  (268) 
nan

>  <PDB_ID>  (268) 
nan

>  <Standardized_SMILES>  (268) 
O=C(Cc1nc(N2CCOCC2)cc(=O)[nH]1)Nc1cccc2sccc12

>  <Name>  (268) 
nan

>  <Pocket>  (268) 
nan

>  <ATP_Site>  (268) 
nan

>  <Peripheral>  (268) 
nan

>  <Num_H_Atoms_ProtBoundConf>  (268) 
nan

>  <Num_Resolved_Atoms>  (268) 
nan

>  <Num_Not_Resolved_Atoms>  (268) 
nan

$$$$
CHEMBL3696306
     RDKit          3D

  0  0  0  0  0  0  0  0  0  0999 V3000
M  V30 BEGIN CTAB
M  V30 COUNTS 48 51 0 0 0
M  V30 BEGIN ATOM
M  V30 1 C 1.492400 -3.615202 1.910381 0
M  V30 2 N 0.169362 -3.223555 1.424152 0
M  V30 3 C 0.050774 -2.173771 0.588519 0
M  V30 4 C 1.181413 -1.387911 0.129403 0
M  V30 5 C 1.536034 -0.232099 0.965230 0
M  V30 6 O 0.872753 0.027983 2.011522 0
M  V30 7 N 2.612121 0.585817 0.603715 0
M  V30 8 C 3.481847 0.447421 -0.549703 0
M  V30 9 C 3.839522 1.878697 -0.933880 0
M  V30 10 C 3.827447 2.531520 0.407183 0
M  V30 11 C 4.378314 3.700133 0.889190 0
M  V30 12 Cl 5.313177 4.719857 -0.212470 0
M  V30 13 C 4.236131 4.116500 2.195249 0
M  V30 14 C 3.516038 3.346516 3.074601 0
M  V30 15 C 2.945775 2.157676 2.617299 0
M  V30 16 C 3.098092 1.752291 1.299146 0
M  V30 17 N -1.186550 -1.856020 0.171665 0
M  V30 18 C -2.272179 -2.547509 0.563318 0
M  V30 19 N -3.529505 -2.126098 0.062839 0
M  V30 20 C -3.622760 -0.989806 -0.837440 0
M  V30 21 C -4.429078 0.065036 -0.104642 0
M  V30 22 O -5.520671 -0.484877 0.545364 0
M  V30 23 C -5.868231 -1.741635 0.109570 0
M  V30 24 C -4.778185 -2.781531 0.404686 0
M  V30 25 C -2.194867 -3.624499 1.414560 0
M  V30 26 C -0.911850 -3.922831 1.822485 0
M  V30 27 O -0.712966 -4.901357 2.613453 0
M  V30 28 H 1.413213 -4.580027 2.448176 0
M  V30 29 H 2.232830 -3.744643 1.122096 0
M  V30 30 H 1.841192 -2.832992 2.645130 0
M  V30 31 H 0.936594 -0.971540 -0.885907 0
M  V30 32 H 2.095573 -2.012889 0.052680 0
M  V30 33 H 2.910504 -0.036546 -1.370876 0
M  V30 34 H 4.389932 -0.143163 -0.338636 0
M  V30 35 H 4.875853 1.839566 -1.329599 0
M  V30 36 H 3.104920 2.336202 -1.613893 0
M  V30 37 H 4.688493 5.039608 2.518230 0
M  V30 38 H 3.403267 3.670296 4.097634 0
M  V30 39 H 2.369927 1.527737 3.292207 0
M  V30 40 H -4.186086 -1.251102 -1.776786 0
M  V30 41 H -2.631245 -0.558989 -1.079943 0
M  V30 42 H -4.713952 0.880797 -0.792591 0
M  V30 43 H -3.750813 0.460236 0.700484 0
M  V30 44 H -6.808553 -2.016279 0.626804 0
M  V30 45 H -6.036380 -1.676151 -0.983931 0
M  V30 46 H -5.007531 -3.649308 -0.240584 0
M  V30 47 H -4.864512 -2.991711 1.488549 0
M  V30 48 H -3.043557 -4.177060 1.730086 0
M  V30 END ATOM
M  V30 BEGIN BOND
M  V30 1 1 1 2
M  V30 2 1 2 3
M  V30 3 1 3 4
M  V30 4 1 4 5
M  V30 5 2 5 6
M  V30 6 1 5 7
M  V30 7 1 7 8
M  V30 8 1 8 9
M  V30 9 1 9 10
M  V30 10 2 10 11
M  V30 11 1 11 12
M  V30 12 1 11 13
M  V30 13 2 13 14
M  V30 14 1 14 15
M  V30 15 2 15 16
M  V30 16 2 3 17
M  V30 17 1 17 18
M  V30 18 1 18 19
M  V30 19 1 19 20
M  V30 20 1 20 21
M  V30 21 1 21 22
M  V30 22 1 22 23
M  V30 23 1 23 24
M  V30 24 2 18 25
M  V30 25 1 25 26
M  V30 26 2 26 27
M  V30 27 1 26 2
M  V30 28 1 16 7
M  V30 29 1 24 19
M  V30 30 1 16 10
M  V30 31 1 1 28
M  V30 32 1 1 29
M  V30 33 1 1 30
M  V30 34 1 4 31
M  V30 35 1 4 32
M  V30 36 1 8 33
M  V30 37 1 8 34
M  V30 38 1 9 35
M  V30 39 1 9 36
M  V30 40 1 13 37
M  V30 41 1 14 38
M  V30 42 1 15 39
M  V30 43 1 20 40
M  V30 44 1 20 41
M  V30 45 1 21 42
M  V30 46 1 21 43
M  V30 47 1 23 44
M  V30 48 1 23 45
M  V30 49 1 24 46
M  V30 50 1 24 47
M  V30 51 1 25 48
M  V30 END BOND
M  V30 END CTAB
M  END
>  <Dataset>  (269) 
ChEMBL_Kinases

>  <Ligand_Instance>  (269) 
nan

>  <PDB_ID>  (269) 
nan

>  <Standardized_SMILES>  (269) 
Cn1c(CC(=O)N2CCc3c(Cl)cccc32)nc(N2CCOCC2)cc1=O

>  <Name>  (269) 
nan

>  <Pocket>  (269) 
nan

>  <ATP_Site>  (269) 
nan

>  <Peripheral>  (269) 
nan

>  <Num_H_Atoms_ProtBoundConf>  (269) 
nan

>  <Num_Resolved_Atoms>  (269) 
nan

>  <Num_Not_Resolved_Atoms>  (269) 
nan

$$$$
CHEMBL3696305
     RDKit          3D

  0  0  0  0  0  0  0  0  0  0999 V3000
M  V30 BEGIN CTAB
M  V30 COUNTS 48 51 0 0 0
M  V30 BEGIN ATOM
M  V30 1 C 1.350259 -2.971282 2.637887 0
M  V30 2 N 0.127120 -2.719133 1.952559 0
M  V30 3 C -0.213629 -1.529024 1.455121 0
M  V30 4 C 0.661465 -0.356109 1.579882 0
M  V30 5 C 1.624309 -0.255756 0.452804 0
M  V30 6 O 1.282874 -1.272757 -0.204021 0
M  V30 7 N 2.638950 0.685716 0.164939 0
M  V30 8 C 3.419392 0.506547 -1.042685 0
M  V30 9 C 4.757484 1.126883 -0.690307 0
M  V30 10 C 4.367267 2.130436 0.325550 0
M  V30 11 C 4.945617 3.251102 0.882998 0
M  V30 12 F 6.199524 3.629330 0.467201 0
M  V30 13 C 4.358124 4.043916 1.846463 0
M  V30 14 C 3.085362 3.701383 2.301912 0
M  V30 15 C 2.455836 2.592522 1.783085 0
M  V30 16 C 3.111392 1.853046 0.822888 0
M  V30 17 N -1.417709 -1.430169 0.818571 0
M  V30 18 C -2.241474 -2.457476 0.682175 0
M  V30 19 N -3.450146 -2.204737 0.001706 0
M  V30 20 C -3.738324 -0.875679 -0.504096 0
M  V30 21 C -4.961176 -0.398916 0.254838 0
M  V30 22 O -5.971181 -1.329766 0.237352 0
M  V30 23 C -5.734612 -2.388882 -0.624312 0
M  V30 24 C -4.492987 -3.177566 -0.263079 0
M  V30 25 C -1.927830 -3.694656 1.178903 0
M  V30 26 C -0.713357 -3.784941 1.818262 0
M  V30 27 O -0.397665 -4.925231 2.289435 0
M  V30 28 H 1.093185 -3.621652 3.527302 0
M  V30 29 H 2.066567 -3.600307 2.071463 0
M  V30 30 H 1.808984 -2.074807 3.098160 0
M  V30 31 H 1.203123 -0.238375 2.509473 0
M  V30 32 H 0.007390 0.549833 1.485973 0
M  V30 33 H 3.519829 -0.537013 -1.368334 0
M  V30 34 H 2.983080 1.160425 -1.830092 0
M  V30 35 H 5.268333 1.554685 -1.551413 0
M  V30 36 H 5.353952 0.302285 -0.203741 0
M  V30 37 H 4.875695 4.914794 2.240556 0
M  V30 38 H 2.584534 4.290329 3.054348 0
M  V30 39 H 1.470153 2.321711 2.132001 0
M  V30 40 H -3.947529 -0.938703 -1.588794 0
M  V30 41 H -2.900296 -0.167811 -0.305688 0
M  V30 42 H -4.623486 -0.324802 1.325083 0
M  V30 43 H -5.254879 0.612109 -0.107976 0
M  V30 44 H -5.696680 -1.988397 -1.651255 0
M  V30 45 H -6.624356 -3.058360 -0.587413 0
M  V30 46 H -4.255057 -3.842893 -1.110005 0
M  V30 47 H -4.708481 -3.718213 0.669822 0
M  V30 48 H -2.604919 -4.510851 1.059221 0
M  V30 END ATOM
M  V30 BEGIN BOND
M  V30 1 1 1 2
M  V30 2 1 2 3
M  V30 3 1 3 4
M  V30 4 1 4 5
M  V30 5 2 5 6
M  V30 6 1 5 7
M  V30 7 1 7 8
M  V30 8 1 8 9
M  V30 9 1 9 10
M  V30 10 2 10 11
M  V30 11 1 11 12
M  V30 12 1 11 13
M  V30 13 2 13 14
M  V30 14 1 14 15
M  V30 15 2 15 16
M  V30 16 2 3 17
M  V30 17 1 17 18
M  V30 18 1 18 19
M  V30 19 1 19 20
M  V30 20 1 20 21
M  V30 21 1 21 22
M  V30 22 1 22 23
M  V30 23 1 23 24
M  V30 24 2 18 25
M  V30 25 1 25 26
M  V30 26 2 26 27
M  V30 27 1 26 2
M  V30 28 1 16 7
M  V30 29 1 24 19
M  V30 30 1 16 10
M  V30 31 1 1 28
M  V30 32 1 1 29
M  V30 33 1 1 30
M  V30 34 1 4 31
M  V30 35 1 4 32
M  V30 36 1 8 33
M  V30 37 1 8 34
M  V30 38 1 9 35
M  V30 39 1 9 36
M  V30 40 1 13 37
M  V30 41 1 14 38
M  V30 42 1 15 39
M  V30 43 1 20 40
M  V30 44 1 20 41
M  V30 45 1 21 42
M  V30 46 1 21 43
M  V30 47 1 23 44
M  V30 48 1 23 45
M  V30 49 1 24 46
M  V30 50 1 24 47
M  V30 51 1 25 48
M  V30 END BOND
M  V30 END CTAB
M  END
>  <Dataset>  (270) 
ChEMBL_Kinases

>  <Ligand_Instance>  (270) 
nan

>  <PDB_ID>  (270) 
nan

>  <Standardized_SMILES>  (270) 
Cn1c(CC(=O)N2CCc3c(F)cccc32)nc(N2CCOCC2)cc1=O

>  <Name>  (270) 
nan

>  <Pocket>  (270) 
nan

>  <ATP_Site>  (270) 
nan

>  <Peripheral>  (270) 
nan

>  <Num_H_Atoms_ProtBoundConf>  (270) 
nan

>  <Num_Resolved_Atoms>  (270) 
nan

>  <Num_Not_Resolved_Atoms>  (270) 
nan

$$$$
CHEMBL3696304
     RDKit          3D

  0  0  0  0  0  0  0  0  0  0999 V3000
M  V30 BEGIN CTAB
M  V30 COUNTS 48 51 0 0 0
M  V30 BEGIN ATOM
M  V30 1 C -0.311411 -6.159166 1.938382 0
M  V30 2 N -0.015051 -5.160252 0.940843 0
M  V30 3 C 1.166656 -4.595023 0.622319 0
M  V30 4 C 0.988992 -3.682980 -0.397160 0
M  V30 5 C -0.356255 -3.678145 -0.728582 0
M  V30 6 C -1.146085 -3.007541 -1.638064 0
M  V30 7 N -0.407533 -2.076651 -2.455460 0
M  V30 8 C -0.429656 -0.849236 -1.763984 0
M  V30 9 O -0.768853 -0.119001 -0.773402 0
M  V30 10 C 0.168811 0.485505 -2.117945 0
M  V30 11 C -0.191940 1.389127 -0.997108 0
M  V30 12 N 0.581126 1.552619 0.094256 0
M  V30 13 C 0.251586 2.369144 1.103326 0
M  V30 14 N 1.042228 2.563710 2.264918 0
M  V30 15 C 0.639479 3.449326 3.312570 0
M  V30 16 C 1.845537 3.904826 4.065718 0
M  V30 17 O 2.668697 2.933190 4.539354 0
M  V30 18 C 2.724320 1.752031 3.846813 0
M  V30 19 C 2.300095 1.851632 2.412118 0
M  V30 20 C -0.941744 3.037711 0.950715 0
M  V30 21 C -1.770146 2.894370 -0.165784 0
M  V30 22 O -2.856739 3.519369 -0.277744 0
M  V30 23 N -1.357909 2.051046 -1.131785 0
M  V30 24 C -2.506845 -3.202011 -1.759901 0
M  V30 25 C -3.097888 -4.119501 -0.921017 0
M  V30 26 C -2.291295 -4.795726 -0.001451 0
M  V30 27 C -0.930746 -4.605552 0.124932 0
M  V30 28 H 0.617018 -6.520606 2.425202 0
M  V30 29 H -0.989481 -5.793343 2.742534 0
M  V30 30 H -0.824833 -7.000768 1.444773 0
M  V30 31 H 2.112751 -4.822396 1.095178 0
M  V30 32 H 1.737879 -3.062036 -0.880298 0
M  V30 33 H 0.118176 -1.968727 -3.332022 0
M  V30 34 H 1.283724 0.399940 -2.165372 0
M  V30 35 H -0.173188 0.836622 -3.097219 0
M  V30 36 H -0.052248 2.866991 3.980598 0
M  V30 37 H 0.134546 4.386791 2.946903 0
M  V30 38 H 2.385297 4.647904 3.415754 0
M  V30 39 H 1.464114 4.515562 4.933243 0
M  V30 40 H 3.806843 1.446137 3.831491 0
M  V30 41 H 2.198907 0.923596 4.373990 0
M  V30 42 H 2.127675 0.820099 2.035256 0
M  V30 43 H 3.084932 2.276796 1.764255 0
M  V30 44 H -1.330329 3.728323 1.687734 0
M  V30 45 H -1.970415 1.925545 -1.989768 0
M  V30 46 H -3.049418 -2.638181 -2.495106 0
M  V30 47 H -4.160258 -4.312005 -0.972588 0
M  V30 48 H -2.775096 -5.526280 0.663313 0
M  V30 END ATOM
M  V30 BEGIN BOND
M  V30 1 1 1 2
M  V30 2 1 2 3
M  V30 3 2 3 4
M  V30 4 1 4 5
M  V30 5 2 5 6
M  V30 6 1 6 7
M  V30 7 1 7 8
M  V30 8 2 8 9
M  V30 9 1 8 10
M  V30 10 1 10 11
M  V30 11 2 11 12
M  V30 12 1 12 13
M  V30 13 1 13 14
M  V30 14 1 14 15
M  V30 15 1 15 16
M  V30 16 1 16 17
M  V30 17 1 17 18
M  V30 18 1 18 19
M  V30 19 2 13 20
M  V30 20 1 20 21
M  V30 21 2 21 22
M  V30 22 1 21 23
M  V30 23 1 6 24
M  V30 24 2 24 25
M  V30 25 1 25 26
M  V30 26 2 26 27
M  V30 27 1 27 2
M  V30 28 1 27 5
M  V30 29 1 23 11
M  V30 30 1 19 14
M  V30 31 1 1 28
M  V30 32 1 1 29
M  V30 33 1 1 30
M  V30 34 1 3 31
M  V30 35 1 4 32
M  V30 36 1 7 33
M  V30 37 1 10 34
M  V30 38 1 10 35
M  V30 39 1 15 36
M  V30 40 1 15 37
M  V30 41 1 16 38
M  V30 42 1 16 39
M  V30 43 1 18 40
M  V30 44 1 18 41
M  V30 45 1 19 42
M  V30 46 1 19 43
M  V30 47 1 20 44
M  V30 48 1 23 45
M  V30 49 1 24 46
M  V30 50 1 25 47
M  V30 51 1 26 48
M  V30 END BOND
M  V30 END CTAB
M  END
>  <Dataset>  (271) 
ChEMBL_Kinases

>  <Ligand_Instance>  (271) 
nan

>  <PDB_ID>  (271) 
nan

>  <Standardized_SMILES>  (271) 
Cn1ccc2c(NC(=O)Cc3nc(N4CCOCC4)cc(=O)[nH]3)cccc21

>  <Name>  (271) 
nan

>  <Pocket>  (271) 
nan

>  <ATP_Site>  (271) 
nan

>  <Peripheral>  (271) 
nan

>  <Num_H_Atoms_ProtBoundConf>  (271) 
nan

>  <Num_Resolved_Atoms>  (271) 
nan

>  <Num_Not_Resolved_Atoms>  (271) 
nan

$$$$
CHEMBL3696303
     RDKit          3D

  0  0  0  0  0  0  0  0  0  0999 V3000
M  V30 BEGIN CTAB
M  V30 COUNTS 44 46 0 0 0
M  V30 BEGIN ATOM
M  V30 1 C -2.700642 -1.646968 -0.865079 0
M  V30 2 N -1.596471 -2.131178 -0.047149 0
M  V30 3 C -0.392505 -1.566367 -0.254976 0
M  V30 4 C -0.153894 -0.497301 -1.259295 0
M  V30 5 C -0.348387 0.860633 -0.686788 0
M  V30 6 O -0.680373 1.048934 0.525679 0
M  V30 7 N -0.134780 1.940825 -1.599615 0
M  V30 8 C -0.291678 3.290836 -1.165866 0
M  V30 9 C -1.451378 4.047746 -1.199839 0
M  V30 10 C -1.422261 5.346057 -0.736170 0
M  V30 11 F -2.587610 6.042908 -0.792696 0
M  V30 12 C -0.237495 5.876638 -0.243377 0
M  V30 13 F -0.252040 7.164111 0.205189 0
M  V30 14 C 0.918258 5.130567 -0.206617 0
M  V30 15 F 2.056923 5.692349 0.285205 0
M  V30 16 C 0.894450 3.819385 -0.673435 0
M  V30 17 N 0.673932 -1.987541 0.488178 0
M  V30 18 C 0.522708 -2.952397 1.413797 0
M  V30 19 N 1.667175 -3.350432 2.157031 0
M  V30 20 C 2.954603 -2.727849 1.916557 0
M  V30 21 C 3.350733 -2.034281 3.210437 0
M  V30 22 O 2.812640 -2.704138 4.312854 0
M  V30 23 C 2.794193 -4.083065 4.122398 0
M  V30 24 C 1.624916 -4.374044 3.173906 0
M  V30 25 C -0.692189 -3.558136 1.659536 0
M  V30 26 C -1.735224 -3.097200 0.883379 0
M  V30 27 O -2.874246 -3.587167 1.035345 0
M  V30 28 H -3.621466 -2.145963 -0.499033 0
M  V30 29 H -2.594624 -1.909753 -1.934896 0
M  V30 30 H -2.864638 -0.552801 -0.703194 0
M  V30 31 H -0.845319 -0.582936 -2.124216 0
M  V30 32 H 0.891826 -0.547264 -1.650378 0
M  V30 33 H 0.137801 1.777948 -2.594213 0
M  V30 34 H -2.312918 3.520119 -1.608005 0
M  V30 35 H 1.842939 3.306421 -0.608382 0
M  V30 36 H 3.735772 -3.444491 1.593885 0
M  V30 37 H 2.840469 -1.957099 1.130910 0
M  V30 38 H 3.016365 -0.989711 3.162376 0
M  V30 39 H 4.456701 -2.060991 3.271574 0
M  V30 40 H 3.752306 -4.446312 3.709222 0
M  V30 41 H 2.554100 -4.535607 5.109516 0
M  V30 42 H 1.804214 -5.391340 2.758205 0
M  V30 43 H 0.714841 -4.341239 3.807867 0
M  V30 44 H -0.829839 -4.332726 2.397760 0
M  V30 END ATOM
M  V30 BEGIN BOND
M  V30 1 1 1 2
M  V30 2 1 2 3
M  V30 3 1 3 4
M  V30 4 1 4 5
M  V30 5 2 5 6
M  V30 6 1 5 7
M  V30 7 1 7 8
M  V30 8 2 8 9
M  V30 9 1 9 10
M  V30 10 1 10 11
M  V30 11 2 10 12
M  V30 12 1 12 13
M  V30 13 1 12 14
M  V30 14 1 14 15
M  V30 15 2 14 16
M  V30 16 2 3 17
M  V30 17 1 17 18
M  V30 18 1 18 19
M  V30 19 1 19 20
M  V30 20 1 20 21
M  V30 21 1 21 22
M  V30 22 1 22 23
M  V30 23 1 23 24
M  V30 24 2 18 25
M  V30 25 1 25 26
M  V30 26 2 26 27
M  V30 27 1 26 2
M  V30 28 1 16 8
M  V30 29 1 24 19
M  V30 30 1 1 28
M  V30 31 1 1 29
M  V30 32 1 1 30
M  V30 33 1 4 31
M  V30 34 1 4 32
M  V30 35 1 7 33
M  V30 36 1 9 34
M  V30 37 1 16 35
M  V30 38 1 20 36
M  V30 39 1 20 37
M  V30 40 1 21 38
M  V30 41 1 21 39
M  V30 42 1 23 40
M  V30 43 1 23 41
M  V30 44 1 24 42
M  V30 45 1 24 43
M  V30 46 1 25 44
M  V30 END BOND
M  V30 END CTAB
M  END
>  <Dataset>  (272) 
ChEMBL_Kinases

>  <Ligand_Instance>  (272) 
nan

>  <PDB_ID>  (272) 
nan

>  <Standardized_SMILES>  (272) 
Cn1c(CC(=O)Nc2cc(F)c(F)c(F)c2)nc(N2CCOCC2)cc1=O

>  <Name>  (272) 
nan

>  <Pocket>  (272) 
nan

>  <ATP_Site>  (272) 
nan

>  <Peripheral>  (272) 
nan

>  <Num_H_Atoms_ProtBoundConf>  (272) 
nan

>  <Num_Resolved_Atoms>  (272) 
nan

>  <Num_Not_Resolved_Atoms>  (272) 
nan

$$$$
CHEMBL3696302
     RDKit          3D

  0  0  0  0  0  0  0  0  0  0999 V3000
M  V30 BEGIN CTAB
M  V30 COUNTS 47 49 0 0 0
M  V30 BEGIN ATOM
M  V30 1 C 2.188649 -4.780338 1.203274 0
M  V30 2 N 0.920562 -4.060324 1.111715 0
M  V30 3 C 0.918120 -2.980750 0.280947 0
M  V30 4 C 2.093602 -2.522371 -0.459967 0
M  V30 5 C 2.569477 -1.155750 -0.173941 0
M  V30 6 O 3.774303 -0.773227 -0.309286 0
M  V30 7 N 1.764009 -0.105450 0.275894 0
M  V30 8 C 1.882700 1.266187 0.589826 0
M  V30 9 C 1.490524 1.957620 -0.579960 0
M  V30 10 C 1.458503 3.347457 -0.700033 0
M  V30 11 C 1.840644 4.057337 0.414797 0
M  V30 12 F 1.848016 5.424597 0.428314 0
M  V30 13 C 2.222346 3.388801 1.554280 0
M  V30 14 C 2.627309 4.184058 2.738219 0
M  V30 15 F 1.736279 3.899042 3.777846 0
M  V30 16 F 3.901597 3.819211 3.122700 0
M  V30 17 C 2.254058 2.022223 1.672061 0
M  V30 18 N -0.221629 -2.271487 0.127374 0
M  V30 19 C -1.363433 -2.563741 0.748223 0
M  V30 20 N -2.460666 -1.698522 0.474545 0
M  V30 21 C -2.262679 -0.493750 -0.314532 0
M  V30 22 C -2.692893 0.673466 0.567853 0
M  V30 23 O -3.009178 0.240936 1.864999 0
M  V30 24 C -4.071298 -0.673822 1.870435 0
M  V30 25 C -3.842819 -1.811207 0.872175 0
M  V30 26 C -1.373389 -3.649051 1.585132 0
M  V30 27 C -0.222063 -4.384682 1.754507 0
M  V30 28 O -0.172288 -5.394772 2.511192 0
M  V30 29 H 2.072216 -5.645376 1.907716 0
M  V30 30 H 2.440463 -5.242548 0.225727 0
M  V30 31 H 2.987951 -4.155296 1.580810 0
M  V30 32 H 1.821028 -2.558045 -1.547328 0
M  V30 33 H 2.925399 -3.261775 -0.376115 0
M  V30 34 H 0.761144 -0.267989 0.497959 0
M  V30 35 H 1.161431 1.541024 -1.551442 0
M  V30 36 H 1.173559 3.926670 -1.550311 0
M  V30 37 H 2.557330 5.272016 2.500902 0
M  V30 38 H 2.527065 1.406244 2.496785 0
M  V30 39 H -3.026077 -0.538947 -1.154877 0
M  V30 40 H -1.251441 -0.371690 -0.720333 0
M  V30 41 H -1.833189 1.345871 0.673552 0
M  V30 42 H -3.556287 1.203396 0.162579 0
M  V30 43 H -4.091280 -1.121397 2.901694 0
M  V30 44 H -4.990007 -0.109204 1.671115 0
M  V30 45 H -4.508571 -1.643751 -0.004642 0
M  V30 46 H -4.094958 -2.793995 1.316243 0
M  V30 47 H -2.284054 -3.891168 2.082975 0
M  V30 END ATOM
M  V30 BEGIN BOND
M  V30 1 1 1 2
M  V30 2 1 2 3
M  V30 3 1 3 4
M  V30 4 1 4 5
M  V30 5 2 5 6
M  V30 6 1 5 7
M  V30 7 1 7 8
M  V30 8 2 8 9
M  V30 9 1 9 10
M  V30 10 2 10 11
M  V30 11 1 11 12
M  V30 12 1 11 13
M  V30 13 1 13 14
M  V30 14 1 14 15
M  V30 15 1 14 16
M  V30 16 2 13 17
M  V30 17 2 3 18
M  V30 18 1 18 19
M  V30 19 1 19 20
M  V30 20 1 20 21
M  V30 21 1 21 22
M  V30 22 1 22 23
M  V30 23 1 23 24
M  V30 24 1 24 25
M  V30 25 2 19 26
M  V30 26 1 26 27
M  V30 27 2 27 28
M  V30 28 1 27 2
M  V30 29 1 17 8
M  V30 30 1 25 20
M  V30 31 1 1 29
M  V30 32 1 1 30
M  V30 33 1 1 31
M  V30 34 1 4 32
M  V30 35 1 4 33
M  V30 36 1 7 34
M  V30 37 1 9 35
M  V30 38 1 10 36
M  V30 39 1 14 37
M  V30 40 1 17 38
M  V30 41 1 21 39
M  V30 42 1 21 40
M  V30 43 1 22 41
M  V30 44 1 22 42
M  V30 45 1 24 43
M  V30 46 1 24 44
M  V30 47 1 25 45
M  V30 48 1 25 46
M  V30 49 1 26 47
M  V30 END BOND
M  V30 END CTAB
M  END
>  <Dataset>  (273) 
ChEMBL_Kinases

>  <Ligand_Instance>  (273) 
nan

>  <PDB_ID>  (273) 
nan

>  <Standardized_SMILES>  (273) 
Cn1c(CC(=O)Nc2ccc(F)c(C(F)F)c2)nc(N2CCOCC2)cc1=O

>  <Name>  (273) 
nan

>  <Pocket>  (273) 
nan

>  <ATP_Site>  (273) 
nan

>  <Peripheral>  (273) 
nan

>  <Num_H_Atoms_ProtBoundConf>  (273) 
nan

>  <Num_Resolved_Atoms>  (273) 
nan

>  <Num_Not_Resolved_Atoms>  (273) 
nan

$$$$
CHEMBL3696284
     RDKit          3D

  0  0  0  0  0  0  0  0  0  0999 V3000
M  V30 BEGIN CTAB
M  V30 COUNTS 60 63 0 0 0
M  V30 BEGIN ATOM
M  V30 1 C 6.700838 2.635588 -1.143837 0
M  V30 2 C 6.467944 1.211715 -0.775135 0
M  V30 3 C 7.712483 0.657537 -0.114023 0
M  V30 4 C 6.252026 0.355475 -2.021586 0
M  V30 5 O 5.390173 1.030315 0.121547 0
M  V30 6 C 4.082870 1.400367 -0.139259 0
M  V30 7 O 3.986662 1.916614 -1.293386 0
M  V30 8 N 2.992324 1.227719 0.760339 0
M  V30 9 C 3.050189 0.688425 1.994638 0
M  V30 10 C 1.765841 0.727015 2.482409 0
M  V30 11 C 0.976942 1.285347 1.529465 0
M  V30 12 C -0.377068 1.514257 1.594047 0
M  V30 13 N -1.263576 1.238277 2.663136 0
M  V30 14 C -1.821348 -0.042887 2.653724 0
M  V30 15 O -1.737877 -1.083094 1.901138 0
M  V30 16 C -2.723938 -1.038228 3.292355 0
M  V30 17 C -2.708031 -2.284439 2.482312 0
M  V30 18 N -3.680129 -2.405332 1.532310 0
M  V30 19 C -3.757646 -3.487105 0.739838 0
M  V30 20 N -4.798408 -3.554131 -0.225674 0
M  V30 21 C -5.776992 -2.484746 -0.275956 0
M  V30 22 C -7.132368 -3.152624 -0.015406 0
M  V30 23 O -7.039051 -4.539111 -0.110915 0
M  V30 24 C -6.431328 -4.896327 -1.332745 0
M  V30 25 C -4.938318 -4.641492 -1.172934 0
M  V30 26 C -2.804644 -4.438616 0.955664 0
M  V30 27 C -1.810527 -4.369545 1.891792 0
M  V30 28 O -0.940792 -5.243645 2.087696 0
M  V30 29 N -1.770763 -3.261944 2.667316 0
M  V30 30 C -0.999174 2.096300 0.502915 0
M  V30 31 C -0.280062 2.446845 -0.638589 0
M  V30 32 C 1.071694 2.177642 -0.607406 0
M  V30 33 C 1.749788 1.603567 0.438953 0
M  V30 34 H 6.040705 3.315583 -0.569478 0
M  V30 35 H 7.737566 2.925180 -0.894122 0
M  V30 36 H 6.568628 2.842166 -2.247100 0
M  V30 37 H 8.421905 0.239975 -0.875652 0
M  V30 38 H 7.513786 -0.193040 0.568290 0
M  V30 39 H 8.244290 1.430896 0.479495 0
M  V30 40 H 5.664000 0.964316 -2.725858 0
M  V30 41 H 5.641145 -0.527901 -1.674031 0
M  V30 42 H 7.239111 0.069080 -2.399293 0
M  V30 43 H 3.974957 0.321562 2.437236 0
M  V30 44 H 1.487989 0.363092 3.460011 0
M  V30 45 H -1.720164 1.602764 3.523529 0
M  V30 46 H -3.759242 -0.665936 3.394360 0
M  V30 47 H -2.292600 -1.294481 4.304786 0
M  V30 48 H -5.783330 -1.933959 -1.233058 0
M  V30 49 H -5.603832 -1.768719 0.574063 0
M  V30 50 H -7.874129 -2.796618 -0.764329 0
M  V30 51 H -7.515280 -2.896735 0.988035 0
M  V30 52 H -6.680607 -5.920586 -1.618504 0
M  V30 53 H -6.808147 -4.135749 -2.071907 0
M  V30 54 H -4.415795 -5.562814 -0.867298 0
M  V30 55 H -4.570568 -4.293412 -2.183341 0
M  V30 56 H -2.815227 -5.326530 0.351580 0
M  V30 57 H -1.083197 -3.041583 3.424848 0
M  V30 58 H -2.065347 2.319151 0.454055 0
M  V30 59 H -0.696438 2.901846 -1.522458 0
M  V30 60 H 1.698762 2.427746 -1.473736 0
M  V30 END ATOM
M  V30 BEGIN BOND
M  V30 1 1 1 2
M  V30 2 1 2 3
M  V30 3 1 2 4
M  V30 4 1 2 5
M  V30 5 1 5 6
M  V30 6 2 6 7
M  V30 7 1 6 8
M  V30 8 1 8 9
M  V30 9 2 9 10
M  V30 10 1 10 11
M  V30 11 2 11 12
M  V30 12 1 12 13
M  V30 13 1 13 14
M  V30 14 2 14 15
M  V30 15 1 14 16
M  V30 16 1 16 17
M  V30 17 2 17 18
M  V30 18 1 18 19
M  V30 19 1 19 20
M  V30 20 1 20 21
M  V30 21 1 21 22
M  V30 22 1 22 23
M  V30 23 1 23 24
M  V30 24 1 24 25
M  V30 25 2 19 26
M  V30 26 1 26 27
M  V30 27 2 27 28
M  V30 28 1 27 29
M  V30 29 1 12 30
M  V30 30 2 30 31
M  V30 31 1 31 32
M  V30 32 2 32 33
M  V30 33 1 33 8
M  V30 34 1 33 11
M  V30 35 1 29 17
M  V30 36 1 25 20
M  V30 37 1 1 34
M  V30 38 1 1 35
M  V30 39 1 1 36
M  V30 40 1 3 37
M  V30 41 1 3 38
M  V30 42 1 3 39
M  V30 43 1 4 40
M  V30 44 1 4 41
M  V30 45 1 4 42
M  V30 46 1 9 43
M  V30 47 1 10 44
M  V30 48 1 13 45
M  V30 49 1 16 46
M  V30 50 1 16 47
M  V30 51 1 21 48
M  V30 52 1 21 49
M  V30 53 1 22 50
M  V30 54 1 22 51
M  V30 55 1 24 52
M  V30 56 1 24 53
M  V30 57 1 25 54
M  V30 58 1 25 55
M  V30 59 1 26 56
M  V30 60 1 29 57
M  V30 61 1 30 58
M  V30 62 1 31 59
M  V30 63 1 32 60
M  V30 END BOND
M  V30 END CTAB
M  END
>  <Dataset>  (274) 
ChEMBL_Kinases

>  <Ligand_Instance>  (274) 
nan

>  <PDB_ID>  (274) 
nan

>  <Standardized_SMILES>  (274) 
CC(C)(C)OC(=O)n1ccc2c(NC(=O)Cc3nc(N4CCOCC4)cc(=O)[nH]3)cccc21

>  <Name>  (274) 
nan

>  <Pocket>  (274) 
nan

>  <ATP_Site>  (274) 
nan

>  <Peripheral>  (274) 
nan

>  <Num_H_Atoms_ProtBoundConf>  (274) 
nan

>  <Num_Resolved_Atoms>  (274) 
nan

>  <Num_Not_Resolved_Atoms>  (274) 
nan

$$$$
CHEMBL3696285
     RDKit          3D

  0  0  0  0  0  0  0  0  0  0999 V3000
M  V30 BEGIN CTAB
M  V30 COUNTS 50 52 0 0 0
M  V30 BEGIN ATOM
M  V30 1 C 2.855252 -1.410102 3.634103 0
M  V30 2 C 1.701306 -1.885168 2.771398 0
M  V30 3 C 0.405344 -1.240474 3.182987 0
M  V30 4 C 2.037133 -1.721348 1.306327 0
M  V30 5 C 2.306384 -0.295577 0.962013 0
M  V30 6 O 3.488864 0.100135 0.674877 0
M  V30 7 N 1.358798 0.736119 0.909762 0
M  V30 8 C 1.794581 2.042519 0.562743 0
M  V30 9 C 2.170681 2.789587 1.671439 0
M  V30 10 C 2.622172 4.088093 1.515216 0
M  V30 11 C 2.719579 4.693999 0.275492 0
M  V30 12 F 3.162047 5.968941 0.113562 0
M  V30 13 C 2.338029 3.923211 -0.801474 0
M  V30 14 C 1.883070 2.626881 -0.689061 0
M  V30 15 C 1.044301 -2.362336 0.423900 0
M  V30 16 N -0.222435 -1.965847 0.220277 0
M  V30 17 C -1.117453 -2.532636 -0.566459 0
M  V30 18 N -2.413662 -1.956619 -0.645514 0
M  V30 19 C -2.714986 -0.771161 0.133319 0
M  V30 20 C -3.934606 -0.083321 -0.434163 0
M  V30 21 O -5.027092 -0.909563 -0.490174 0
M  V30 22 C -4.770766 -2.239680 -0.709297 0
M  V30 23 C -3.470800 -2.494021 -1.473472 0
M  V30 24 C -0.764672 -3.656956 -1.279333 0
M  V30 25 C 0.507046 -4.129040 -1.131101 0
M  V30 26 O 0.860416 -5.143730 -1.760518 0
M  V30 27 N 1.323947 -3.461934 -0.299342 0
M  V30 28 H 3.784963 -1.614812 3.072998 0
M  V30 29 H 2.695363 -0.318449 3.772777 0
M  V30 30 H 2.849202 -1.882908 4.628801 0
M  V30 31 H 1.559136 -2.980914 2.939866 0
M  V30 32 H 0.638513 -0.172513 3.396905 0
M  V30 33 H -0.406469 -1.314968 2.463926 0
M  V30 34 H 0.100123 -1.723534 4.144417 0
M  V30 35 H 3.003033 -2.287473 1.137353 0
M  V30 36 H 0.364254 0.508067 1.125345 0
M  V30 37 H 2.142851 2.434433 2.699478 0
M  V30 38 H 2.927187 4.708923 2.358713 0
M  V30 39 H 2.386539 4.329308 -1.805362 0
M  V30 40 H 1.574336 1.982530 -1.483791 0
M  V30 41 H -2.770860 -0.975354 1.200310 0
M  V30 42 H -1.834214 -0.084088 -0.028647 0
M  V30 43 H -3.659396 0.272007 -1.450642 0
M  V30 44 H -4.132463 0.785735 0.221343 0
M  V30 45 H -5.613495 -2.622709 -1.340354 0
M  V30 46 H -4.770882 -2.851805 0.206080 0
M  V30 47 H -3.528646 -1.934130 -2.425292 0
M  V30 48 H -3.387570 -3.579676 -1.583743 0
M  V30 49 H -1.456061 -4.141787 -1.922718 0
M  V30 50 H 2.293597 -3.887293 -0.236006 0
M  V30 END ATOM
M  V30 BEGIN BOND
M  V30 1 1 1 2
M  V30 2 1 2 3
M  V30 3 1 2 4
M  V30 4 1 4 5
M  V30 5 2 5 6
M  V30 6 1 5 7
M  V30 7 1 7 8
M  V30 8 2 8 9
M  V30 9 1 9 10
M  V30 10 2 10 11
M  V30 11 1 11 12
M  V30 12 1 11 13
M  V30 13 2 13 14
M  V30 14 1 4 15
M  V30 15 2 15 16
M  V30 16 1 16 17
M  V30 17 1 17 18
M  V30 18 1 18 19
M  V30 19 1 19 20
M  V30 20 1 20 21
M  V30 21 1 21 22
M  V30 22 1 22 23
M  V30 23 2 17 24
M  V30 24 1 24 25
M  V30 25 2 25 26
M  V30 26 1 25 27
M  V30 27 1 14 8
M  V30 28 1 27 15
M  V30 29 1 23 18
M  V30 30 1 1 28
M  V30 31 1 1 29
M  V30 32 1 1 30
M  V30 33 1 2 31
M  V30 34 1 3 32
M  V30 35 1 3 33
M  V30 36 1 3 34
M  V30 37 1 4 35
M  V30 38 1 7 36
M  V30 39 1 9 37
M  V30 40 1 10 38
M  V30 41 1 13 39
M  V30 42 1 14 40
M  V30 43 1 19 41
M  V30 44 1 19 42
M  V30 45 1 20 43
M  V30 46 1 20 44
M  V30 47 1 22 45
M  V30 48 1 22 46
M  V30 49 1 23 47
M  V30 50 1 23 48
M  V30 51 1 24 49
M  V30 52 1 27 50
M  V30 END BOND
M  V30 END CTAB
M  END
>  <Dataset>  (275) 
ChEMBL_Kinases

>  <Ligand_Instance>  (275) 
nan

>  <PDB_ID>  (275) 
nan

>  <Standardized_SMILES>  (275) 
CC(C)C(C(=O)Nc1ccc(F)cc1)c1nc(N2CCOCC2)cc(=O)[nH]1

>  <Name>  (275) 
nan

>  <Pocket>  (275) 
nan

>  <ATP_Site>  (275) 
nan

>  <Peripheral>  (275) 
nan

>  <Num_H_Atoms_ProtBoundConf>  (275) 
nan

>  <Num_Resolved_Atoms>  (275) 
nan

>  <Num_Not_Resolved_Atoms>  (275) 
nan

$$$$
CHEMBL3696286
     RDKit          3D

  0  0  0  0  0  0  0  0  0  0999 V3000
M  V30 BEGIN CTAB
M  V30 COUNTS 48 50 0 0 0
M  V30 BEGIN ATOM
M  V30 1 C -0.199487 -5.091269 3.376941 0
M  V30 2 O 0.974150 -4.838930 2.729250 0
M  V30 3 C 1.050446 -5.149680 1.404112 0
M  V30 4 C 0.069157 -4.464017 0.525155 0
M  V30 5 C 0.472091 -3.317458 -0.109370 0
M  V30 6 C -0.353457 -2.550864 -0.921706 0
M  V30 7 N 0.179612 -1.370919 -1.502337 0
M  V30 8 C -0.436643 -0.361275 -2.268623 0
M  V30 9 O -1.660921 -0.504292 -2.500323 0
M  V30 10 C 0.381144 0.812831 -2.753207 0
M  V30 11 C -0.119800 2.001611 -1.953050 0
M  V30 12 N 0.153831 1.729692 -0.643446 0
M  V30 13 C -0.127672 2.531677 0.372914 0
M  V30 14 N 0.185521 2.145790 1.722794 0
M  V30 15 C -0.099209 2.779679 2.973581 0
M  V30 16 C 1.157242 3.065208 3.774619 0
M  V30 17 O 2.170696 2.154785 3.465598 0
M  V30 18 C 1.628918 0.889686 3.260298 0
M  V30 19 C 0.911024 0.908791 1.938393 0
M  V30 20 C -0.741050 3.725418 0.059864 0
M  V30 21 C -1.006985 3.979638 -1.265263 0
M  V30 22 O -1.567413 5.049454 -1.657584 0
M  V30 23 N -0.716765 3.158973 -2.273822 0
M  V30 24 C -1.620064 -3.058088 -1.029544 0
M  V30 25 C -2.079721 -4.185175 -0.429690 0
M  V30 26 C -1.220950 -4.902000 0.361864 0
M  V30 27 F -1.678209 -6.026451 0.940457 0
M  V30 28 H -0.038246 -4.762138 4.444149 0
M  V30 29 H -1.016734 -4.435991 2.969458 0
M  V30 30 H -0.548491 -6.136555 3.349789 0
M  V30 31 H 0.871730 -6.270677 1.338651 0
M  V30 32 H 2.096316 -5.033654 1.064407 0
M  V30 33 H 1.500924 -3.004774 0.041952 0
M  V30 34 H 1.213039 -1.198029 -1.350411 0
M  V30 35 H 1.423273 0.641294 -2.517749 0
M  V30 36 H 0.237424 0.960053 -3.827826 0
M  V30 37 H -0.715869 2.045906 3.572255 0
M  V30 38 H -0.710820 3.679878 2.909914 0
M  V30 39 H 1.001931 3.015510 4.866295 0
M  V30 40 H 1.568462 4.067697 3.543215 0
M  V30 41 H 0.956224 0.561375 4.071602 0
M  V30 42 H 2.507733 0.181942 3.156005 0
M  V30 43 H 0.239742 0.034965 1.807065 0
M  V30 44 H 1.693002 0.783284 1.143751 0
M  V30 45 H -0.996651 4.425981 0.822846 0
M  V30 46 H -0.846030 3.197165 -3.300660 0
M  V30 47 H -2.317877 -2.513388 -1.647044 0
M  V30 48 H -3.080544 -4.519870 -0.560809 0
M  V30 END ATOM
M  V30 BEGIN BOND
M  V30 1 1 1 2
M  V30 2 1 2 3
M  V30 3 1 3 4
M  V30 4 2 4 5
M  V30 5 1 5 6
M  V30 6 1 6 7
M  V30 7 1 7 8
M  V30 8 2 8 9
M  V30 9 1 8 10
M  V30 10 1 10 11
M  V30 11 2 11 12
M  V30 12 1 12 13
M  V30 13 1 13 14
M  V30 14 1 14 15
M  V30 15 1 15 16
M  V30 16 1 16 17
M  V30 17 1 17 18
M  V30 18 1 18 19
M  V30 19 2 13 20
M  V30 20 1 20 21
M  V30 21 2 21 22
M  V30 22 1 21 23
M  V30 23 2 6 24
M  V30 24 1 24 25
M  V30 25 2 25 26
M  V30 26 1 26 27
M  V30 27 1 26 4
M  V30 28 1 23 11
M  V30 29 1 19 14
M  V30 30 1 1 28
M  V30 31 1 1 29
M  V30 32 1 1 30
M  V30 33 1 3 31
M  V30 34 1 3 32
M  V30 35 1 5 33
M  V30 36 1 7 34
M  V30 37 1 10 35
M  V30 38 1 10 36
M  V30 39 1 15 37
M  V30 40 1 15 38
M  V30 41 1 16 39
M  V30 42 1 16 40
M  V30 43 1 18 41
M  V30 44 1 18 42
M  V30 45 1 19 43
M  V30 46 1 19 44
M  V30 47 1 20 45
M  V30 48 1 23 46
M  V30 49 1 24 47
M  V30 50 1 25 48
M  V30 END BOND
M  V30 END CTAB
M  END
>  <Dataset>  (276) 
ChEMBL_Kinases

>  <Ligand_Instance>  (276) 
nan

>  <PDB_ID>  (276) 
nan

>  <Standardized_SMILES>  (276) 
COCc1cc(NC(=O)Cc2nc(N3CCOCC3)cc(=O)[nH]2)ccc1F

>  <Name>  (276) 
nan

>  <Pocket>  (276) 
nan

>  <ATP_Site>  (276) 
nan

>  <Peripheral>  (276) 
nan

>  <Num_H_Atoms_ProtBoundConf>  (276) 
nan

>  <Num_Resolved_Atoms>  (276) 
nan

>  <Num_Not_Resolved_Atoms>  (276) 
nan

$$$$
CHEMBL3696287
     RDKit          3D

  0  0  0  0  0  0  0  0  0  0999 V3000
M  V30 BEGIN CTAB
M  V30 COUNTS 41 43 0 0 0
M  V30 BEGIN ATOM
M  V30 1 O -0.155096 -0.388683 2.336962 0
M  V30 2 C -0.239462 -1.530803 2.850990 0
M  V30 3 C 1.158762 -1.809524 2.437946 0
M  V30 4 C 1.775337 -0.684979 1.729434 0
M  V30 5 N 1.662888 -0.611512 0.370185 0
M  V30 6 C 2.205839 0.391854 -0.321340 0
M  V30 7 N 2.061902 0.425168 -1.735417 0
M  V30 8 C 1.339388 -0.603040 -2.462348 0
M  V30 9 C 2.351260 -1.238548 -3.407852 0
M  V30 10 O 3.169047 -0.289922 -3.980671 0
M  V30 11 C 2.611145 0.976454 -3.980608 0
M  V30 12 C 2.631521 1.493661 -2.535862 0
M  V30 13 C 2.908301 1.408736 0.285976 0
M  V30 14 C 3.015528 1.322136 1.670114 0
M  V30 15 O 3.653230 2.231963 2.292314 0
M  V30 16 N 2.458128 0.303471 2.319397 0
M  V30 17 N -1.019418 -2.469253 3.543080 0
M  V30 18 C -2.332383 -1.966541 3.829327 0
M  V30 19 C -2.594199 -1.279192 5.006093 0
M  V30 20 C -3.882453 -0.813500 5.234253 0
M  V30 21 C -4.870612 -1.037578 4.300670 0
M  V30 22 F -6.104002 -0.555961 4.587303 0
M  V30 23 C -4.600104 -1.721994 3.133970 0
M  V30 24 I -6.220484 -1.978105 1.815774 0
M  V30 25 C -3.324974 -2.190175 2.894303 0
M  V30 26 H 1.111333 -2.675782 1.746347 0
M  V30 27 H 1.805820 -2.091616 3.295916 0
M  V30 28 H 0.984988 -1.349056 -1.706378 0
M  V30 29 H 0.458345 -0.197867 -3.003127 0
M  V30 30 H 2.980125 -1.907038 -2.780670 0
M  V30 31 H 1.854443 -1.896294 -4.146860 0
M  V30 32 H 1.571346 0.886275 -4.325039 0
M  V30 33 H 3.151940 1.642661 -4.672990 0
M  V30 34 H 1.915391 2.350275 -2.514093 0
M  V30 35 H 3.641427 1.785583 -2.234492 0
M  V30 36 H 3.364130 2.237949 -0.224382 0
M  V30 37 H 2.553613 0.262815 3.357231 0
M  V30 38 H -0.539981 -3.371909 3.741991 0
M  V30 39 H -1.749118 -1.156421 5.673107 0
M  V30 40 H -4.056271 -0.274281 6.173550 0
M  V30 41 H -3.153785 -2.725477 1.960983 0
M  V30 END ATOM
M  V30 BEGIN BOND
M  V30 1 2 1 2
M  V30 2 1 2 3
M  V30 3 1 3 4
M  V30 4 2 4 5
M  V30 5 1 5 6
M  V30 6 1 6 7
M  V30 7 1 7 8
M  V30 8 1 8 9
M  V30 9 1 9 10
M  V30 10 1 10 11
M  V30 11 1 11 12
M  V30 12 2 6 13
M  V30 13 1 13 14
M  V30 14 2 14 15
M  V30 15 1 14 16
M  V30 16 1 2 17
M  V30 17 1 17 18
M  V30 18 2 18 19
M  V30 19 1 19 20
M  V30 20 2 20 21
M  V30 21 1 21 22
M  V30 22 1 21 23
M  V30 23 1 23 24
M  V30 24 2 23 25
M  V30 25 1 16 4
M  V30 26 1 25 18
M  V30 27 1 12 7
M  V30 28 1 3 26
M  V30 29 1 3 27
M  V30 30 1 8 28
M  V30 31 1 8 29
M  V30 32 1 9 30
M  V30 33 1 9 31
M  V30 34 1 11 32
M  V30 35 1 11 33
M  V30 36 1 12 34
M  V30 37 1 12 35
M  V30 38 1 13 36
M  V30 39 1 16 37
M  V30 40 1 17 38
M  V30 41 1 19 39
M  V30 42 1 20 40
M  V30 43 1 25 41
M  V30 END BOND
M  V30 END CTAB
M  END
>  <Dataset>  (277) 
ChEMBL_Kinases

>  <Ligand_Instance>  (277) 
nan

>  <PDB_ID>  (277) 
nan

>  <Standardized_SMILES>  (277) 
O=C(Cc1nc(N2CCOCC2)cc(=O)[nH]1)Nc1ccc(F)c(I)c1

>  <Name>  (277) 
nan

>  <Pocket>  (277) 
nan

>  <ATP_Site>  (277) 
nan

>  <Peripheral>  (277) 
nan

>  <Num_H_Atoms_ProtBoundConf>  (277) 
nan

>  <Num_Resolved_Atoms>  (277) 
nan

>  <Num_Not_Resolved_Atoms>  (277) 
nan

$$$$
CHEMBL3696288
     RDKit          3D

  0  0  0  0  0  0  0  0  0  0999 V3000
M  V30 BEGIN CTAB
M  V30 COUNTS 48 50 0 0 0
M  V30 BEGIN ATOM
M  V30 1 O -0.022983 -0.826369 0.832146 0
M  V30 2 C -0.500460 -0.791557 1.996220 0
M  V30 3 C 0.676344 -0.189858 2.719291 0
M  V30 4 C 1.793671 0.077196 1.814109 0
M  V30 5 N 1.900057 1.240894 1.197020 0
M  V30 6 C 2.888287 1.571529 0.352246 0
M  V30 7 N 2.896927 2.857633 -0.253516 0
M  V30 8 C 3.881926 3.373860 -1.185557 0
M  V30 9 C 3.102330 3.655502 -2.472958 0
M  V30 10 O 1.756343 3.446151 -2.356286 0
M  V30 11 C 1.128510 4.034742 -1.290506 0
M  V30 12 C 1.842052 3.809862 0.042928 0
M  V30 13 C 3.879771 0.649446 0.089431 0
M  V30 14 C 3.772409 -0.585319 0.740354 0
M  V30 15 O 4.638561 -1.449098 0.538006 0
M  V30 16 N 2.759827 -0.838556 1.566060 0
M  V30 17 N -1.679843 -1.123264 2.688971 0
M  V30 18 C -2.675148 -1.678465 1.835965 0
M  V30 19 C -3.637787 -1.002367 1.156241 0
M  V30 20 C -4.542235 -1.675568 0.360799 0
M  V30 21 C -4.451571 -3.071550 0.265367 0
M  V30 22 C -3.462555 -3.784740 0.961706 0
M  V30 23 O -3.617612 -5.103910 0.680506 0
M  V30 24 C -2.904466 -6.209500 1.138538 0
M  V30 25 F -3.390549 -7.389435 0.559768 0
M  V30 26 F -1.573953 -6.056239 0.867126 0
M  V30 27 C -3.058003 -6.447194 2.636313 0
M  V30 28 F -2.298441 -7.569111 2.931593 0
M  V30 29 F -4.370435 -6.636064 2.954688 0
M  V30 30 C -2.600779 -3.046062 1.730869 0
M  V30 31 H 1.005529 -0.960945 3.454927 0
M  V30 32 H 0.334371 0.703976 3.263274 0
M  V30 33 H 4.740899 2.724464 -1.349718 0
M  V30 34 H 4.212426 4.395322 -0.834505 0
M  V30 35 H 3.480147 2.889772 -3.211817 0
M  V30 36 H 3.377896 4.622416 -2.915887 0
M  V30 37 H 0.138048 3.501523 -1.189667 0
M  V30 38 H 0.864755 5.094856 -1.412684 0
M  V30 39 H 1.172864 3.394481 0.813547 0
M  V30 40 H 2.275237 4.782590 0.395770 0
M  V30 41 H 4.691387 0.846803 -0.569837 0
M  V30 42 H 2.671520 -1.759209 2.057173 0
M  V30 43 H -1.670159 -0.923506 3.712355 0
M  V30 44 H -3.651499 0.069602 1.273868 0
M  V30 45 H -5.267745 -1.057847 -0.138737 0
M  V30 46 H -5.234274 -3.439436 -0.397346 0
M  V30 47 H -2.649259 -5.634827 3.226891 0
M  V30 48 H -1.878315 -3.659829 2.219680 0
M  V30 END ATOM
M  V30 BEGIN BOND
M  V30 1 2 1 2
M  V30 2 1 2 3
M  V30 3 1 3 4
M  V30 4 2 4 5
M  V30 5 1 5 6
M  V30 6 1 6 7
M  V30 7 1 7 8
M  V30 8 1 8 9
M  V30 9 1 9 10
M  V30 10 1 10 11
M  V30 11 1 11 12
M  V30 12 2 6 13
M  V30 13 1 13 14
M  V30 14 2 14 15
M  V30 15 1 14 16
M  V30 16 1 2 17
M  V30 17 1 17 18
M  V30 18 2 18 19
M  V30 19 1 19 20
M  V30 20 2 20 21
M  V30 21 1 21 22
M  V30 22 1 22 23
M  V30 23 1 23 24
M  V30 24 1 24 25
M  V30 25 1 24 26
M  V30 26 1 24 27
M  V30 27 1 27 28
M  V30 28 1 27 29
M  V30 29 2 22 30
M  V30 30 1 16 4
M  V30 31 1 30 18
M  V30 32 1 12 7
M  V30 33 1 3 31
M  V30 34 1 3 32
M  V30 35 1 8 33
M  V30 36 1 8 34
M  V30 37 1 9 35
M  V30 38 1 9 36
M  V30 39 1 11 37
M  V30 40 1 11 38
M  V30 41 1 12 39
M  V30 42 1 12 40
M  V30 43 1 13 41
M  V30 44 1 16 42
M  V30 45 1 17 43
M  V30 46 1 19 44
M  V30 47 1 20 45
M  V30 48 1 21 46
M  V30 49 1 27 47
M  V30 50 1 30 48
M  V30 END BOND
M  V30 END CTAB
M  END
>  <Dataset>  (278) 
ChEMBL_Kinases

>  <Ligand_Instance>  (278) 
nan

>  <PDB_ID>  (278) 
nan

>  <Standardized_SMILES>  (278) 
O=C(Cc1nc(N2CCOCC2)cc(=O)[nH]1)Nc1cccc(OC(F)(F)C(F)F)c1

>  <Name>  (278) 
nan

>  <Pocket>  (278) 
nan

>  <ATP_Site>  (278) 
nan

>  <Peripheral>  (278) 
nan

>  <Num_H_Atoms_ProtBoundConf>  (278) 
nan

>  <Num_Resolved_Atoms>  (278) 
nan

>  <Num_Not_Resolved_Atoms>  (278) 
nan

$$$$
CHEMBL3696289
     RDKit          3D

  0  0  0  0  0  0  0  0  0  0999 V3000
M  V30 BEGIN CTAB
M  V30 COUNTS 44 46 0 0 0
M  V30 BEGIN ATOM
M  V30 1 O 1.172598 -3.130786 3.394558 0
M  V30 2 C 0.927426 -1.901751 3.328679 0
M  V30 3 C 1.678932 -0.909053 4.181496 0
M  V30 4 C 1.779415 0.379035 3.391374 0
M  V30 5 N 1.832176 0.244857 2.056586 0
M  V30 6 C 1.904923 1.289423 1.190103 0
M  V30 7 N 1.898500 0.799289 -0.169966 0
M  V30 8 C 0.581226 0.876911 -0.800455 0
M  V30 9 C 0.717000 1.797922 -1.990688 0
M  V30 10 O 2.034544 2.097187 -2.304080 0
M  V30 11 C 2.817030 0.935635 -2.375771 0
M  V30 12 C 2.943332 0.241088 -1.035021 0
M  V30 13 C 1.928643 2.560799 1.729715 0
M  V30 14 C 1.875036 2.675554 3.082789 0
M  V30 15 O 1.896394 3.834191 3.550286 0
M  V30 16 N 1.801792 1.624427 3.910007 0
M  V30 17 N -0.064824 -1.405253 2.436549 0
M  V30 18 C -0.934918 -2.036299 1.508744 0
M  V30 19 C -0.190451 -2.760343 0.590320 0
M  V30 20 C -0.781212 -3.449798 -0.451907 0
M  V30 21 C -2.171825 -3.413717 -0.578487 0
M  V30 22 F -2.803710 -4.067124 -1.571242 0
M  V30 23 C -2.887313 -2.694816 0.336898 0
M  V30 24 C -4.346500 -2.639877 0.189233 0
M  V30 25 F -4.879103 -3.923577 0.308448 0
M  V30 26 F -4.662606 -2.091473 -1.049634 0
M  V30 27 C -2.289206 -1.996895 1.390024 0
M  V30 28 H 2.699868 -1.280231 4.328770 0
M  V30 29 H 1.142090 -0.770239 5.116880 0
M  V30 30 H -0.166478 1.216887 -0.081195 0
M  V30 31 H 0.353436 -0.149529 -1.168172 0
M  V30 32 H 0.244793 1.369030 -2.889719 0
M  V30 33 H 0.197571 2.744220 -1.735937 0
M  V30 34 H 2.288284 0.289641 -3.113829 0
M  V30 35 H 3.812602 1.257608 -2.739412 0
M  V30 36 H 3.935063 0.357573 -0.597979 0
M  V30 37 H 2.676973 -0.852010 -1.143857 0
M  V30 38 H 1.988124 3.303262 0.957704 0
M  V30 39 H 1.759556 1.678359 4.934507 0
M  V30 40 H -0.350987 -0.407436 2.312624 0
M  V30 41 H 0.892781 -2.895228 0.554206 0
M  V30 42 H -0.279418 -4.038346 -1.211750 0
M  V30 43 H -4.794501 -2.019855 0.972616 0
M  V30 44 H -2.779171 -1.410080 2.133572 0
M  V30 END ATOM
M  V30 BEGIN BOND
M  V30 1 2 1 2
M  V30 2 1 2 3
M  V30 3 1 3 4
M  V30 4 2 4 5
M  V30 5 1 5 6
M  V30 6 1 6 7
M  V30 7 1 7 8
M  V30 8 1 8 9
M  V30 9 1 9 10
M  V30 10 1 10 11
M  V30 11 1 11 12
M  V30 12 2 6 13
M  V30 13 1 13 14
M  V30 14 2 14 15
M  V30 15 1 14 16
M  V30 16 1 2 17
M  V30 17 1 17 18
M  V30 18 2 18 19
M  V30 19 1 19 20
M  V30 20 2 20 21
M  V30 21 1 21 22
M  V30 22 1 21 23
M  V30 23 1 23 24
M  V30 24 1 24 25
M  V30 25 1 24 26
M  V30 26 2 23 27
M  V30 27 1 16 4
M  V30 28 1 27 18
M  V30 29 1 12 7
M  V30 30 1 3 28
M  V30 31 1 3 29
M  V30 32 1 8 30
M  V30 33 1 8 31
M  V30 34 1 9 32
M  V30 35 1 9 33
M  V30 36 1 11 34
M  V30 37 1 11 35
M  V30 38 1 12 36
M  V30 39 1 12 37
M  V30 40 1 13 38
M  V30 41 1 16 39
M  V30 42 1 17 40
M  V30 43 1 19 41
M  V30 44 1 20 42
M  V30 45 1 24 43
M  V30 46 1 27 44
M  V30 END BOND
M  V30 END CTAB
M  END
>  <Dataset>  (279) 
ChEMBL_Kinases

>  <Ligand_Instance>  (279) 
nan

>  <PDB_ID>  (279) 
nan

>  <Standardized_SMILES>  (279) 
O=C(Cc1nc(N2CCOCC2)cc(=O)[nH]1)Nc1ccc(F)c(C(F)F)c1

>  <Name>  (279) 
nan

>  <Pocket>  (279) 
nan

>  <ATP_Site>  (279) 
nan

>  <Peripheral>  (279) 
nan

>  <Num_H_Atoms_ProtBoundConf>  (279) 
nan

>  <Num_Resolved_Atoms>  (279) 
nan

>  <Num_Not_Resolved_Atoms>  (279) 
nan

$$$$
CHEMBL3696290
     RDKit          3D

  0  0  0  0  0  0  0  0  0  0999 V3000
M  V30 BEGIN CTAB
M  V30 COUNTS 41 43 0 0 0
M  V30 BEGIN ATOM
M  V30 1 O 3.043019 -0.576344 2.101350 0
M  V30 2 C 2.209398 -1.539024 1.932441 0
M  V30 3 N 2.853194 -2.602902 1.265394 0
M  V30 4 C 4.218428 -2.546460 0.863922 0
M  V30 5 C 5.287859 -2.957787 1.653648 0
M  V30 6 C 6.568762 -2.852182 1.149376 0
M  V30 7 C 6.801542 -2.347651 -0.118700 0
M  V30 8 F 8.053676 -2.240235 -0.621660 0
M  V30 9 C 5.723537 -1.942321 -0.892255 0
M  V30 10 C 4.438619 -2.044094 -0.396508 0
M  V30 11 C 0.847715 -1.396759 2.415859 0
M  V30 12 F 0.460354 -2.427569 3.266879 0
M  V30 13 F 0.766722 -0.247281 3.216341 0
M  V30 14 C -0.215790 -1.302496 1.397166 0
M  V30 15 N -1.180269 -0.349143 1.554599 0
M  V30 16 C -2.194569 -0.166797 0.700001 0
M  V30 17 N -3.124078 0.866824 0.994423 0
M  V30 18 C -4.287993 1.229708 0.212579 0
M  V30 19 C -4.116896 2.681699 -0.178749 0
M  V30 20 O -2.998041 3.286304 0.328961 0
M  V30 21 C -2.760000 3.114426 1.665433 0
M  V30 22 C -2.994751 1.707989 2.169852 0
M  V30 23 C -2.329538 -0.951123 -0.419379 0
M  V30 24 C -1.377690 -1.923724 -0.614131 0
M  V30 25 O -1.424853 -2.686497 -1.612993 0
M  V30 26 N -0.396549 -2.035693 0.292687 0
M  V30 27 H 2.290847 -3.448562 1.083013 0
M  V30 28 H 5.031947 -3.341969 2.634566 0
M  V30 29 H 7.395461 -3.180075 1.783765 0
M  V30 30 H 5.902717 -1.547661 -1.883753 0
M  V30 31 H 3.646763 -1.708079 -1.057783 0
M  V30 32 H -5.168535 1.228543 0.920009 0
M  V30 33 H -4.484459 0.573272 -0.630521 0
M  V30 34 H -5.042390 3.294723 0.029388 0
M  V30 35 H -4.040272 2.695144 -1.288738 0
M  V30 36 H -3.228078 3.895352 2.300955 0
M  V30 37 H -1.652137 3.287153 1.805932 0
M  V30 38 H -3.963381 1.670660 2.706194 0
M  V30 39 H -2.188716 1.359798 2.842798 0
M  V30 40 H -3.115986 -0.840165 -1.120126 0
M  V30 41 H 0.297246 -2.785052 0.102850 0
M  V30 END ATOM
M  V30 BEGIN BOND
M  V30 1 2 1 2
M  V30 2 1 2 3
M  V30 3 1 3 4
M  V30 4 2 4 5
M  V30 5 1 5 6
M  V30 6 2 6 7
M  V30 7 1 7 8
M  V30 8 1 7 9
M  V30 9 2 9 10
M  V30 10 1 2 11
M  V30 11 1 11 12
M  V30 12 1 11 13
M  V30 13 1 11 14
M  V30 14 2 14 15
M  V30 15 1 15 16
M  V30 16 1 16 17
M  V30 17 1 17 18
M  V30 18 1 18 19
M  V30 19 1 19 20
M  V30 20 1 20 21
M  V30 21 1 21 22
M  V30 22 2 16 23
M  V30 23 1 23 24
M  V30 24 2 24 25
M  V30 25 1 24 26
M  V30 26 1 10 4
M  V30 27 1 26 14
M  V30 28 1 22 17
M  V30 29 1 3 27
M  V30 30 1 5 28
M  V30 31 1 6 29
M  V30 32 1 9 30
M  V30 33 1 10 31
M  V30 34 1 18 32
M  V30 35 1 18 33
M  V30 36 1 19 34
M  V30 37 1 19 35
M  V30 38 1 21 36
M  V30 39 1 21 37
M  V30 40 1 22 38
M  V30 41 1 22 39
M  V30 42 1 23 40
M  V30 43 1 26 41
M  V30 END BOND
M  V30 END CTAB
M  END
>  <Dataset>  (280) 
ChEMBL_Kinases

>  <Ligand_Instance>  (280) 
nan

>  <PDB_ID>  (280) 
nan

>  <Standardized_SMILES>  (280) 
O=C(Nc1ccc(F)cc1)C(F)(F)c1nc(N2CCOCC2)cc(=O)[nH]1

>  <Name>  (280) 
nan

>  <Pocket>  (280) 
nan

>  <ATP_Site>  (280) 
nan

>  <Peripheral>  (280) 
nan

>  <Num_H_Atoms_ProtBoundConf>  (280) 
nan

>  <Num_Resolved_Atoms>  (280) 
nan

>  <Num_Not_Resolved_Atoms>  (280) 
nan

$$$$
CHEMBL3696291
     RDKit          3D

  0  0  0  0  0  0  0  0  0  0999 V3000
M  V30 BEGIN CTAB
M  V30 COUNTS 48 50 0 0 0
M  V30 BEGIN ATOM
M  V30 1 C 0.885590 -3.833370 2.055619 0
M  V30 2 N -0.165677 -3.328454 1.222226 0
M  V30 3 C 0.130965 -2.512022 0.197856 0
M  V30 4 C 1.550163 -2.106532 -0.090409 0
M  V30 5 C 1.758123 -0.832354 0.664385 0
M  V30 6 O 0.565891 -0.932415 1.053509 0
M  V30 7 N 2.984922 -0.110843 0.668711 0
M  V30 8 C 3.155189 1.101234 1.396012 0
M  V30 9 C 2.829283 2.203448 0.630692 0
M  V30 10 C 2.939759 3.480794 1.193138 0
M  V30 11 C 3.378984 3.563666 2.512685 0
M  V30 12 F 3.498884 4.795415 3.094417 0
M  V30 13 C 3.703516 2.460036 3.273915 0
M  V30 14 C 4.168527 2.603262 4.680881 0
M  V30 15 O 3.102635 2.889139 5.528750 0
M  V30 16 C 3.586654 1.217947 2.698521 0
M  V30 17 N -0.863571 -2.043205 -0.583794 0
M  V30 18 C -2.144312 -2.382478 -0.350084 0
M  V30 19 N -3.137966 -1.861297 -1.200752 0
M  V30 20 C -2.832220 -0.992820 -2.315981 0
M  V30 21 C -3.524725 0.338690 -2.143638 0
M  V30 22 O -4.834051 0.198909 -1.706861 0
M  V30 23 C -5.307848 -1.098098 -1.833279 0
M  V30 24 C -4.555669 -2.127626 -1.060989 0
M  V30 25 C -2.480843 -3.218442 0.693554 0
M  V30 26 C -1.444260 -3.690173 1.485876 0
M  V30 27 O -1.766463 -4.451544 2.434191 0
M  V30 28 H 1.508173 -4.600106 1.507217 0
M  V30 29 H 0.485816 -4.403723 2.931875 0
M  V30 30 H 1.524914 -3.049230 2.509768 0
M  V30 31 H 2.265488 -2.886479 0.174639 0
M  V30 32 H 1.600767 -1.937630 -1.184829 0
M  V30 33 H 3.714329 -0.579548 0.084480 0
M  V30 34 H 2.486610 2.201413 -0.387254 0
M  V30 35 H 2.714951 4.414935 0.697869 0
M  V30 36 H 5.003369 3.316703 4.781846 0
M  V30 37 H 4.555283 1.609212 5.022480 0
M  V30 38 H 2.282514 2.598556 5.072545 0
M  V30 39 H 3.816559 0.304083 3.214008 0
M  V30 40 H -3.136273 -1.432016 -3.286337 0
M  V30 41 H -1.742569 -0.804329 -2.311375 0
M  V30 42 H -3.564223 0.823159 -3.140990 0
M  V30 43 H -2.992373 1.013914 -1.467652 0
M  V30 44 H -5.360641 -1.338563 -2.904929 0
M  V30 45 H -6.374068 -1.076140 -1.461098 0
M  V30 46 H -4.857117 -3.120124 -1.452255 0
M  V30 47 H -4.876797 -2.061479 0.012485 0
M  V30 48 H -3.492167 -3.490686 0.883084 0
M  V30 END ATOM
M  V30 BEGIN BOND
M  V30 1 1 1 2
M  V30 2 1 2 3
M  V30 3 1 3 4
M  V30 4 1 4 5
M  V30 5 2 5 6
M  V30 6 1 5 7
M  V30 7 1 7 8
M  V30 8 2 8 9
M  V30 9 1 9 10
M  V30 10 2 10 11
M  V30 11 1 11 12
M  V30 12 1 11 13
M  V30 13 1 13 14
M  V30 14 1 14 15
M  V30 15 2 13 16
M  V30 16 2 3 17
M  V30 17 1 17 18
M  V30 18 1 18 19
M  V30 19 1 19 20
M  V30 20 1 20 21
M  V30 21 1 21 22
M  V30 22 1 22 23
M  V30 23 1 23 24
M  V30 24 2 18 25
M  V30 25 1 25 26
M  V30 26 2 26 27
M  V30 27 1 26 2
M  V30 28 1 16 8
M  V30 29 1 24 19
M  V30 30 1 1 28
M  V30 31 1 1 29
M  V30 32 1 1 30
M  V30 33 1 4 31
M  V30 34 1 4 32
M  V30 35 1 7 33
M  V30 36 1 9 34
M  V30 37 1 10 35
M  V30 38 1 14 36
M  V30 39 1 14 37
M  V30 40 1 15 38
M  V30 41 1 16 39
M  V30 42 1 20 40
M  V30 43 1 20 41
M  V30 44 1 21 42
M  V30 45 1 21 43
M  V30 46 1 23 44
M  V30 47 1 23 45
M  V30 48 1 24 46
M  V30 49 1 24 47
M  V30 50 1 25 48
M  V30 END BOND
M  V30 END CTAB
M  END
>  <Dataset>  (281) 
ChEMBL_Kinases

>  <Ligand_Instance>  (281) 
nan

>  <PDB_ID>  (281) 
nan

>  <Standardized_SMILES>  (281) 
Cn1c(CC(=O)Nc2ccc(F)c(CO)c2)nc(N2CCOCC2)cc1=O

>  <Name>  (281) 
nan

>  <Pocket>  (281) 
nan

>  <ATP_Site>  (281) 
nan

>  <Peripheral>  (281) 
nan

>  <Num_H_Atoms_ProtBoundConf>  (281) 
nan

>  <Num_Resolved_Atoms>  (281) 
nan

>  <Num_Not_Resolved_Atoms>  (281) 
nan

$$$$
CHEMBL3696301
     RDKit          3D

  0  0  0  0  0  0  0  0  0  0999 V3000
M  V30 BEGIN CTAB
M  V30 COUNTS 45 48 0 0 0
M  V30 BEGIN ATOM
M  V30 1 O -0.941889 -0.947747 2.002806 0
M  V30 2 C -0.129814 -1.847825 1.703997 0
M  V30 3 C 1.368790 -1.714074 1.678175 0
M  V30 4 C 1.776717 -0.338886 2.063195 0
M  V30 5 N 1.864088 0.480902 0.999794 0
M  V30 6 C 2.220160 1.779330 1.122095 0
M  V30 7 N 2.313597 2.648514 0.001351 0
M  V30 8 C 2.681104 4.029678 0.040775 0
M  V30 9 C 1.542715 4.760085 -0.683592 0
M  V30 10 O 1.653619 4.375837 -2.020799 0
M  V30 11 C 1.346226 3.056896 -2.235975 0
M  V30 12 C 2.011307 2.097246 -1.307590 0
M  V30 13 C 2.483779 2.191654 2.410297 0
M  V30 14 C 2.383406 1.318321 3.482628 0
M  V30 15 O 2.628730 1.711340 4.661117 0
M  V30 16 N 2.030040 0.045008 3.327999 0
M  V30 17 N -0.662041 -3.120080 1.354491 0
M  V30 18 C 0.034444 -4.342268 0.966452 0
M  V30 19 C -0.923093 -4.877717 -0.081887 0
M  V30 20 C -2.272135 -4.539814 0.446212 0
M  V30 21 C -3.547699 -5.036149 0.257011 0
M  V30 22 C -4.583401 -4.430795 0.954354 0
M  V30 23 C -4.400217 -3.377904 1.809921 0
M  V30 24 F -5.407033 -2.784216 2.492224 0
M  V30 25 C -3.123642 -2.888250 1.993306 0
M  V30 26 C -2.053825 -3.465366 1.313652 0
M  V30 27 H 1.803471 -2.038532 0.731419 0
M  V30 28 H 1.725411 -2.398850 2.476501 0
M  V30 29 H 3.575309 4.186886 -0.628267 0
M  V30 30 H 2.901995 4.459492 1.007879 0
M  V30 31 H 1.652793 5.843623 -0.614372 0
M  V30 32 H 0.556061 4.442139 -0.238963 0
M  V30 33 H 1.693545 2.820776 -3.281198 0
M  V30 34 H 0.245285 2.983154 -2.288784 0
M  V30 35 H 1.433821 1.156375 -1.237092 0
M  V30 36 H 3.009211 1.813901 -1.750147 0
M  V30 37 H 2.774265 3.204672 2.610982 0
M  V30 38 H 1.929645 -0.678650 4.073604 0
M  V30 39 H 0.974626 -4.054155 0.454046 0
M  V30 40 H 0.167528 -5.028952 1.805816 0
M  V30 41 H -0.792600 -4.224771 -0.978274 0
M  V30 42 H -0.827097 -5.946690 -0.277204 0
M  V30 43 H -3.711497 -5.867638 -0.415198 0
M  V30 44 H -5.605023 -4.786219 0.838349 0
M  V30 45 H -2.971849 -2.043284 2.679042 0
M  V30 END ATOM
M  V30 BEGIN BOND
M  V30 1 2 1 2
M  V30 2 1 2 3
M  V30 3 1 3 4
M  V30 4 2 4 5
M  V30 5 1 5 6
M  V30 6 1 6 7
M  V30 7 1 7 8
M  V30 8 1 8 9
M  V30 9 1 9 10
M  V30 10 1 10 11
M  V30 11 1 11 12
M  V30 12 2 6 13
M  V30 13 1 13 14
M  V30 14 2 14 15
M  V30 15 1 14 16
M  V30 16 1 2 17
M  V30 17 1 17 18
M  V30 18 1 18 19
M  V30 19 1 19 20
M  V30 20 2 20 21
M  V30 21 1 21 22
M  V30 22 2 22 23
M  V30 23 1 23 24
M  V30 24 1 23 25
M  V30 25 2 25 26
M  V30 26 1 16 4
M  V30 27 1 26 17
M  V30 28 1 12 7
M  V30 29 1 26 20
M  V30 30 1 3 27
M  V30 31 1 3 28
M  V30 32 1 8 29
M  V30 33 1 8 30
M  V30 34 1 9 31
M  V30 35 1 9 32
M  V30 36 1 11 33
M  V30 37 1 11 34
M  V30 38 1 12 35
M  V30 39 1 12 36
M  V30 40 1 13 37
M  V30 41 1 16 38
M  V30 42 1 18 39
M  V30 43 1 18 40
M  V30 44 1 19 41
M  V30 45 1 19 42
M  V30 46 1 21 43
M  V30 47 1 22 44
M  V30 48 1 25 45
M  V30 END BOND
M  V30 END CTAB
M  END
>  <Dataset>  (282) 
ChEMBL_Kinases

>  <Ligand_Instance>  (282) 
nan

>  <PDB_ID>  (282) 
nan

>  <Standardized_SMILES>  (282) 
O=C(Cc1nc(N2CCOCC2)cc(=O)[nH]1)N1CCc2ccc(F)cc21

>  <Name>  (282) 
nan

>  <Pocket>  (282) 
nan

>  <ATP_Site>  (282) 
nan

>  <Peripheral>  (282) 
nan

>  <Num_H_Atoms_ProtBoundConf>  (282) 
nan

>  <Num_Resolved_Atoms>  (282) 
nan

>  <Num_Not_Resolved_Atoms>  (282) 
nan

$$$$
CHEMBL3696293
     RDKit          3D

  0  0  0  0  0  0  0  0  0  0999 V3000
M  V30 BEGIN CTAB
M  V30 COUNTS 44 47 0 0 0
M  V30 BEGIN ATOM
M  V30 1 O 2.556686 -3.212764 2.076809 0
M  V30 2 C 1.994557 -2.141275 2.384397 0
M  V30 3 C 2.864643 -1.102690 3.029494 0
M  V30 4 C 2.202893 0.236304 2.781405 0
M  V30 5 N 2.145274 0.389965 1.423595 0
M  V30 6 C 1.594880 1.504894 0.868953 0
M  V30 7 N 1.503852 1.689502 -0.526947 0
M  V30 8 C 0.711172 2.712506 -1.180450 0
M  V30 9 C -0.486940 1.960894 -1.753935 0
M  V30 10 O -0.047103 0.806696 -2.340488 0
M  V30 11 C 1.280188 0.751134 -2.679943 0
M  V30 12 C 2.214106 0.825516 -1.475196 0
M  V30 13 C 1.123804 2.426255 1.755457 0
M  V30 14 C 1.191575 2.256363 3.122577 0
M  V30 15 O 0.771489 3.083812 3.982120 0
M  V30 16 N 1.736992 1.147944 3.644813 0
M  V30 17 N 0.610399 -1.963942 2.114882 0
M  V30 18 C -0.298419 -2.866592 1.512124 0
M  V30 19 C -0.021618 -4.117727 1.068080 0
M  V30 20 C -0.949610 -4.970633 0.479127 0
M  V30 21 C -2.256993 -4.517353 0.331564 0
M  V30 22 C -2.524483 -3.240033 0.789583 0
M  V30 23 O -3.679813 -2.637097 0.739550 0
M  V30 24 C -3.597023 -1.436307 1.254311 0
M  V30 25 C -2.268189 -1.273399 1.663995 0
M  V30 26 C -1.581865 -2.428172 1.365500 0
M  V30 27 H 3.879799 -1.136825 2.623941 0
M  V30 28 H 2.869613 -1.328359 4.094314 0
M  V30 29 H 1.275401 3.094587 -2.050979 0
M  V30 30 H 0.447511 3.565960 -0.565794 0
M  V30 31 H -1.079476 1.639456 -0.843816 0
M  V30 32 H -1.110504 2.603790 -2.388006 0
M  V30 33 H 1.421655 -0.222669 -3.225463 0
M  V30 34 H 1.547315 1.539102 -3.440686 0
M  V30 35 H 3.100927 1.409420 -1.818637 0
M  V30 36 H 2.456482 -0.154421 -1.066538 0
M  V30 37 H 0.665167 3.354688 1.446222 0
M  V30 38 H 1.877793 0.849793 4.633746 0
M  V30 39 H 0.315755 -1.018600 2.426861 0
M  V30 40 H 0.967436 -4.528773 1.151684 0
M  V30 41 H -0.689853 -5.956644 0.135769 0
M  V30 42 H -3.016368 -5.142827 -0.120898 0
M  V30 43 H -4.424283 -0.741486 1.327522 0
M  V30 44 H -1.896940 -0.380810 2.126970 0
M  V30 END ATOM
M  V30 BEGIN BOND
M  V30 1 2 1 2
M  V30 2 1 2 3
M  V30 3 1 3 4
M  V30 4 2 4 5
M  V30 5 1 5 6
M  V30 6 1 6 7
M  V30 7 1 7 8
M  V30 8 1 8 9
M  V30 9 1 9 10
M  V30 10 1 10 11
M  V30 11 1 11 12
M  V30 12 2 6 13
M  V30 13 1 13 14
M  V30 14 2 14 15
M  V30 15 1 14 16
M  V30 16 1 2 17
M  V30 17 1 17 18
M  V30 18 2 18 19
M  V30 19 1 19 20
M  V30 20 2 20 21
M  V30 21 1 21 22
M  V30 22 1 22 23
M  V30 23 1 23 24
M  V30 24 2 24 25
M  V30 25 1 25 26
M  V30 26 1 16 4
M  V30 27 1 26 18
M  V30 28 1 12 7
M  V30 29 2 26 22
M  V30 30 1 3 27
M  V30 31 1 3 28
M  V30 32 1 8 29
M  V30 33 1 8 30
M  V30 34 1 9 31
M  V30 35 1 9 32
M  V30 36 1 11 33
M  V30 37 1 11 34
M  V30 38 1 12 35
M  V30 39 1 12 36
M  V30 40 1 13 37
M  V30 41 1 16 38
M  V30 42 1 17 39
M  V30 43 1 19 40
M  V30 44 1 20 41
M  V30 45 1 21 42
M  V30 46 1 24 43
M  V30 47 1 25 44
M  V30 END BOND
M  V30 END CTAB
M  END
>  <Dataset>  (283) 
ChEMBL_Kinases

>  <Ligand_Instance>  (283) 
nan

>  <PDB_ID>  (283) 
nan

>  <Standardized_SMILES>  (283) 
O=C(Cc1nc(N2CCOCC2)cc(=O)[nH]1)Nc1cccc2occc12

>  <Name>  (283) 
nan

>  <Pocket>  (283) 
nan

>  <ATP_Site>  (283) 
nan

>  <Peripheral>  (283) 
nan

>  <Num_H_Atoms_ProtBoundConf>  (283) 
nan

>  <Num_Resolved_Atoms>  (283) 
nan

>  <Num_Not_Resolved_Atoms>  (283) 
nan

$$$$
CHEMBL3696294
     RDKit          3D

  0  0  0  0  0  0  0  0  0  0999 V3000
M  V30 BEGIN CTAB
M  V30 COUNTS 51 54 0 0 0
M  V30 BEGIN ATOM
M  V30 1 C 1.360120 -3.643925 2.026488 0
M  V30 2 N 0.178753 -3.582872 1.184870 0
M  V30 3 C 0.214423 -2.774531 0.085286 0
M  V30 4 C 1.383666 -1.965936 -0.288545 0
M  V30 5 C 1.295923 -0.625409 0.348573 0
M  V30 6 O 0.245335 -0.543758 1.036324 0
M  V30 7 N 2.326367 0.327406 0.122944 0
M  V30 8 C 2.402773 1.646010 0.648701 0
M  V30 9 C 1.824681 2.637566 -0.108478 0
M  V30 10 C 1.823027 3.957749 0.276136 0
M  V30 11 C 2.441790 4.246614 1.483014 0
M  V30 12 F 2.452420 5.556494 1.886880 0
M  V30 13 C 3.028925 3.272345 2.261662 0
M  V30 14 C 3.663113 3.688531 3.533778 0
M  V30 15 C 2.898858 3.726838 4.792637 0
M  V30 16 C 3.896644 2.653077 4.555562 0
M  V30 17 C 3.007618 1.967953 1.840046 0
M  V30 18 N -0.892938 -2.712281 -0.710628 0
M  V30 19 C -1.984885 -3.436760 -0.404255 0
M  V30 20 N -3.081021 -3.297990 -1.299223 0
M  V30 21 C -2.980241 -2.419363 -2.448319 0
M  V30 22 C -3.895857 -1.242193 -2.144375 0
M  V30 23 O -4.994878 -1.635892 -1.395829 0
M  V30 24 C -5.393703 -2.948615 -1.669094 0
M  V30 25 C -4.361698 -3.969555 -1.193386 0
M  V30 26 C -2.072183 -4.267712 0.693656 0
M  V30 27 C -0.936056 -4.307955 1.477458 0
M  V30 28 O -0.869642 -5.020149 2.508968 0
M  V30 29 H 1.124265 -4.248128 2.917734 0
M  V30 30 H 2.241023 -4.017742 1.472262 0
M  V30 31 H 1.625065 -2.611833 2.395536 0
M  V30 32 H 2.331058 -2.480652 -0.043847 0
M  V30 33 H 1.385344 -1.822892 -1.390040 0
M  V30 34 H 3.124520 0.058751 -0.489437 0
M  V30 35 H 1.328323 2.449240 -1.063898 0
M  V30 36 H 1.378623 4.778029 -0.288876 0
M  V30 37 H 4.436144 4.501199 3.425552 0
M  V30 38 H 3.144301 4.495574 5.553802 0
M  V30 39 H 1.828751 3.438754 4.810800 0
M  V30 40 H 4.859410 2.698395 5.094110 0
M  V30 41 H 3.507063 1.629837 4.425691 0
M  V30 42 H 3.459436 1.182683 2.428775 0
M  V30 43 H -1.930694 -2.132910 -2.578823 0
M  V30 44 H -3.337748 -2.914645 -3.375122 0
M  V30 45 H -4.150528 -0.662481 -3.049767 0
M  V30 46 H -3.280303 -0.572785 -1.484820 0
M  V30 47 H -6.324842 -3.125193 -1.096613 0
M  V30 48 H -5.631672 -3.072290 -2.757544 0
M  V30 49 H -4.575491 -4.385867 -0.209752 0
M  V30 50 H -4.336319 -4.762966 -1.997020 0
M  V30 51 H -2.939363 -4.834473 0.925107 0
M  V30 END ATOM
M  V30 BEGIN BOND
M  V30 1 1 1 2
M  V30 2 1 2 3
M  V30 3 1 3 4
M  V30 4 1 4 5
M  V30 5 2 5 6
M  V30 6 1 5 7
M  V30 7 1 7 8
M  V30 8 2 8 9
M  V30 9 1 9 10
M  V30 10 2 10 11
M  V30 11 1 11 12
M  V30 12 1 11 13
M  V30 13 1 13 14
M  V30 14 1 14 15
M  V30 15 1 15 16
M  V30 16 2 13 17
M  V30 17 2 3 18
M  V30 18 1 18 19
M  V30 19 1 19 20
M  V30 20 1 20 21
M  V30 21 1 21 22
M  V30 22 1 22 23
M  V30 23 1 23 24
M  V30 24 1 24 25
M  V30 25 2 19 26
M  V30 26 1 26 27
M  V30 27 2 27 28
M  V30 28 1 27 2
M  V30 29 1 17 8
M  V30 30 1 25 20
M  V30 31 1 16 14
M  V30 32 1 1 29
M  V30 33 1 1 30
M  V30 34 1 1 31
M  V30 35 1 4 32
M  V30 36 1 4 33
M  V30 37 1 7 34
M  V30 38 1 9 35
M  V30 39 1 10 36
M  V30 40 1 14 37
M  V30 41 1 15 38
M  V30 42 1 15 39
M  V30 43 1 16 40
M  V30 44 1 16 41
M  V30 45 1 17 42
M  V30 46 1 21 43
M  V30 47 1 21 44
M  V30 48 1 22 45
M  V30 49 1 22 46
M  V30 50 1 24 47
M  V30 51 1 24 48
M  V30 52 1 25 49
M  V30 53 1 25 50
M  V30 54 1 26 51
M  V30 END BOND
M  V30 END CTAB
M  END
>  <Dataset>  (284) 
ChEMBL_Kinases

>  <Ligand_Instance>  (284) 
nan

>  <PDB_ID>  (284) 
nan

>  <Standardized_SMILES>  (284) 
Cn1c(CC(=O)Nc2ccc(F)c(C3CC3)c2)nc(N2CCOCC2)cc1=O

>  <Name>  (284) 
nan

>  <Pocket>  (284) 
nan

>  <ATP_Site>  (284) 
nan

>  <Peripheral>  (284) 
nan

>  <Num_H_Atoms_ProtBoundConf>  (284) 
nan

>  <Num_Resolved_Atoms>  (284) 
nan

>  <Num_Not_Resolved_Atoms>  (284) 
nan

$$$$
CHEMBL3696295
     RDKit          3D

  0  0  0  0  0  0  0  0  0  0999 V3000
M  V30 BEGIN CTAB
M  V30 COUNTS 42 44 0 0 0
M  V30 BEGIN ATOM
M  V30 1 O 0.732604 -3.157276 1.249017 0
M  V30 2 C 0.579724 -2.454473 2.275881 0
M  V30 3 C 1.631974 -2.211464 3.290685 0
M  V30 4 C 2.588245 -1.168281 2.793246 0
M  V30 5 N 2.046098 -0.652415 1.646191 0
M  V30 6 C 2.689654 0.348984 0.942834 0
M  V30 7 N 2.018110 0.782788 -0.261636 0
M  V30 8 C 0.658142 0.346086 -0.434935 0
M  V30 9 C -0.079964 1.047900 -1.505397 0
M  V30 10 O 0.580433 2.205498 -1.893036 0
M  V30 11 C 1.838718 1.824788 -2.379068 0
M  V30 12 C 2.747143 1.590944 -1.180807 0
M  V30 13 C 3.879441 0.788142 1.456864 0
M  V30 14 C 4.348835 0.219821 2.608772 0
M  V30 15 O 5.438593 0.643333 3.062689 0
M  V30 16 N 3.742799 -0.754694 3.306260 0
M  V30 17 N -0.720844 -1.893561 2.367952 0
M  V30 18 C -1.934462 -1.869723 1.635507 0
M  V30 19 C -2.938150 -1.091735 2.168220 0
M  V30 20 C -4.124524 -1.011195 1.478263 0
M  V30 21 C -4.354535 -1.666033 0.299326 0
M  V30 22 C -3.353692 -2.433587 -0.211304 0
M  V30 23 F -3.598197 -3.078251 -1.397503 0
M  V30 24 C -2.138294 -2.534103 0.456946 0
M  V30 25 O -1.231226 -3.330740 -0.164064 0
M  V30 26 H 2.230618 -3.170664 3.309159 0
M  V30 27 H 1.307198 -2.004571 4.292317 0
M  V30 28 H 0.172472 0.402423 0.571134 0
M  V30 29 H 0.752311 -0.742224 -0.727519 0
M  V30 30 H -0.232750 0.355965 -2.384645 0
M  V30 31 H -1.104635 1.277812 -1.090938 0
M  V30 32 H 2.201675 2.604578 -3.046011 0
M  V30 33 H 1.684890 0.836606 -2.868186 0
M  V30 34 H 2.913432 2.599502 -0.696111 0
M  V30 35 H 3.685262 1.136464 -1.528012 0
M  V30 36 H 4.360910 1.555264 0.905002 0
M  V30 37 H 4.018357 -1.237584 4.177603 0
M  V30 38 H -0.696721 -1.334612 3.280292 0
M  V30 39 H -2.842028 -0.539198 3.101943 0
M  V30 40 H -4.869574 -0.377965 1.956108 0
M  V30 41 H -5.327867 -1.500394 -0.115605 0
M  V30 42 H -1.435283 -4.144701 -0.715719 0
M  V30 END ATOM
M  V30 BEGIN BOND
M  V30 1 2 1 2
M  V30 2 1 2 3
M  V30 3 1 3 4
M  V30 4 2 4 5
M  V30 5 1 5 6
M  V30 6 1 6 7
M  V30 7 1 7 8
M  V30 8 1 8 9
M  V30 9 1 9 10
M  V30 10 1 10 11
M  V30 11 1 11 12
M  V30 12 2 6 13
M  V30 13 1 13 14
M  V30 14 2 14 15
M  V30 15 1 14 16
M  V30 16 1 2 17
M  V30 17 1 17 18
M  V30 18 2 18 19
M  V30 19 1 19 20
M  V30 20 2 20 21
M  V30 21 1 21 22
M  V30 22 1 22 23
M  V30 23 2 22 24
M  V30 24 1 24 25
M  V30 25 1 16 4
M  V30 26 1 24 18
M  V30 27 1 12 7
M  V30 28 1 3 26
M  V30 29 1 3 27
M  V30 30 1 8 28
M  V30 31 1 8 29
M  V30 32 1 9 30
M  V30 33 1 9 31
M  V30 34 1 11 32
M  V30 35 1 11 33
M  V30 36 1 12 34
M  V30 37 1 12 35
M  V30 38 1 13 36
M  V30 39 1 16 37
M  V30 40 1 17 38
M  V30 41 1 19 39
M  V30 42 1 20 40
M  V30 43 1 21 41
M  V30 44 1 25 42
M  V30 END BOND
M  V30 END CTAB
M  END
>  <Dataset>  (285) 
ChEMBL_Kinases

>  <Ligand_Instance>  (285) 
nan

>  <PDB_ID>  (285) 
nan

>  <Standardized_SMILES>  (285) 
O=C(Cc1nc(N2CCOCC2)cc(=O)[nH]1)Nc1cccc(F)c1O

>  <Name>  (285) 
nan

>  <Pocket>  (285) 
nan

>  <ATP_Site>  (285) 
nan

>  <Peripheral>  (285) 
nan

>  <Num_H_Atoms_ProtBoundConf>  (285) 
nan

>  <Num_Resolved_Atoms>  (285) 
nan

>  <Num_Not_Resolved_Atoms>  (285) 
nan

$$$$
CHEMBL3696296
     RDKit          3D

  0  0  0  0  0  0  0  0  0  0999 V3000
M  V30 BEGIN CTAB
M  V30 COUNTS 43 45 0 0 0
M  V30 BEGIN ATOM
M  V30 1 C -6.327711 -2.902959 1.452904 0
M  V30 2 C -5.897048 -2.648413 0.346514 0
M  V30 3 C -5.398403 -2.367937 -0.971243 0
M  V30 4 C -4.091470 -2.623096 -1.339963 0
M  V30 5 C -3.647381 -2.342989 -2.608243 0
M  V30 6 N -2.274371 -2.664283 -2.829573 0
M  V30 7 C -1.403348 -1.589675 -2.531005 0
M  V30 8 O -1.351579 -0.399285 -2.126459 0
M  V30 9 C 0.073510 -1.679930 -2.681375 0
M  V30 10 C 0.665359 -0.374838 -2.281067 0
M  V30 11 N 1.013108 -0.190516 -0.995398 0
M  V30 12 C 1.552658 0.953659 -0.546046 0
M  V30 13 N 1.906017 1.107657 0.820651 0
M  V30 14 C 2.492937 2.273135 1.447217 0
M  V30 15 C 3.836429 1.788698 2.007534 0
M  V30 16 O 3.551013 0.785012 2.917997 0
M  V30 17 C 3.030789 -0.357386 2.337109 0
M  V30 18 C 1.676197 0.009907 1.734573 0
M  V30 19 C 1.728868 1.935693 -1.494719 0
M  V30 20 C 1.367479 1.723474 -2.793505 0
M  V30 21 O 1.546465 2.655506 -3.639076 0
M  V30 22 N 0.827252 0.576579 -3.241330 0
M  V30 23 C -4.525158 -1.797077 -3.527679 0
M  V30 24 C -5.830023 -1.542249 -3.159797 0
M  V30 25 C -6.279170 -1.822692 -1.885962 0
M  V30 26 F -7.585657 -1.549731 -1.573276 0
M  V30 27 H -6.712681 -3.116799 2.434680 0
M  V30 28 H -3.483395 -3.049788 -0.551593 0
M  V30 29 H -1.778143 -3.518734 -3.163155 0
M  V30 30 H 0.383535 -1.875124 -3.723618 0
M  V30 31 H 0.517735 -2.480102 -2.055280 0
M  V30 32 H 1.865112 2.628860 2.291632 0
M  V30 33 H 2.701959 3.067523 0.718900 0
M  V30 34 H 4.352217 2.602351 2.518869 0
M  V30 35 H 4.380239 1.355695 1.149669 0
M  V30 36 H 3.705212 -0.724633 1.543816 0
M  V30 37 H 2.859977 -1.078099 3.158513 0
M  V30 38 H 1.211025 -0.870953 1.279846 0
M  V30 39 H 1.078111 0.378021 2.616338 0
M  V30 40 H 2.149523 2.873823 -1.227485 0
M  V30 41 H 0.557823 0.427848 -4.226670 0
M  V30 42 H -4.095115 -1.606416 -4.504741 0
M  V30 43 H -6.437382 -1.118349 -3.939914 0
M  V30 END ATOM
M  V30 BEGIN BOND
M  V30 1 3 1 2
M  V30 2 1 2 3
M  V30 3 2 3 4
M  V30 4 1 4 5
M  V30 5 1 5 6
M  V30 6 1 6 7
M  V30 7 2 7 8
M  V30 8 1 7 9
M  V30 9 1 9 10
M  V30 10 2 10 11
M  V30 11 1 11 12
M  V30 12 1 12 13
M  V30 13 1 13 14
M  V30 14 1 14 15
M  V30 15 1 15 16
M  V30 16 1 16 17
M  V30 17 1 17 18
M  V30 18 2 12 19
M  V30 19 1 19 20
M  V30 20 2 20 21
M  V30 21 1 20 22
M  V30 22 2 5 23
M  V30 23 1 23 24
M  V30 24 2 24 25
M  V30 25 1 25 26
M  V30 26 1 25 3
M  V30 27 1 22 10
M  V30 28 1 18 13
M  V30 29 1 1 27
M  V30 30 1 4 28
M  V30 31 1 6 29
M  V30 32 1 9 30
M  V30 33 1 9 31
M  V30 34 1 14 32
M  V30 35 1 14 33
M  V30 36 1 15 34
M  V30 37 1 15 35
M  V30 38 1 17 36
M  V30 39 1 17 37
M  V30 40 1 18 38
M  V30 41 1 18 39
M  V30 42 1 19 40
M  V30 43 1 22 41
M  V30 44 1 23 42
M  V30 45 1 24 43
M  V30 END BOND
M  V30 END CTAB
M  END
>  <Dataset>  (286) 
ChEMBL_Kinases

>  <Ligand_Instance>  (286) 
nan

>  <PDB_ID>  (286) 
nan

>  <Standardized_SMILES>  (286) 
C#Cc1cc(NC(=O)Cc2nc(N3CCOCC3)cc(=O)[nH]2)ccc1F

>  <Name>  (286) 
nan

>  <Pocket>  (286) 
nan

>  <ATP_Site>  (286) 
nan

>  <Peripheral>  (286) 
nan

>  <Num_H_Atoms_ProtBoundConf>  (286) 
nan

>  <Num_Resolved_Atoms>  (286) 
nan

>  <Num_Not_Resolved_Atoms>  (286) 
nan

$$$$
CHEMBL3696297
     RDKit          3D

  0  0  0  0  0  0  0  0  0  0999 V3000
M  V30 BEGIN CTAB
M  V30 COUNTS 46 49 0 0 0
M  V30 BEGIN ATOM
M  V30 1 O -0.678389 -1.855007 3.911201 0
M  V30 2 C 0.082152 -2.071899 2.935207 0
M  V30 3 C 1.568939 -1.913563 2.966719 0
M  V30 4 C 1.919625 -0.458106 3.018516 0
M  V30 5 N 1.877365 0.090333 1.798260 0
M  V30 6 C 2.113535 1.360601 1.470226 0
M  V30 7 N 1.992854 1.654170 0.061828 0
M  V30 8 C 1.204834 2.630962 -0.675542 0
M  V30 9 C 0.689045 1.998334 -1.957206 0
M  V30 10 O 1.712913 1.583167 -2.780025 0
M  V30 11 C 2.936437 1.516257 -2.125922 0
M  V30 12 C 2.820498 0.824929 -0.784347 0
M  V30 13 C 2.446169 2.209136 2.532113 0
M  V30 14 C 2.489560 1.639658 3.778624 0
M  V30 15 O 2.790816 2.390964 4.741737 0
M  V30 16 N 2.238545 0.351623 4.040709 0
M  V30 17 N -0.547625 -2.499204 1.705000 0
M  V30 18 C -0.001779 -2.819989 0.376819 0
M  V30 19 C -1.025684 -2.101859 -0.495274 0
M  V30 20 C -2.311488 -2.449065 0.187461 0
M  V30 21 C -3.624296 -2.548811 -0.280281 0
M  V30 22 O -3.944307 -2.300567 -1.608147 0
M  V30 23 C -4.606302 -2.909992 0.649610 0
M  V30 24 C -4.285986 -3.159463 1.986581 0
M  V30 25 C -2.969503 -3.047891 2.401989 0
M  V30 26 C -1.964445 -2.693873 1.522698 0
M  V30 27 H 1.974830 -2.378315 2.067330 0
M  V30 28 H 1.936536 -2.432682 3.871103 0
M  V30 29 H 0.295571 2.814037 -0.051233 0
M  V30 30 H 1.757147 3.543865 -0.952068 0
M  V30 31 H 0.020056 2.714211 -2.462203 0
M  V30 32 H 0.055844 1.109280 -1.736888 0
M  V30 33 H 3.655659 1.005253 -2.810352 0
M  V30 34 H 3.272652 2.548022 -1.941152 0
M  V30 35 H 3.848202 0.675004 -0.378818 0
M  V30 36 H 2.355567 -0.180795 -0.931128 0
M  V30 37 H 2.633626 3.219057 2.249823 0
M  V30 38 H 2.257705 -0.128962 4.959945 0
M  V30 39 H 1.017018 -2.459620 0.249116 0
M  V30 40 H -0.128193 -3.902432 0.202430 0
M  V30 41 H -0.937934 -1.007986 -0.472872 0
M  V30 42 H -1.004253 -2.438794 -1.548066 0
M  V30 43 H -3.559807 -1.503810 -2.103924 0
M  V30 44 H -5.635999 -2.986428 0.266969 0
M  V30 45 H -5.113899 -3.428512 2.595102 0
M  V30 46 H -2.735515 -3.247710 3.436233 0
M  V30 END ATOM
M  V30 BEGIN BOND
M  V30 1 2 1 2
M  V30 2 1 2 3
M  V30 3 1 3 4
M  V30 4 2 4 5
M  V30 5 1 5 6
M  V30 6 1 6 7
M  V30 7 1 7 8
M  V30 8 1 8 9
M  V30 9 1 9 10
M  V30 10 1 10 11
M  V30 11 1 11 12
M  V30 12 2 6 13
M  V30 13 1 13 14
M  V30 14 2 14 15
M  V30 15 1 14 16
M  V30 16 1 2 17
M  V30 17 1 17 18
M  V30 18 1 18 19
M  V30 19 1 19 20
M  V30 20 2 20 21
M  V30 21 1 21 22
M  V30 22 1 21 23
M  V30 23 2 23 24
M  V30 24 1 24 25
M  V30 25 2 25 26
M  V30 26 1 16 4
M  V30 27 1 26 17
M  V30 28 1 12 7
M  V30 29 1 26 20
M  V30 30 1 3 27
M  V30 31 1 3 28
M  V30 32 1 8 29
M  V30 33 1 8 30
M  V30 34 1 9 31
M  V30 35 1 9 32
M  V30 36 1 11 33
M  V30 37 1 11 34
M  V30 38 1 12 35
M  V30 39 1 12 36
M  V30 40 1 13 37
M  V30 41 1 16 38
M  V30 42 1 18 39
M  V30 43 1 18 40
M  V30 44 1 19 41
M  V30 45 1 19 42
M  V30 46 1 22 43
M  V30 47 1 23 44
M  V30 48 1 24 45
M  V30 49 1 25 46
M  V30 END BOND
M  V30 END CTAB
M  END
>  <Dataset>  (287) 
ChEMBL_Kinases

>  <Ligand_Instance>  (287) 
nan

>  <PDB_ID>  (287) 
nan

>  <Standardized_SMILES>  (287) 
O=C(Cc1nc(N2CCOCC2)cc(=O)[nH]1)N1CCc2c(O)cccc21

>  <Name>  (287) 
nan

>  <Pocket>  (287) 
nan

>  <ATP_Site>  (287) 
nan

>  <Peripheral>  (287) 
nan

>  <Num_H_Atoms_ProtBoundConf>  (287) 
nan

>  <Num_Resolved_Atoms>  (287) 
nan

>  <Num_Not_Resolved_Atoms>  (287) 
nan

$$$$
CHEMBL3696298
     RDKit          3D

  0  0  0  0  0  0  0  0  0  0999 V3000
M  V30 BEGIN CTAB
M  V30 COUNTS 45 48 0 0 0
M  V30 BEGIN ATOM
M  V30 1 O -1.278234 -1.048017 1.754477 0
M  V30 2 C -0.369488 -1.907159 1.619838 0
M  V30 3 C 1.070995 -1.620911 1.815964 0
M  V30 4 C 1.322749 -0.217272 2.186470 0
M  V30 5 N 1.524023 0.628282 1.157617 0
M  V30 6 C 1.768341 1.948071 1.312727 0
M  V30 7 N 1.979928 2.833854 0.221377 0
M  V30 8 C 2.226072 4.214722 0.528294 0
M  V30 9 C 2.267510 5.112360 -0.669339 0
M  V30 10 O 1.844833 4.521459 -1.840608 0
M  V30 11 C 2.484539 3.301981 -2.068921 0
M  V30 12 C 1.926748 2.252289 -1.112475 0
M  V30 13 C 1.791513 2.345974 2.632751 0
M  V30 14 C 1.587862 1.495990 3.700228 0
M  V30 15 O 1.616674 1.897277 4.893591 0
M  V30 16 N 1.349628 0.192080 3.467368 0
M  V30 17 N -0.742408 -3.231777 1.258322 0
M  V30 18 C 0.119575 -4.380593 1.047461 0
M  V30 19 C -0.553261 -5.024755 -0.156149 0
M  V30 20 C -1.986933 -4.796991 0.162392 0
M  V30 21 C -3.157048 -5.435277 -0.219278 0
M  V30 22 F -3.129008 -6.503085 -1.053601 0
M  V30 23 C -4.371026 -4.983026 0.252410 0
M  V30 24 C -4.434766 -3.895208 1.105598 0
M  V30 25 F -5.593267 -3.396052 1.608308 0
M  V30 26 C -3.284458 -3.222260 1.516189 0
M  V30 27 C -2.086225 -3.701248 1.025247 0
M  V30 28 H 1.666757 -1.936778 0.933348 0
M  V30 29 H 1.410847 -2.276863 2.660945 0
M  V30 30 H 1.519353 4.589731 1.296820 0
M  V30 31 H 3.253188 4.240172 0.996543 0
M  V30 32 H 1.563164 5.971834 -0.483450 0
M  V30 33 H 3.266992 5.619809 -0.800409 0
M  V30 34 H 3.578706 3.377594 -2.042813 0
M  V30 35 H 2.172089 2.963781 -3.078606 0
M  V30 36 H 2.526865 1.344779 -1.216651 0
M  V30 37 H 0.883268 2.054949 -1.384823 0
M  V30 38 H 1.978501 3.381619 2.874271 0
M  V30 39 H 1.183805 -0.529645 4.193422 0
M  V30 40 H 1.172631 -4.103933 0.863210 0
M  V30 41 H 0.019317 -5.137537 1.874472 0
M  V30 42 H -0.311908 -6.099858 -0.260021 0
M  V30 43 H -0.295952 -4.411978 -1.033631 0
M  V30 44 H -5.336445 -5.433957 -0.003659 0
M  V30 45 H -3.317210 -2.367429 2.184917 0
M  V30 END ATOM
M  V30 BEGIN BOND
M  V30 1 2 1 2
M  V30 2 1 2 3
M  V30 3 1 3 4
M  V30 4 2 4 5
M  V30 5 1 5 6
M  V30 6 1 6 7
M  V30 7 1 7 8
M  V30 8 1 8 9
M  V30 9 1 9 10
M  V30 10 1 10 11
M  V30 11 1 11 12
M  V30 12 2 6 13
M  V30 13 1 13 14
M  V30 14 2 14 15
M  V30 15 1 14 16
M  V30 16 1 2 17
M  V30 17 1 17 18
M  V30 18 1 18 19
M  V30 19 1 19 20
M  V30 20 2 20 21
M  V30 21 1 21 22
M  V30 22 1 21 23
M  V30 23 2 23 24
M  V30 24 1 24 25
M  V30 25 1 24 26
M  V30 26 2 26 27
M  V30 27 1 16 4
M  V30 28 1 27 17
M  V30 29 1 12 7
M  V30 30 1 27 20
M  V30 31 1 3 28
M  V30 32 1 3 29
M  V30 33 1 8 30
M  V30 34 1 8 31
M  V30 35 1 9 32
M  V30 36 1 9 33
M  V30 37 1 11 34
M  V30 38 1 11 35
M  V30 39 1 12 36
M  V30 40 1 12 37
M  V30 41 1 13 38
M  V30 42 1 16 39
M  V30 43 1 18 40
M  V30 44 1 18 41
M  V30 45 1 19 42
M  V30 46 1 19 43
M  V30 47 1 23 44
M  V30 48 1 26 45
M  V30 END BOND
M  V30 END CTAB
M  END
>  <Dataset>  (288) 
ChEMBL_Kinases

>  <Ligand_Instance>  (288) 
nan

>  <PDB_ID>  (288) 
nan

>  <Standardized_SMILES>  (288) 
O=C(Cc1nc(N2CCOCC2)cc(=O)[nH]1)N1CCc2c(F)cc(F)cc21

>  <Name>  (288) 
nan

>  <Pocket>  (288) 
nan

>  <ATP_Site>  (288) 
nan

>  <Peripheral>  (288) 
nan

>  <Num_H_Atoms_ProtBoundConf>  (288) 
nan

>  <Num_Resolved_Atoms>  (288) 
nan

>  <Num_Not_Resolved_Atoms>  (288) 
nan

$$$$
CHEMBL3696299
     RDKit          3D

  0  0  0  0  0  0  0  0  0  0999 V3000
M  V30 BEGIN CTAB
M  V30 COUNTS 44 46 0 0 0
M  V30 BEGIN ATOM
M  V30 1 C 1.374927 -3.589490 -0.638377 0
M  V30 2 N 0.513597 -2.852268 0.286765 0
M  V30 3 C 1.006175 -1.792051 0.954617 0
M  V30 4 C 2.411493 -1.337930 0.781772 0
M  V30 5 C 2.437842 -0.336262 -0.345607 0
M  V30 6 O 1.212092 -0.346234 -0.630912 0
M  V30 7 N 3.604215 0.319726 -0.805797 0
M  V30 8 C 3.209923 1.187635 -1.883771 0
M  V30 9 C 3.167449 0.836542 -3.224339 0
M  V30 10 C 2.766275 1.779813 -4.149181 0
M  V30 11 C 2.416804 3.040642 -3.745017 0
M  V30 12 F 2.026647 3.947396 -4.673299 0
M  V30 13 C 2.449234 3.421665 -2.410115 0
M  V30 14 I 1.889881 5.384859 -1.913010 0
M  V30 15 C 2.854604 2.458111 -1.504214 0
M  V30 16 N 0.193744 -1.126492 1.803938 0
M  V30 17 C -1.089788 -1.485938 2.005600 0
M  V30 18 N -1.942626 -0.782421 2.901822 0
M  V30 19 C -3.332321 -1.135625 3.135868 0
M  V30 20 C -3.701054 -0.621968 4.523263 0
M  V30 21 O -2.636286 -0.855696 5.377809 0
M  V30 22 C -1.512000 -0.110664 5.115377 0
M  V30 23 C -1.489520 0.364830 3.670104 0
M  V30 24 C -1.625248 -2.567936 1.336607 0
M  V30 25 C -0.763231 -3.242675 0.460854 0
M  V30 26 O -1.180779 -4.236744 -0.182402 0
M  V30 27 H 0.805174 -4.420485 -1.084511 0
M  V30 28 H 1.773256 -2.924693 -1.402829 0
M  V30 29 H 2.233327 -4.011916 -0.047406 0
M  V30 30 H 2.702207 -0.805219 1.699900 0
M  V30 31 H 3.097461 -2.181342 0.578846 0
M  V30 32 H 4.457902 0.050518 -0.294469 0
M  V30 33 H 3.466157 -0.186560 -3.418274 0
M  V30 34 H 2.749484 1.456141 -5.187511 0
M  V30 35 H 2.872744 2.779590 -0.459413 0
M  V30 36 H -4.002322 -0.697264 2.372868 0
M  V30 37 H -3.379946 -2.243440 3.171206 0
M  V30 38 H -3.947213 0.443852 4.422852 0
M  V30 39 H -4.577368 -1.157051 4.911083 0
M  V30 40 H -0.587240 -0.752314 5.205926 0
M  V30 41 H -1.380223 0.716906 5.831020 0
M  V30 42 H -2.104562 1.256989 3.503939 0
M  V30 43 H -0.422384 0.628286 3.411647 0
M  V30 44 H -2.620616 -2.943643 1.414358 0
M  V30 END ATOM
M  V30 BEGIN BOND
M  V30 1 1 1 2
M  V30 2 1 2 3
M  V30 3 1 3 4
M  V30 4 1 4 5
M  V30 5 2 5 6
M  V30 6 1 5 7
M  V30 7 1 7 8
M  V30 8 2 8 9
M  V30 9 1 9 10
M  V30 10 2 10 11
M  V30 11 1 11 12
M  V30 12 1 11 13
M  V30 13 1 13 14
M  V30 14 2 13 15
M  V30 15 2 3 16
M  V30 16 1 16 17
M  V30 17 1 17 18
M  V30 18 1 18 19
M  V30 19 1 19 20
M  V30 20 1 20 21
M  V30 21 1 21 22
M  V30 22 1 22 23
M  V30 23 2 17 24
M  V30 24 1 24 25
M  V30 25 2 25 26
M  V30 26 1 25 2
M  V30 27 1 15 8
M  V30 28 1 23 18
M  V30 29 1 1 27
M  V30 30 1 1 28
M  V30 31 1 1 29
M  V30 32 1 4 30
M  V30 33 1 4 31
M  V30 34 1 7 32
M  V30 35 1 9 33
M  V30 36 1 10 34
M  V30 37 1 15 35
M  V30 38 1 19 36
M  V30 39 1 19 37
M  V30 40 1 20 38
M  V30 41 1 20 39
M  V30 42 1 22 40
M  V30 43 1 22 41
M  V30 44 1 23 42
M  V30 45 1 23 43
M  V30 46 1 24 44
M  V30 END BOND
M  V30 END CTAB
M  END
>  <Dataset>  (289) 
ChEMBL_Kinases

>  <Ligand_Instance>  (289) 
nan

>  <PDB_ID>  (289) 
nan

>  <Standardized_SMILES>  (289) 
Cn1c(CC(=O)Nc2ccc(F)c(I)c2)nc(N2CCOCC2)cc1=O

>  <Name>  (289) 
nan

>  <Pocket>  (289) 
nan

>  <ATP_Site>  (289) 
nan

>  <Peripheral>  (289) 
nan

>  <Num_H_Atoms_ProtBoundConf>  (289) 
nan

>  <Num_Resolved_Atoms>  (289) 
nan

>  <Num_Not_Resolved_Atoms>  (289) 
nan

$$$$
CHEMBL3696300
     RDKit          3D

  0  0  0  0  0  0  0  0  0  0999 V3000
M  V30 BEGIN CTAB
M  V30 COUNTS 45 48 0 0 0
M  V30 BEGIN ATOM
M  V30 1 O -0.821291 -0.476361 2.036922 0
M  V30 2 C -0.398247 -1.644051 1.865141 0
M  V30 3 C 1.042659 -1.926917 1.610940 0
M  V30 4 C 1.756263 -0.622551 1.614408 0
M  V30 5 N 1.926571 0.110813 0.504534 0
M  V30 6 C 2.564773 1.293516 0.465122 0
M  V30 7 N 2.726165 2.047620 -0.742417 0
M  V30 8 C 2.133950 1.408589 -1.913428 0
M  V30 9 C 2.498556 2.212990 -3.150902 0
M  V30 10 O 3.651928 2.965978 -2.937586 0
M  V30 11 C 3.415100 3.959351 -1.988819 0
M  V30 12 C 3.430918 3.294095 -0.628341 0
M  V30 13 C 3.052654 1.715782 1.703081 0
M  V30 14 C 2.893076 0.987834 2.850368 0
M  V30 15 O 3.358509 1.424858 3.941394 0
M  V30 16 N 2.244303 -0.183009 2.807654 0
M  V30 17 N -1.334990 -2.734422 1.916265 0
M  V30 18 C -1.010494 -4.137580 1.739032 0
M  V30 19 C -2.252162 -4.645268 1.033668 0
M  V30 20 C -3.295154 -3.762690 1.615597 0
M  V30 21 C -2.723772 -2.605007 2.148449 0
M  V30 22 C -3.473862 -1.618433 2.749535 0
M  V30 23 C -4.849477 -1.838891 2.798593 0
M  V30 24 C -5.457007 -2.981781 2.277714 0
M  V30 25 F -6.793550 -3.088898 2.380939 0
M  V30 26 C -4.655669 -3.923246 1.693948 0
M  V30 27 F -5.248345 -5.026966 1.191626 0
M  V30 28 H 1.118568 -2.424568 0.624775 0
M  V30 29 H 1.479429 -2.596491 2.376922 0
M  V30 30 H 1.045929 1.350117 -1.838488 0
M  V30 31 H 2.565432 0.414663 -2.022895 0
M  V30 32 H 2.710652 1.517315 -3.982970 0
M  V30 33 H 1.642012 2.847259 -3.461122 0
M  V30 34 H 2.450548 4.462339 -2.188620 0
M  V30 35 H 4.276009 4.658352 -2.036307 0
M  V30 36 H 2.989381 3.954894 0.146287 0
M  V30 37 H 4.501069 3.167267 -0.349502 0
M  V30 38 H 3.578648 2.681734 1.693797 0
M  V30 39 H 2.115269 -0.743143 3.660403 0
M  V30 40 H -0.088019 -4.283189 1.147034 0
M  V30 41 H -0.959586 -4.628310 2.731142 0
M  V30 42 H -2.443398 -5.715066 1.249054 0
M  V30 43 H -2.095645 -4.473813 -0.051431 0
M  V30 44 H -3.021779 -0.734366 3.154578 0
M  V30 45 H -5.417091 -1.033350 3.284049 0
M  V30 END ATOM
M  V30 BEGIN BOND
M  V30 1 2 1 2
M  V30 2 1 2 3
M  V30 3 1 3 4
M  V30 4 2 4 5
M  V30 5 1 5 6
M  V30 6 1 6 7
M  V30 7 1 7 8
M  V30 8 1 8 9
M  V30 9 1 9 10
M  V30 10 1 10 11
M  V30 11 1 11 12
M  V30 12 2 6 13
M  V30 13 1 13 14
M  V30 14 2 14 15
M  V30 15 1 14 16
M  V30 16 1 2 17
M  V30 17 1 17 18
M  V30 18 1 18 19
M  V30 19 1 19 20
M  V30 20 2 20 21
M  V30 21 1 21 22
M  V30 22 2 22 23
M  V30 23 1 23 24
M  V30 24 1 24 25
M  V30 25 2 24 26
M  V30 26 1 26 27
M  V30 27 1 16 4
M  V30 28 1 21 17
M  V30 29 1 12 7
M  V30 30 1 26 20
M  V30 31 1 3 28
M  V30 32 1 3 29
M  V30 33 1 8 30
M  V30 34 1 8 31
M  V30 35 1 9 32
M  V30 36 1 9 33
M  V30 37 1 11 34
M  V30 38 1 11 35
M  V30 39 1 12 36
M  V30 40 1 12 37
M  V30 41 1 13 38
M  V30 42 1 16 39
M  V30 43 1 18 40
M  V30 44 1 18 41
M  V30 45 1 19 42
M  V30 46 1 19 43
M  V30 47 1 22 44
M  V30 48 1 23 45
M  V30 END BOND
M  V30 END CTAB
M  END
>  <Dataset>  (290) 
ChEMBL_Kinases

>  <Ligand_Instance>  (290) 
nan

>  <PDB_ID>  (290) 
nan

>  <Standardized_SMILES>  (290) 
O=C(Cc1nc(N2CCOCC2)cc(=O)[nH]1)N1CCc2c1ccc(F)c2F

>  <Name>  (290) 
nan

>  <Pocket>  (290) 
nan

>  <ATP_Site>  (290) 
nan

>  <Peripheral>  (290) 
nan

>  <Num_H_Atoms_ProtBoundConf>  (290) 
nan

>  <Num_Resolved_Atoms>  (290) 
nan

>  <Num_Not_Resolved_Atoms>  (290) 
nan

$$$$
CHEMBL3696292
     RDKit          3D

  0  0  0  0  0  0  0  0  0  0999 V3000
M  V30 BEGIN CTAB
M  V30 COUNTS 51 54 0 0 0
M  V30 BEGIN ATOM
M  V30 1 C 0.792852 -4.145150 2.844152 0
M  V30 2 N -0.203549 -3.610498 1.936329 0
M  V30 3 C 0.241529 -3.293482 0.705431 0
M  V30 4 C 1.601283 -3.396666 0.173388 0
M  V30 5 C 2.316536 -2.084700 0.073738 0
M  V30 6 O 3.582276 -2.043832 0.248770 0
M  V30 7 N 1.630465 -0.859540 -0.209099 0
M  V30 8 C 2.273053 0.424767 -0.321141 0
M  V30 9 C 2.737089 1.089529 -1.448602 0
M  V30 10 C 3.349687 2.309421 -1.317280 0
M  V30 11 C 3.502706 2.869033 -0.073485 0
M  V30 12 C 3.063333 2.260630 1.096900 0
M  V30 13 C 3.288023 2.860312 2.431665 0
M  V30 14 C 2.359897 3.805061 3.078673 0
M  V30 15 C 2.304363 2.390750 3.521180 0
M  V30 16 C 2.457685 1.046098 0.923048 0
M  V30 17 N -0.670005 -2.792965 -0.125508 0
M  V30 18 C -1.950299 -2.610336 0.219582 0
M  V30 19 N -2.873250 -1.982691 -0.686041 0
M  V30 20 C -2.707867 -0.522153 -0.617565 0
M  V30 21 C -3.916166 -0.058322 0.199632 0
M  V30 22 O -5.089705 -0.633702 -0.309265 0
M  V30 23 C -4.917574 -1.131111 -1.592469 0
M  V30 24 C -3.925228 -2.295001 -1.654924 0
M  V30 25 C -2.452241 -2.922765 1.465961 0
M  V30 26 C -1.482736 -3.449305 2.337115 0
M  V30 27 O -1.746004 -3.795704 3.533009 0
M  V30 28 H 1.032629 -5.191834 2.595335 0
M  V30 29 H 1.693629 -3.488113 2.946315 0
M  V30 30 H 0.339065 -4.191321 3.872185 0
M  V30 31 H 2.247607 -4.056141 0.871068 0
M  V30 32 H 1.634266 -3.882721 -0.803684 0
M  V30 33 H 0.586143 -0.850129 -0.340496 0
M  V30 34 H 2.532435 0.495826 -2.327975 0
M  V30 35 H 3.662025 2.745114 -2.273377 0
M  V30 36 H 3.995431 3.818975 -0.046184 0
M  V30 37 H 4.376495 2.900777 2.707878 0
M  V30 38 H 1.533712 4.230399 2.505166 0
M  V30 39 H 2.857042 4.473135 3.848538 0
M  V30 40 H 1.383715 1.858862 3.226111 0
M  V30 41 H 2.755158 2.029180 4.469250 0
M  V30 42 H 2.120722 0.571275 1.830751 0
M  V30 43 H -1.795961 -0.269392 -0.077610 0
M  V30 44 H -2.719413 -0.148045 -1.656904 0
M  V30 45 H -3.976816 1.032001 0.269054 0
M  V30 46 H -3.771169 -0.467397 1.216723 0
M  V30 47 H -4.631128 -0.337055 -2.311168 0
M  V30 48 H -5.893954 -1.534307 -1.903569 0
M  V30 49 H -3.411401 -2.205729 -2.645867 0
M  V30 50 H -4.409312 -3.260723 -1.507189 0
M  V30 51 H -3.459370 -2.827020 1.827116 0
M  V30 END ATOM
M  V30 BEGIN BOND
M  V30 1 1 1 2
M  V30 2 1 2 3
M  V30 3 1 3 4
M  V30 4 1 4 5
M  V30 5 2 5 6
M  V30 6 1 5 7
M  V30 7 1 7 8
M  V30 8 2 8 9
M  V30 9 1 9 10
M  V30 10 2 10 11
M  V30 11 1 11 12
M  V30 12 1 12 13
M  V30 13 1 13 14
M  V30 14 1 14 15
M  V30 15 2 12 16
M  V30 16 2 3 17
M  V30 17 1 17 18
M  V30 18 1 18 19
M  V30 19 1 19 20
M  V30 20 1 20 21
M  V30 21 1 21 22
M  V30 22 1 22 23
M  V30 23 1 23 24
M  V30 24 2 18 25
M  V30 25 1 25 26
M  V30 26 2 26 27
M  V30 27 1 26 2
M  V30 28 1 16 8
M  V30 29 1 24 19
M  V30 30 1 15 13
M  V30 31 1 1 28
M  V30 32 1 1 29
M  V30 33 1 1 30
M  V30 34 1 4 31
M  V30 35 1 4 32
M  V30 36 1 7 33
M  V30 37 1 9 34
M  V30 38 1 10 35
M  V30 39 1 11 36
M  V30 40 1 13 37
M  V30 41 1 14 38
M  V30 42 1 14 39
M  V30 43 1 15 40
M  V30 44 1 15 41
M  V30 45 1 16 42
M  V30 46 1 20 43
M  V30 47 1 20 44
M  V30 48 1 21 45
M  V30 49 1 21 46
M  V30 50 1 23 47
M  V30 51 1 23 48
M  V30 52 1 24 49
M  V30 53 1 24 50
M  V30 54 1 25 51
M  V30 END BOND
M  V30 END CTAB
M  END
>  <Dataset>  (291) 
ChEMBL_Kinases

>  <Ligand_Instance>  (291) 
nan

>  <PDB_ID>  (291) 
nan

>  <Standardized_SMILES>  (291) 
Cn1c(CC(=O)Nc2cccc(C3CC3)c2)nc(N2CCOCC2)cc1=O

>  <Name>  (291) 
nan

>  <Pocket>  (291) 
nan

>  <ATP_Site>  (291) 
nan

>  <Peripheral>  (291) 
nan

>  <Num_H_Atoms_ProtBoundConf>  (291) 
nan

>  <Num_Resolved_Atoms>  (291) 
nan

>  <Num_Not_Resolved_Atoms>  (291) 
nan

$$$$
CHEMBL3694811
     RDKit          3D

  0  0  0  0  0  0  0  0  0  0999 V3000
M  V30 BEGIN CTAB
M  V30 COUNTS 49 51 0 0 0
M  V30 BEGIN ATOM
M  V30 1 C 0.441773 -5.868615 2.926389 0
M  V30 2 N 1.849753 -5.778141 2.600576 0
M  V30 3 C 2.475758 -4.517729 2.373137 0
M  V30 4 N 1.746744 -3.405043 2.463355 0
M  V30 5 C 2.248260 -2.164304 2.265504 0
M  V30 6 N 1.371451 -1.046543 2.388911 0
M  V30 7 C 0.620979 -0.500409 1.306005 0
M  V30 8 C 0.779393 -1.118294 0.078929 0
M  V30 9 C 0.105130 -0.684396 -1.058590 0
M  V30 10 C -0.746102 0.402985 -0.931805 0
M  V30 11 C -0.910272 1.029220 0.299062 0
M  V30 12 C -0.230866 0.583478 1.420526 0
M  V30 13 O -0.363369 1.176872 2.668685 0
M  V30 14 C 0.490073 2.243716 3.068109 0
M  V30 15 C -1.875823 2.172948 0.183740 0
M  V30 16 N -2.247954 2.153116 -1.196982 0
M  V30 17 C -3.172019 3.054963 -1.868903 0
M  V30 18 C -4.343609 2.299982 -2.473353 0
M  V30 19 C -3.732523 4.062008 -0.898874 0
M  V30 20 O -2.426451 3.670543 -2.882467 0
M  V30 21 C -1.588656 1.097981 -1.911407 0
M  V30 22 O -1.661481 0.769736 -3.120830 0
M  V30 23 N 3.573646 -2.061288 1.957592 0
M  V30 24 C 4.360097 -3.146616 1.852480 0
M  V30 25 C 3.835958 -4.420927 2.057740 0
M  V30 26 C 4.639797 -5.658994 1.959037 0
M  V30 27 F 5.944812 -5.361976 1.642603 0
M  V30 28 F 4.656906 -6.253244 3.212249 0
M  V30 29 F 4.119744 -6.531992 0.999405 0
M  V30 30 H -0.016615 -4.881138 3.127223 0
M  V30 31 H -0.153088 -6.302725 2.090936 0
M  V30 32 H 0.309850 -6.570308 3.775453 0
M  V30 33 H 2.377614 -6.666374 2.540840 0
M  V30 34 H 1.347272 -0.679619 3.365421 0
M  V30 35 H 1.434284 -1.972222 -0.068862 0
M  V30 36 H 0.231732 -1.170441 -2.016935 0
M  V30 37 H 1.382377 1.840055 3.591042 0
M  V30 38 H 0.779757 2.881377 2.205971 0
M  V30 39 H -0.072170 2.864073 3.769853 0
M  V30 40 H -2.818567 1.930656 0.756732 0
M  V30 41 H -1.471725 3.114617 0.560924 0
M  V30 42 H -5.204552 2.987422 -2.492932 0
M  V30 43 H -4.606013 1.475789 -1.778633 0
M  V30 44 H -4.103473 1.886817 -3.466704 0
M  V30 45 H -4.724820 4.406151 -1.314096 0
M  V30 46 H -3.891081 3.557283 0.067474 0
M  V30 47 H -3.084107 4.935976 -0.763854 0
M  V30 48 H -2.497049 3.105602 -3.692104 0
M  V30 49 H 5.412126 -3.049481 1.607028 0
M  V30 END ATOM
M  V30 BEGIN BOND
M  V30 1 1 1 2
M  V30 2 1 2 3
M  V30 3 2 3 4
M  V30 4 1 4 5
M  V30 5 1 5 6
M  V30 6 1 6 7
M  V30 7 2 7 8
M  V30 8 1 8 9
M  V30 9 2 9 10
M  V30 10 1 10 11
M  V30 11 2 11 12
M  V30 12 1 12 13
M  V30 13 1 13 14
M  V30 14 1 11 15
M  V30 15 1 15 16
M  V30 16 1 16 17
M  V30 17 1 17 18
M  V30 18 1 17 19
M  V30 19 1 17 20
M  V30 20 1 16 21
M  V30 21 2 21 22
M  V30 22 2 5 23
M  V30 23 1 23 24
M  V30 24 2 24 25
M  V30 25 1 25 26
M  V30 26 1 26 27
M  V30 27 1 26 28
M  V30 28 1 26 29
M  V30 29 1 25 3
M  V30 30 1 12 7
M  V30 31 1 21 10
M  V30 32 1 1 30
M  V30 33 1 1 31
M  V30 34 1 1 32
M  V30 35 1 2 33
M  V30 36 1 6 34
M  V30 37 1 8 35
M  V30 38 1 9 36
M  V30 39 1 14 37
M  V30 40 1 14 38
M  V30 41 1 14 39
M  V30 42 1 15 40
M  V30 43 1 15 41
M  V30 44 1 18 42
M  V30 45 1 18 43
M  V30 46 1 18 44
M  V30 47 1 19 45
M  V30 48 1 19 46
M  V30 49 1 19 47
M  V30 50 1 20 48
M  V30 51 1 24 49
M  V30 END BOND
M  V30 END CTAB
M  END
>  <Dataset>  (292) 
ChEMBL_Kinases

>  <Ligand_Instance>  (292) 
nan

>  <PDB_ID>  (292) 
nan

>  <Standardized_SMILES>  (292) 
CNc1nc(Nc2ccc3c(c2OC)CN(C(C)(C)O)C3=O)ncc1C(F)(F)F

>  <Name>  (292) 
nan

>  <Pocket>  (292) 
nan

>  <ATP_Site>  (292) 
nan

>  <Peripheral>  (292) 
nan

>  <Num_H_Atoms_ProtBoundConf>  (292) 
nan

>  <Num_Resolved_Atoms>  (292) 
nan

>  <Num_Not_Resolved_Atoms>  (292) 
nan

$$$$
CHEMBL3694810
     RDKit          3D

  0  0  0  0  0  0  0  0  0  0999 V3000
M  V30 BEGIN CTAB
M  V30 COUNTS 45 47 0 0 0
M  V30 BEGIN ATOM
M  V30 1 C -1.520490 -6.823076 -0.211782 0
M  V30 2 C -0.661143 -6.072099 -1.219853 0
M  V30 3 N -0.419621 -4.708446 -0.799349 0
M  V30 4 C -1.261634 -3.574391 -1.132176 0
M  V30 5 C -0.547327 -2.439006 -0.445682 0
M  V30 6 C 0.576023 -2.911597 0.198563 0
M  V30 7 C 1.368229 -2.018353 0.889308 0
M  V30 8 C 0.992386 -0.692588 0.898830 0
M  V30 9 C -0.116482 -0.166828 0.274323 0
M  V30 10 N -0.486893 1.201385 0.295607 0
M  V30 11 C 0.172660 2.278504 0.934993 0
M  V30 12 N -0.342613 3.513438 0.835815 0
M  V30 13 C 0.202350 4.596748 1.401351 0
M  V30 14 C 1.360609 4.471547 2.135316 0
M  V30 15 C 2.002995 5.632104 2.779399 0
M  V30 16 F 3.285508 5.789449 2.281749 0
M  V30 17 F 2.077315 5.508994 4.150145 0
M  V30 18 F 1.317788 6.794066 2.440991 0
M  V30 19 C 1.909890 3.228036 2.255099 0
M  V30 20 N 3.100270 2.987482 2.987893 0
M  V30 21 C 3.703837 1.677930 3.130471 0
M  V30 22 N 1.287808 2.215294 1.652692 0
M  V30 23 C -0.869098 -1.105466 -0.399262 0
M  V30 24 O -2.027738 -0.673799 -1.074503 0
M  V30 25 C -3.298808 -0.622831 -0.478514 0
M  V30 26 C 0.701109 -4.352791 0.002750 0
M  V30 27 O 1.593913 -5.121002 0.439116 0
M  V30 28 H -0.870774 -7.139372 0.617472 0
M  V30 29 H -2.119472 -7.622125 -0.663020 0
M  V30 30 H -2.233795 -6.062010 0.195391 0
M  V30 31 H -1.245694 -6.042319 -2.162254 0
M  V30 32 H 0.289731 -6.632507 -1.372176 0
M  V30 33 H -1.239042 -3.365238 -2.227019 0
M  V30 34 H -2.283916 -3.686812 -0.744907 0
M  V30 35 H 2.249631 -2.386325 1.395330 0
M  V30 36 H 1.656066 -0.064844 1.454273 0
M  V30 37 H -1.364167 1.429771 -0.234657 0
M  V30 38 H -0.273278 5.548917 1.273616 0
M  V30 39 H 3.570278 3.807001 3.453549 0
M  V30 40 H 4.345444 1.428500 2.261782 0
M  V30 41 H 4.351728 1.668526 4.040453 0
M  V30 42 H 2.953708 0.866596 3.259639 0
M  V30 43 H -3.278213 -0.561222 0.619755 0
M  V30 44 H -3.912984 -1.468494 -0.869787 0
M  V30 45 H -3.867259 0.296248 -0.800586 0
M  V30 END ATOM
M  V30 BEGIN BOND
M  V30 1 1 1 2
M  V30 2 1 2 3
M  V30 3 1 3 4
M  V30 4 1 4 5
M  V30 5 2 5 6
M  V30 6 1 6 7
M  V30 7 2 7 8
M  V30 8 1 8 9
M  V30 9 1 9 10
M  V30 10 1 10 11
M  V30 11 2 11 12
M  V30 12 1 12 13
M  V30 13 2 13 14
M  V30 14 1 14 15
M  V30 15 1 15 16
M  V30 16 1 15 17
M  V30 17 1 15 18
M  V30 18 1 14 19
M  V30 19 1 19 20
M  V30 20 1 20 21
M  V30 21 2 19 22
M  V30 22 2 9 23
M  V30 23 1 23 24
M  V30 24 1 24 25
M  V30 25 1 6 26
M  V30 26 2 26 27
M  V30 27 1 26 3
M  V30 28 1 23 5
M  V30 29 1 22 11
M  V30 30 1 1 28
M  V30 31 1 1 29
M  V30 32 1 1 30
M  V30 33 1 2 31
M  V30 34 1 2 32
M  V30 35 1 4 33
M  V30 36 1 4 34
M  V30 37 1 7 35
M  V30 38 1 8 36
M  V30 39 1 10 37
M  V30 40 1 13 38
M  V30 41 1 20 39
M  V30 42 1 21 40
M  V30 43 1 21 41
M  V30 44 1 21 42
M  V30 45 1 25 43
M  V30 46 1 25 44
M  V30 47 1 25 45
M  V30 END BOND
M  V30 END CTAB
M  END
>  <Dataset>  (293) 
ChEMBL_Kinases

>  <Ligand_Instance>  (293) 
nan

>  <PDB_ID>  (293) 
nan

>  <Standardized_SMILES>  (293) 
CCN1Cc2c(ccc(Nc3ncc(C(F)(F)F)c(NC)n3)c2OC)C1=O

>  <Name>  (293) 
nan

>  <Pocket>  (293) 
nan

>  <ATP_Site>  (293) 
nan

>  <Peripheral>  (293) 
nan

>  <Num_H_Atoms_ProtBoundConf>  (293) 
nan

>  <Num_Resolved_Atoms>  (293) 
nan

>  <Num_Not_Resolved_Atoms>  (293) 
nan

$$$$
CHEMBL3694809
     RDKit          3D

  0  0  0  0  0  0  0  0  0  0999 V3000
M  V30 BEGIN CTAB
M  V30 COUNTS 42 44 0 0 0
M  V30 BEGIN ATOM
M  V30 1 C -1.866845 -5.924145 1.523903 0
M  V30 2 N -0.576554 -5.974855 0.859328 0
M  V30 3 C 0.150169 -4.786343 0.566535 0
M  V30 4 N -0.341978 -3.610475 0.897500 0
M  V30 5 C 0.225127 -2.411086 0.687248 0
M  V30 6 N -0.446743 -1.243705 1.109719 0
M  V30 7 C -0.029439 0.104332 0.985941 0
M  V30 8 C 1.151676 0.520330 0.408303 0
M  V30 9 C 1.555857 1.822321 0.288095 0
M  V30 10 C 2.748958 2.183539 -0.299385 0
M  V30 11 N 3.082520 3.486107 -0.383393 0
M  V30 12 N 2.296440 4.449480 0.083896 0
M  V30 13 C 2.644010 5.855946 -0.000390 0
M  V30 14 C 1.106146 4.147045 0.673864 0
M  V30 15 O 0.341486 5.040042 1.125478 0
M  V30 16 C 0.739821 2.822328 0.773185 0
M  V30 17 C -0.435323 2.467544 1.351853 0
M  V30 18 C -0.812990 1.146839 1.457224 0
M  V30 19 O -2.028057 0.857787 2.060729 0
M  V30 20 C -2.893819 1.846951 2.570748 0
M  V30 21 N 1.400906 -2.471382 0.080710 0
M  V30 22 C 2.011754 -3.598613 -0.307815 0
M  V30 23 C 1.375066 -4.793487 -0.061606 0
M  V30 24 C 1.971517 -6.096197 -0.454600 0
M  V30 25 F 2.148854 -6.871837 0.676175 0
M  V30 26 F 1.139223 -6.807253 -1.290985 0
M  V30 27 F 3.182212 -5.960837 -1.061269 0
M  V30 28 H -1.700302 -5.761223 2.605538 0
M  V30 29 H -2.401450 -6.893324 1.366287 0
M  V30 30 H -2.482680 -5.116291 1.051588 0
M  V30 31 H -0.172020 -6.901094 0.590014 0
M  V30 32 H -1.390158 -1.369823 1.584900 0
M  V30 33 H 1.832985 -0.189098 0.011673 0
M  V30 34 H 3.379764 1.404056 -0.674797 0
M  V30 35 H 3.735539 6.002943 -0.143601 0
M  V30 36 H 2.386068 6.403817 0.944181 0
M  V30 37 H 2.161554 6.335201 -0.863942 0
M  V30 38 H -1.070399 3.250984 1.729583 0
M  V30 39 H -2.253253 2.515463 3.218008 0
M  V30 40 H -3.351097 2.489340 1.813139 0
M  V30 41 H -3.624999 1.404518 3.277715 0
M  V30 42 H 2.975348 -3.568389 -0.799566 0
M  V30 END ATOM
M  V30 BEGIN BOND
M  V30 1 1 1 2
M  V30 2 1 2 3
M  V30 3 2 3 4
M  V30 4 1 4 5
M  V30 5 1 5 6
M  V30 6 1 6 7
M  V30 7 2 7 8
M  V30 8 1 8 9
M  V30 9 1 9 10
M  V30 10 2 10 11
M  V30 11 1 11 12
M  V30 12 1 12 13
M  V30 13 1 12 14
M  V30 14 2 14 15
M  V30 15 1 14 16
M  V30 16 1 16 17
M  V30 17 2 17 18
M  V30 18 1 18 19
M  V30 19 1 19 20
M  V30 20 2 5 21
M  V30 21 1 21 22
M  V30 22 2 22 23
M  V30 23 1 23 24
M  V30 24 1 24 25
M  V30 25 1 24 26
M  V30 26 1 24 27
M  V30 27 1 23 3
M  V30 28 1 18 7
M  V30 29 2 16 9
M  V30 30 1 1 28
M  V30 31 1 1 29
M  V30 32 1 1 30
M  V30 33 1 2 31
M  V30 34 1 6 32
M  V30 35 1 8 33
M  V30 36 1 10 34
M  V30 37 1 13 35
M  V30 38 1 13 36
M  V30 39 1 13 37
M  V30 40 1 17 38
M  V30 41 1 20 39
M  V30 42 1 20 40
M  V30 43 1 20 41
M  V30 44 1 22 42
M  V30 END BOND
M  V30 END CTAB
M  END
>  <Dataset>  (294) 
ChEMBL_Kinases

>  <Ligand_Instance>  (294) 
nan

>  <PDB_ID>  (294) 
nan

>  <Standardized_SMILES>  (294) 
CNc1nc(Nc2cc3cnn(C)c(=O)c3cc2OC)ncc1C(F)(F)F

>  <Name>  (294) 
nan

>  <Pocket>  (294) 
nan

>  <ATP_Site>  (294) 
nan

>  <Peripheral>  (294) 
nan

>  <Num_H_Atoms_ProtBoundConf>  (294) 
nan

>  <Num_Resolved_Atoms>  (294) 
nan

>  <Num_Not_Resolved_Atoms>  (294) 
nan

$$$$
CHEMBL3694808
     RDKit          3D

  0  0  0  0  0  0  0  0  0  0999 V3000
M  V30 BEGIN CTAB
M  V30 COUNTS 43 45 0 0 0
M  V30 BEGIN ATOM
M  V30 1 C 0.074859 -3.591063 2.900118 0
M  V30 2 N -0.487454 -2.326274 2.974440 0
M  V30 3 C -1.057554 -1.042165 3.049104 0
M  V30 4 N -0.815036 0.098688 2.322823 0
M  V30 5 C -1.427619 1.259529 2.415878 0
M  V30 6 N -0.807607 2.130936 1.432753 0
M  V30 7 C 0.113875 1.535059 0.444846 0
M  V30 8 C -0.404295 0.237974 0.139704 0
M  V30 9 C 0.424747 -0.512632 -0.657079 0
M  V30 10 C 1.634386 -0.020131 -1.092907 0
M  V30 11 C 1.957316 1.238136 -0.725756 0
M  V30 12 C 1.315289 2.174163 0.043052 0
M  V30 13 O 1.219700 3.293372 0.562043 0
M  V30 14 C 1.209779 4.504620 1.071401 0
M  V30 15 C 2.682022 -0.860026 -1.686904 0
M  V30 16 O 3.770486 -0.456830 -2.100455 0
M  V30 17 N 2.314078 -2.253703 -1.743039 0
M  V30 18 C 3.275734 -3.291865 -2.127082 0
M  V30 19 C 1.047742 -2.823768 -1.391555 0
M  V30 20 C -0.030343 -1.819007 -1.192220 0
M  V30 21 N -2.388919 1.352327 3.310051 0
M  V30 22 C -2.730816 0.319330 4.088820 0
M  V30 23 C -2.068165 -0.865867 3.958345 0
M  V30 24 C -2.434582 -1.974096 4.824116 0
M  V30 25 N -2.735972 -2.859373 5.504878 0
M  V30 26 H 0.197784 -4.036787 1.873912 0
M  V30 27 H 1.093645 -3.728333 3.356950 0
M  V30 28 H -0.554697 -4.315842 3.519630 0
M  V30 29 H 0.154063 -2.050451 2.175840 0
M  V30 30 H -1.197112 3.076854 1.690095 0
M  V30 31 H -1.307187 -0.309847 0.333565 0
M  V30 32 H 2.884581 1.761254 -1.047702 0
M  V30 33 H 1.625239 5.331414 0.378218 0
M  V30 34 H 0.156480 4.930790 1.293784 0
M  V30 35 H 1.820973 4.683437 2.009434 0
M  V30 36 H 4.170945 -2.907455 -2.606335 0
M  V30 37 H 2.796479 -4.116438 -2.681166 0
M  V30 38 H 3.602203 -3.778127 -1.142047 0
M  V30 39 H 1.130748 -3.463836 -0.492805 0
M  V30 40 H 0.681997 -3.531769 -2.194756 0
M  V30 41 H -0.600958 -1.645576 -2.178334 0
M  V30 42 H -0.804695 -2.233303 -0.514064 0
M  V30 43 H -3.527171 0.507300 4.789192 0
M  V30 END ATOM
M  V30 BEGIN BOND
M  V30 1 1 1 2
M  V30 2 1 2 3
M  V30 3 2 3 4
M  V30 4 1 4 5
M  V30 5 1 5 6
M  V30 6 1 6 7
M  V30 7 2 7 8
M  V30 8 1 8 9
M  V30 9 2 9 10
M  V30 10 1 10 11
M  V30 11 2 11 12
M  V30 12 1 12 13
M  V30 13 1 13 14
M  V30 14 1 10 15
M  V30 15 2 15 16
M  V30 16 1 15 17
M  V30 17 1 17 18
M  V30 18 1 17 19
M  V30 19 1 19 20
M  V30 20 2 5 21
M  V30 21 1 21 22
M  V30 22 2 22 23
M  V30 23 1 23 24
M  V30 24 3 24 25
M  V30 25 1 23 3
M  V30 26 1 12 7
M  V30 27 1 20 9
M  V30 28 1 1 26
M  V30 29 1 1 27
M  V30 30 1 1 28
M  V30 31 1 2 29
M  V30 32 1 6 30
M  V30 33 1 8 31
M  V30 34 1 11 32
M  V30 35 1 14 33
M  V30 36 1 14 34
M  V30 37 1 14 35
M  V30 38 1 18 36
M  V30 39 1 18 37
M  V30 40 1 18 38
M  V30 41 1 19 39
M  V30 42 1 19 40
M  V30 43 1 20 41
M  V30 44 1 20 42
M  V30 45 1 22 43
M  V30 END BOND
M  V30 END CTAB
M  END
>  <Dataset>  (295) 
ChEMBL_Kinases

>  <Ligand_Instance>  (295) 
nan

>  <PDB_ID>  (295) 
nan

>  <Standardized_SMILES>  (295) 
CNc1nc(Nc2cc3c(cc2OC)C(=O)N(C)CC3)ncc1C#N

>  <Name>  (295) 
nan

>  <Pocket>  (295) 
nan

>  <ATP_Site>  (295) 
nan

>  <Peripheral>  (295) 
nan

>  <Num_H_Atoms_ProtBoundConf>  (295) 
nan

>  <Num_Resolved_Atoms>  (295) 
nan

>  <Num_Not_Resolved_Atoms>  (295) 
nan

$$$$
CHEMBL3694807
     RDKit          3D

  0  0  0  0  0  0  0  0  0  0999 V3000
M  V30 BEGIN CTAB
M  V30 COUNTS 45 47 0 0 0
M  V30 BEGIN ATOM
M  V30 1 C 0.188474 -3.493961 4.665513 0
M  V30 2 N -1.162950 -2.987432 4.634948 0
M  V30 3 C -1.558750 -1.757239 4.043890 0
M  V30 4 N -0.609963 -1.000261 3.466023 0
M  V30 5 C -0.879691 0.180891 2.877666 0
M  V30 6 N 0.215173 0.885912 2.303486 0
M  V30 7 C 0.751080 0.766607 0.974367 0
M  V30 8 C 0.137745 -0.156721 0.137500 0
M  V30 9 C 0.680625 -0.259283 -1.150632 0
M  V30 10 C 1.754016 0.533869 -1.501484 0
M  V30 11 C 2.320146 1.433915 -0.623663 0
M  V30 12 C 1.822821 1.573817 0.658435 0
M  V30 13 O 2.351230 2.457955 1.575888 0
M  V30 14 C 3.463937 3.257320 1.164214 0
M  V30 15 C 2.310496 0.418846 -2.845016 0
M  V30 16 O 3.273201 1.080149 -3.270457 0
M  V30 17 N 1.659514 -0.535119 -3.676256 0
M  V30 18 C 2.015700 -0.502672 -5.099389 0
M  V30 19 C 0.680097 -1.547507 -3.294346 0
M  V30 20 C -0.012185 -1.264645 -2.007428 0
M  V30 21 N -2.170321 0.566222 2.900998 0
M  V30 22 C -3.141918 -0.158641 3.465489 0
M  V30 23 C -2.860300 -1.367856 4.066992 0
M  V30 24 C -3.859287 -2.238679 4.715353 0
M  V30 25 F -3.547184 -2.428729 6.059336 0
M  V30 26 F -4.039979 -3.451436 4.128511 0
M  V30 27 F -5.079342 -1.552777 4.644831 0
M  V30 28 H 0.208984 -4.565266 4.420456 0
M  V30 29 H 0.745204 -2.922038 3.870915 0
M  V30 30 H 0.705280 -3.329465 5.634115 0
M  V30 31 H -1.843593 -3.631879 5.102896 0
M  V30 32 H 0.582637 1.528845 3.027408 0
M  V30 33 H -0.700596 -0.743466 0.482975 0
M  V30 34 H 3.163258 2.033014 -0.951594 0
M  V30 35 H 4.245918 2.562008 0.743851 0
M  V30 36 H 3.086285 3.933445 0.374599 0
M  V30 37 H 3.846021 3.853476 2.018691 0
M  V30 38 H 3.099936 -0.247264 -5.217517 0
M  V30 39 H 1.378966 0.195512 -5.673544 0
M  V30 40 H 1.871237 -1.494029 -5.583928 0
M  V30 41 H 1.148695 -2.554907 -3.245361 0
M  V30 42 H -0.090533 -1.539402 -4.113044 0
M  V30 43 H -0.108236 -2.213191 -1.437389 0
M  V30 44 H -1.047685 -0.879817 -2.209683 0
M  V30 45 H -4.165330 0.188872 3.461531 0
M  V30 END ATOM
M  V30 BEGIN BOND
M  V30 1 1 1 2
M  V30 2 1 2 3
M  V30 3 2 3 4
M  V30 4 1 4 5
M  V30 5 1 5 6
M  V30 6 1 6 7
M  V30 7 2 7 8
M  V30 8 1 8 9
M  V30 9 2 9 10
M  V30 10 1 10 11
M  V30 11 2 11 12
M  V30 12 1 12 13
M  V30 13 1 13 14
M  V30 14 1 10 15
M  V30 15 2 15 16
M  V30 16 1 15 17
M  V30 17 1 17 18
M  V30 18 1 17 19
M  V30 19 1 19 20
M  V30 20 2 5 21
M  V30 21 1 21 22
M  V30 22 2 22 23
M  V30 23 1 23 24
M  V30 24 1 24 25
M  V30 25 1 24 26
M  V30 26 1 24 27
M  V30 27 1 23 3
M  V30 28 1 12 7
M  V30 29 1 20 9
M  V30 30 1 1 28
M  V30 31 1 1 29
M  V30 32 1 1 30
M  V30 33 1 2 31
M  V30 34 1 6 32
M  V30 35 1 8 33
M  V30 36 1 11 34
M  V30 37 1 14 35
M  V30 38 1 14 36
M  V30 39 1 14 37
M  V30 40 1 18 38
M  V30 41 1 18 39
M  V30 42 1 18 40
M  V30 43 1 19 41
M  V30 44 1 19 42
M  V30 45 1 20 43
M  V30 46 1 20 44
M  V30 47 1 22 45
M  V30 END BOND
M  V30 END CTAB
M  END
>  <Dataset>  (296) 
ChEMBL_Kinases

>  <Ligand_Instance>  (296) 
nan

>  <PDB_ID>  (296) 
nan

>  <Standardized_SMILES>  (296) 
CNc1nc(Nc2cc3c(cc2OC)C(=O)N(C)CC3)ncc1C(F)(F)F

>  <Name>  (296) 
nan

>  <Pocket>  (296) 
nan

>  <ATP_Site>  (296) 
nan

>  <Peripheral>  (296) 
nan

>  <Num_H_Atoms_ProtBoundConf>  (296) 
nan

>  <Num_Resolved_Atoms>  (296) 
nan

>  <Num_Not_Resolved_Atoms>  (296) 
nan

$$$$
CHEMBL3694806
     RDKit          3D

  0  0  0  0  0  0  0  0  0  0999 V3000
M  V30 BEGIN CTAB
M  V30 COUNTS 30 32 0 0 0
M  V30 BEGIN ATOM
M  V30 1 C -2.611588 -2.599906 3.041792 0
M  V30 2 N -2.711358 -3.282478 1.743795 0
M  V30 3 C -1.557782 -3.185934 0.884008 0
M  V30 4 N -0.449863 -2.509594 1.241414 0
M  V30 5 C 0.652062 -2.408940 0.440685 0
M  V30 6 N 1.638147 -1.631566 1.105397 0
M  V30 7 C 1.812176 -0.229409 0.942826 0
M  V30 8 C 0.924064 0.388976 0.063378 0
M  V30 9 C 1.115748 1.746631 -0.081283 0
M  V30 10 O 0.428926 2.593576 -0.844125 0
M  V30 11 C 0.944140 3.808148 -0.687013 0
M  V30 12 O 0.418991 4.761771 -1.339336 0
M  V30 13 N 1.972839 3.780867 0.177334 0
M  V30 14 C 2.078163 2.497594 0.553034 0
M  V30 15 C 2.941115 1.855986 1.416627 0
M  V30 16 C 2.804909 0.497147 1.607698 0
M  V30 17 Cl 3.863414 -0.388727 2.689183 0
M  V30 18 N 0.655239 -3.004846 -0.768062 0
M  V30 19 C -0.431389 -3.707590 -1.198958 0
M  V30 20 C -1.535568 -3.797384 -0.373443 0
M  V30 21 Cl -2.940370 -4.694715 -0.911946 0
M  V30 22 H -3.541211 -2.651112 3.610977 0
M  V30 23 H -2.292982 -1.557560 2.827386 0
M  V30 24 H -1.747973 -3.126915 3.543030 0
M  V30 25 H -3.515974 -3.822710 1.380867 0
M  V30 26 H 2.275279 -2.121448 1.777101 0
M  V30 27 H 0.140932 -0.104887 -0.478356 0
M  V30 28 H 2.528766 4.616162 0.453635 0
M  V30 29 H 3.708066 2.415522 1.931424 0
M  V30 30 H -0.364041 -4.153799 -2.166162 0
M  V30 END ATOM
M  V30 BEGIN BOND
M  V30 1 1 1 2
M  V30 2 1 2 3
M  V30 3 2 3 4
M  V30 4 1 4 5
M  V30 5 1 5 6
M  V30 6 1 6 7
M  V30 7 2 7 8
M  V30 8 1 8 9
M  V30 9 1 9 10
M  V30 10 1 10 11
M  V30 11 2 11 12
M  V30 12 1 11 13
M  V30 13 1 13 14
M  V30 14 1 14 15
M  V30 15 2 15 16
M  V30 16 1 16 17
M  V30 17 2 5 18
M  V30 18 1 18 19
M  V30 19 2 19 20
M  V30 20 1 20 21
M  V30 21 1 20 3
M  V30 22 1 16 7
M  V30 23 2 14 9
M  V30 24 1 1 22
M  V30 25 1 1 23
M  V30 26 1 1 24
M  V30 27 1 2 25
M  V30 28 1 6 26
M  V30 29 1 8 27
M  V30 30 1 13 28
M  V30 31 1 15 29
M  V30 32 1 19 30
M  V30 END BOND
M  V30 END CTAB
M  END
>  <Dataset>  (297) 
ChEMBL_Kinases

>  <Ligand_Instance>  (297) 
nan

>  <PDB_ID>  (297) 
nan

>  <Standardized_SMILES>  (297) 
CNc1nc(Nc2cc3oc(=O)[nH]c3cc2Cl)ncc1Cl

>  <Name>  (297) 
nan

>  <Pocket>  (297) 
nan

>  <ATP_Site>  (297) 
nan

>  <Peripheral>  (297) 
nan

>  <Num_H_Atoms_ProtBoundConf>  (297) 
nan

>  <Num_Resolved_Atoms>  (297) 
nan

>  <Num_Not_Resolved_Atoms>  (297) 
nan

$$$$
CHEMBL3694805
     RDKit          3D

  0  0  0  0  0  0  0  0  0  0999 V3000
M  V30 BEGIN CTAB
M  V30 COUNTS 49 51 0 0 0
M  V30 BEGIN ATOM
M  V30 1 C -1.482457 -4.511958 1.124850 0
M  V30 2 N -0.539396 -4.883930 2.145113 0
M  V30 3 C 0.526083 -4.127799 2.690424 0
M  V30 4 N 0.791796 -2.891567 2.285483 0
M  V30 5 C 1.763575 -2.093768 2.726989 0
M  V30 6 N 2.057513 -0.773526 2.303461 0
M  V30 7 C 1.389976 -0.003624 1.319710 0
M  V30 8 C 0.304719 -0.439773 0.591828 0
M  V30 9 C -0.357973 0.294267 -0.369155 0
M  V30 10 C 0.081260 1.572597 -0.643457 0
M  V30 11 C 1.159395 2.045870 0.059004 0
M  V30 12 C 1.804193 1.292733 1.014133 0
M  V30 13 O 2.880507 1.806684 1.693987 0
M  V30 14 C 3.328474 3.117077 1.410803 0
M  V30 15 N -0.565511 2.372620 -1.624553 0
M  V30 16 C -0.068184 3.728326 -1.887786 0
M  V30 17 C -1.698351 1.860051 -2.354789 0
M  V30 18 O -1.976694 2.417200 -3.447158 0
M  V30 19 C -2.384782 0.722771 -1.692390 0
M  V30 20 C -3.315949 1.307868 -0.663852 0
M  V30 21 C -3.177980 -0.108801 -2.675203 0
M  V30 22 O -1.438446 -0.166558 -1.080091 0
M  V30 23 N 2.522101 -2.652908 3.681829 0
M  V30 24 C 2.367251 -3.876457 4.177581 0
M  V30 25 C 1.344379 -4.635653 3.671273 0
M  V30 26 C 1.108209 -6.008685 4.172799 0
M  V30 27 F 1.218312 -6.945238 3.148303 0
M  V30 28 F 2.046504 -6.317190 5.139886 0
M  V30 29 F -0.175358 -6.163001 4.699969 0
M  V30 30 H -1.172875 -3.560281 0.686353 0
M  V30 31 H -2.520648 -4.416433 1.542557 0
M  V30 32 H -1.550436 -5.298552 0.317445 0
M  V30 33 H -0.706751 -5.835097 2.489246 0
M  V30 34 H 2.874063 -0.289880 2.770841 0
M  V30 35 H -0.099735 -1.408756 0.736942 0
M  V30 36 H 1.514443 3.047118 -0.146162 0
M  V30 37 H 3.768885 3.172390 0.377815 0
M  V30 38 H 2.492730 3.863688 1.462940 0
M  V30 39 H 4.071182 3.458398 2.169482 0
M  V30 40 H -0.209327 4.375882 -1.005915 0
M  V30 41 H 1.033917 3.661235 -2.062497 0
M  V30 42 H -0.509847 4.110579 -2.819647 0
M  V30 43 H -3.542137 0.572222 0.162017 0
M  V30 44 H -2.889588 2.248403 -0.219548 0
M  V30 45 H -4.270728 1.562087 -1.156929 0
M  V30 46 H -2.605799 -1.001575 -3.015004 0
M  V30 47 H -3.576732 0.489567 -3.530816 0
M  V30 48 H -4.042386 -0.530477 -2.085585 0
M  V30 49 H 3.021501 -4.265598 4.953074 0
M  V30 END ATOM
M  V30 BEGIN BOND
M  V30 1 1 1 2
M  V30 2 1 2 3
M  V30 3 2 3 4
M  V30 4 1 4 5
M  V30 5 1 5 6
M  V30 6 1 6 7
M  V30 7 2 7 8
M  V30 8 1 8 9
M  V30 9 2 9 10
M  V30 10 1 10 11
M  V30 11 2 11 12
M  V30 12 1 12 13
M  V30 13 1 13 14
M  V30 14 1 10 15
M  V30 15 1 15 16
M  V30 16 1 15 17
M  V30 17 2 17 18
M  V30 18 1 17 19
M  V30 19 1 19 20
M  V30 20 1 19 21
M  V30 21 1 19 22
M  V30 22 2 5 23
M  V30 23 1 23 24
M  V30 24 2 24 25
M  V30 25 1 25 26
M  V30 26 1 26 27
M  V30 27 1 26 28
M  V30 28 1 26 29
M  V30 29 1 25 3
M  V30 30 1 12 7
M  V30 31 1 22 9
M  V30 32 1 1 30
M  V30 33 1 1 31
M  V30 34 1 1 32
M  V30 35 1 2 33
M  V30 36 1 6 34
M  V30 37 1 8 35
M  V30 38 1 11 36
M  V30 39 1 14 37
M  V30 40 1 14 38
M  V30 41 1 14 39
M  V30 42 1 16 40
M  V30 43 1 16 41
M  V30 44 1 16 42
M  V30 45 1 20 43
M  V30 46 1 20 44
M  V30 47 1 20 45
M  V30 48 1 21 46
M  V30 49 1 21 47
M  V30 50 1 21 48
M  V30 51 1 24 49
M  V30 END BOND
M  V30 END CTAB
M  END
>  <Dataset>  (298) 
ChEMBL_Kinases

>  <Ligand_Instance>  (298) 
nan

>  <PDB_ID>  (298) 
nan

>  <Standardized_SMILES>  (298) 
CNc1nc(Nc2cc3c(cc2OC)N(C)C(=O)C(C)(C)O3)ncc1C(F)(F)F

>  <Name>  (298) 
nan

>  <Pocket>  (298) 
nan

>  <ATP_Site>  (298) 
nan

>  <Peripheral>  (298) 
nan

>  <Num_H_Atoms_ProtBoundConf>  (298) 
nan

>  <Num_Resolved_Atoms>  (298) 
nan

>  <Num_Not_Resolved_Atoms>  (298) 
nan

$$$$
CHEMBL3694804
     RDKit          3D

  0  0  0  0  0  0  0  0  0  0999 V3000
M  V30 BEGIN CTAB
M  V30 COUNTS 42 44 0 0 0
M  V30 BEGIN ATOM
M  V30 1 C 2.108552 -5.047553 0.784916 0
M  V30 2 N 1.302627 -5.205717 -0.409390 0
M  V30 3 C 0.808798 -4.032774 -1.069182 0
M  V30 4 N 1.086995 -2.807516 -0.590589 0
M  V30 5 C 0.655842 -1.660082 -1.159740 0
M  V30 6 N 1.032930 -0.438189 -0.535493 0
M  V30 7 C 0.328467 0.279183 0.481561 0
M  V30 8 C -0.852693 -0.319196 0.874636 0
M  V30 9 C -1.577693 0.340359 1.863456 0
M  V30 10 C -1.135588 1.528647 2.418352 0
M  V30 11 C 0.055930 2.078339 1.982548 0
M  V30 12 C 0.814143 1.461764 1.001725 0
M  V30 13 O 1.994863 1.986656 0.555441 0
M  V30 14 C 3.264818 1.703653 1.106535 0
M  V30 15 C 0.377387 3.359278 2.689558 0
M  V30 16 N -0.739904 3.524708 3.594024 0
M  V30 17 C -0.787588 4.679824 4.468714 0
M  V30 18 C -1.653607 2.441987 3.446783 0
M  V30 19 O -2.709210 2.308340 4.090108 0
M  V30 20 N -0.107388 -1.737586 -2.286730 0
M  V30 21 C -0.419964 -2.951704 -2.815265 0
M  V30 22 C 0.036457 -4.108864 -2.209503 0
M  V30 23 C -0.303547 -5.416899 -2.783766 0
M  V30 24 F 0.896613 -6.037382 -3.102513 0
M  V30 25 F -0.996608 -6.212243 -1.908831 0
M  V30 26 F -1.032227 -5.265916 -3.947772 0
M  V30 27 H 3.048279 -4.506037 0.520818 0
M  V30 28 H 2.406698 -6.034250 1.176570 0
M  V30 29 H 1.562473 -4.514576 1.585050 0
M  V30 30 H 1.062082 -6.135909 -0.815808 0
M  V30 31 H 1.934279 -0.223685 -1.012726 0
M  V30 32 H -1.216810 -1.246759 0.454804 0
M  V30 33 H -2.505927 -0.081205 2.207779 0
M  V30 34 H 3.355985 2.033442 2.170827 0
M  V30 35 H 4.017260 2.296222 0.544087 0
M  V30 36 H 3.559427 0.647188 1.032949 0
M  V30 37 H 0.334736 4.185913 1.957827 0
M  V30 38 H 1.347272 3.301723 3.220805 0
M  V30 39 H -0.747610 5.632084 3.906582 0
M  V30 40 H 0.028165 4.676304 5.234653 0
M  V30 41 H -1.740274 4.667162 5.019154 0
M  V30 42 H -1.029548 -2.941285 -3.711241 0
M  V30 END ATOM
M  V30 BEGIN BOND
M  V30 1 1 1 2
M  V30 2 1 2 3
M  V30 3 2 3 4
M  V30 4 1 4 5
M  V30 5 1 5 6
M  V30 6 1 6 7
M  V30 7 2 7 8
M  V30 8 1 8 9
M  V30 9 2 9 10
M  V30 10 1 10 11
M  V30 11 2 11 12
M  V30 12 1 12 13
M  V30 13 1 13 14
M  V30 14 1 11 15
M  V30 15 1 15 16
M  V30 16 1 16 17
M  V30 17 1 16 18
M  V30 18 2 18 19
M  V30 19 2 5 20
M  V30 20 1 20 21
M  V30 21 2 21 22
M  V30 22 1 22 23
M  V30 23 1 23 24
M  V30 24 1 23 25
M  V30 25 1 23 26
M  V30 26 1 22 3
M  V30 27 1 12 7
M  V30 28 1 18 10
M  V30 29 1 1 27
M  V30 30 1 1 28
M  V30 31 1 1 29
M  V30 32 1 2 30
M  V30 33 1 6 31
M  V30 34 1 8 32
M  V30 35 1 9 33
M  V30 36 1 14 34
M  V30 37 1 14 35
M  V30 38 1 14 36
M  V30 39 1 15 37
M  V30 40 1 15 38
M  V30 41 1 17 39
M  V30 42 1 17 40
M  V30 43 1 17 41
M  V30 44 1 21 42
M  V30 END BOND
M  V30 END CTAB
M  END
>  <Dataset>  (299) 
ChEMBL_Kinases

>  <Ligand_Instance>  (299) 
nan

>  <PDB_ID>  (299) 
nan

>  <Standardized_SMILES>  (299) 
CNc1nc(Nc2ccc3c(c2OC)CN(C)C3=O)ncc1C(F)(F)F

>  <Name>  (299) 
nan

>  <Pocket>  (299) 
nan

>  <ATP_Site>  (299) 
nan

>  <Peripheral>  (299) 
nan

>  <Num_H_Atoms_ProtBoundConf>  (299) 
nan

>  <Num_Resolved_Atoms>  (299) 
nan

>  <Num_Not_Resolved_Atoms>  (299) 
nan

$$$$
CHEMBL3694803
     RDKit          3D

  0  0  0  0  0  0  0  0  0  0999 V3000
M  V30 BEGIN CTAB
M  V30 COUNTS 46 49 0 0 0
M  V30 BEGIN ATOM
M  V30 1 C -2.167874 -4.906804 0.276848 0
M  V30 2 N -0.952594 -5.330990 -0.403658 0
M  V30 3 C 0.284755 -4.708611 -0.026230 0
M  V30 4 N 0.281060 -3.717418 0.919661 0
M  V30 5 C 1.471782 -3.139250 1.218346 0
M  V30 6 N 1.332093 -2.082076 2.197508 0
M  V30 7 C 0.874804 -0.873262 1.551979 0
M  V30 8 C 0.569084 -0.771733 0.207020 0
M  V30 9 C 0.114297 0.375208 -0.404889 0
M  V30 10 C -0.045493 1.494180 0.380289 0
M  V30 11 C 0.233269 1.499121 1.732657 0
M  V30 12 C 0.683707 0.298235 2.249670 0
M  V30 13 O 0.948844 0.366492 3.635467 0
M  V30 14 C 2.261247 0.708811 4.078925 0
M  V30 15 C -0.029013 2.857284 2.273090 0
M  V30 16 N -0.559038 3.592077 1.144072 0
M  V30 17 C -1.077103 4.960215 1.092575 0
M  V30 18 C -2.373152 5.180592 0.348691 0
M  V30 19 C -1.100941 5.709823 -0.166641 0
M  V30 20 C -0.558691 2.812089 -0.065870 0
M  V30 21 O -0.891790 3.091647 -1.247059 0
M  V30 22 N 2.651776 -3.459724 0.665734 0
M  V30 23 C 2.716389 -4.440094 -0.280933 0
M  V30 24 C 1.507070 -5.053887 -0.612042 0
M  V30 25 C 1.498608 -6.124020 -1.650903 0
M  V30 26 F 0.689092 -5.742649 -2.724337 0
M  V30 27 F 2.779793 -6.313199 -2.107471 0
M  V30 28 F 1.032748 -7.293920 -1.085567 0
M  V30 29 H -2.373090 -3.863149 -0.083090 0
M  V30 30 H -2.999511 -5.583772 -0.012069 0
M  V30 31 H -2.075658 -4.895312 1.367509 0
M  V30 32 H -0.932904 -6.059260 -1.146211 0
M  V30 33 H 1.486079 -2.011074 3.223202 0
M  V30 34 H 0.693997 -1.653202 -0.418546 0
M  V30 35 H -0.093843 0.328791 -1.486600 0
M  V30 36 H 2.463665 1.755745 3.756697 0
M  V30 37 H 2.256367 0.702618 5.185380 0
M  V30 38 H 3.008974 0.022150 3.639179 0
M  V30 39 H 0.948438 3.284318 2.598082 0
M  V30 40 H -0.709186 2.861793 3.148173 0
M  V30 41 H -1.036935 5.483435 2.075456 0
M  V30 42 H -2.850605 4.249329 -0.022663 0
M  V30 43 H -3.125565 5.886331 0.757095 0
M  V30 44 H -0.625443 5.358686 -1.082167 0
M  V30 45 H -0.956955 6.830391 -0.056329 0
M  V30 46 H 3.635743 -4.732424 -0.752126 0
M  V30 END ATOM
M  V30 BEGIN BOND
M  V30 1 1 1 2
M  V30 2 1 2 3
M  V30 3 2 3 4
M  V30 4 1 4 5
M  V30 5 1 5 6
M  V30 6 1 6 7
M  V30 7 2 7 8
M  V30 8 1 8 9
M  V30 9 2 9 10
M  V30 10 1 10 11
M  V30 11 2 11 12
M  V30 12 1 12 13
M  V30 13 1 13 14
M  V30 14 1 11 15
M  V30 15 1 15 16
M  V30 16 1 16 17
M  V30 17 1 17 18
M  V30 18 1 18 19
M  V30 19 1 16 20
M  V30 20 2 20 21
M  V30 21 2 5 22
M  V30 22 1 22 23
M  V30 23 2 23 24
M  V30 24 1 24 25
M  V30 25 1 25 26
M  V30 26 1 25 27
M  V30 27 1 25 28
M  V30 28 1 24 3
M  V30 29 1 12 7
M  V30 30 1 19 17
M  V30 31 1 20 10
M  V30 32 1 1 29
M  V30 33 1 1 30
M  V30 34 1 1 31
M  V30 35 1 2 32
M  V30 36 1 6 33
M  V30 37 1 8 34
M  V30 38 1 9 35
M  V30 39 1 14 36
M  V30 40 1 14 37
M  V30 41 1 14 38
M  V30 42 1 15 39
M  V30 43 1 15 40
M  V30 44 1 17 41
M  V30 45 1 18 42
M  V30 46 1 18 43
M  V30 47 1 19 44
M  V30 48 1 19 45
M  V30 49 1 23 46
M  V30 END BOND
M  V30 END CTAB
M  END
>  <Dataset>  (300) 
ChEMBL_Kinases

>  <Ligand_Instance>  (300) 
nan

>  <PDB_ID>  (300) 
nan

>  <Standardized_SMILES>  (300) 
CNc1nc(Nc2ccc3c(c2OC)CN(C2CC2)C3=O)ncc1C(F)(F)F

>  <Name>  (300) 
nan

>  <Pocket>  (300) 
nan

>  <ATP_Site>  (300) 
nan

>  <Peripheral>  (300) 
nan

>  <Num_H_Atoms_ProtBoundConf>  (300) 
nan

>  <Num_Resolved_Atoms>  (300) 
nan

>  <Num_Not_Resolved_Atoms>  (300) 
nan

$$$$
CHEMBL3694802
     RDKit          3D

  0  0  0  0  0  0  0  0  0  0999 V3000
M  V30 BEGIN CTAB
M  V30 COUNTS 38 40 0 0 0
M  V30 BEGIN ATOM
M  V30 1 C 0.028798 -5.233293 1.704190 0
M  V30 2 N -1.126226 -4.392421 1.855949 0
M  V30 3 C -1.570245 -3.225511 1.179743 0
M  V30 4 N -0.773973 -2.769784 0.172560 0
M  V30 5 C -1.156586 -1.659547 -0.504000 0
M  V30 6 N -0.519397 -0.991039 -1.571270 0
M  V30 7 C 0.391410 0.068217 -1.312543 0
M  V30 8 C 0.659631 0.461350 -0.010107 0
M  V30 9 C 1.545479 1.496949 0.266506 0
M  V30 10 C 2.193603 2.173260 -0.773559 0
M  V30 11 C 1.938816 1.795599 -2.075060 0
M  V30 12 C 1.052868 0.763051 -2.304660 0
M  V30 13 Cl 0.720193 0.272862 -3.952996 0
M  V30 14 C 3.063053 3.210481 -0.177227 0
M  V30 15 O 3.780571 3.992275 -0.818420 0
M  V30 16 N 2.886077 3.100651 1.248422 0
M  V30 17 C 3.611168 3.988927 2.132133 0
M  V30 18 C 1.945506 2.045978 1.599649 0
M  V30 19 N -2.304713 -1.038891 -0.166945 0
M  V30 20 C -3.105809 -1.478190 0.829777 0
M  V30 21 C -2.737792 -2.601292 1.528428 0
M  V30 22 C -3.599786 -3.119296 2.641281 0
M  V30 23 F -3.972219 -4.404031 2.291930 0
M  V30 24 F -4.741961 -2.355610 2.770072 0
M  V30 25 F -2.849638 -3.119611 3.798480 0
M  V30 26 H -0.274666 -6.282992 1.430017 0
M  V30 27 H 0.736120 -4.816820 0.953953 0
M  V30 28 H 0.572100 -5.302472 2.680991 0
M  V30 29 H -1.711478 -4.772170 2.634652 0
M  V30 30 H -0.721568 -1.278615 -2.532542 0
M  V30 31 H 0.152626 -0.067830 0.791707 0
M  V30 32 H 2.441016 2.319548 -2.879154 0
M  V30 33 H 3.729018 5.009250 1.761040 0
M  V30 34 H 4.620765 3.599952 2.373510 0
M  V30 35 H 3.022223 4.054532 3.077559 0
M  V30 36 H 2.515657 1.292504 2.177586 0
M  V30 37 H 1.066444 2.445800 2.135990 0
M  V30 38 H -4.032364 -1.002904 1.124539 0
M  V30 END ATOM
M  V30 BEGIN BOND
M  V30 1 1 1 2
M  V30 2 1 2 3
M  V30 3 2 3 4
M  V30 4 1 4 5
M  V30 5 1 5 6
M  V30 6 1 6 7
M  V30 7 2 7 8
M  V30 8 1 8 9
M  V30 9 2 9 10
M  V30 10 1 10 11
M  V30 11 2 11 12
M  V30 12 1 12 13
M  V30 13 1 10 14
M  V30 14 2 14 15
M  V30 15 1 14 16
M  V30 16 1 16 17
M  V30 17 1 16 18
M  V30 18 2 5 19
M  V30 19 1 19 20
M  V30 20 2 20 21
M  V30 21 1 21 22
M  V30 22 1 22 23
M  V30 23 1 22 24
M  V30 24 1 22 25
M  V30 25 1 21 3
M  V30 26 1 12 7
M  V30 27 1 18 9
M  V30 28 1 1 26
M  V30 29 1 1 27
M  V30 30 1 1 28
M  V30 31 1 2 29
M  V30 32 1 6 30
M  V30 33 1 8 31
M  V30 34 1 11 32
M  V30 35 1 17 33
M  V30 36 1 17 34
M  V30 37 1 17 35
M  V30 38 1 18 36
M  V30 39 1 18 37
M  V30 40 1 20 38
M  V30 END BOND
M  V30 END CTAB
M  END
>  <Dataset>  (301) 
ChEMBL_Kinases

>  <Ligand_Instance>  (301) 
nan

>  <PDB_ID>  (301) 
nan

>  <Standardized_SMILES>  (301) 
CNc1nc(Nc2cc3c(cc2Cl)C(=O)N(C)C3)ncc1C(F)(F)F

>  <Name>  (301) 
nan

>  <Pocket>  (301) 
nan

>  <ATP_Site>  (301) 
nan

>  <Peripheral>  (301) 
nan

>  <Num_H_Atoms_ProtBoundConf>  (301) 
nan

>  <Num_Resolved_Atoms>  (301) 
nan

>  <Num_Not_Resolved_Atoms>  (301) 
nan

$$$$
CHEMBL3694801
     RDKit          3D

  0  0  0  0  0  0  0  0  0  0999 V3000
M  V30 BEGIN CTAB
M  V30 COUNTS 35 37 0 0 0
M  V30 BEGIN ATOM
M  V30 1 C 0.920794 -4.718190 -0.713599 0
M  V30 2 N -0.164435 -4.687515 0.241072 0
M  V30 3 C -0.661144 -4.055250 1.448063 0
M  V30 4 N 0.218827 -3.022995 1.625250 0
M  V30 5 C -0.050531 -2.079072 2.580092 0
M  V30 6 N 0.674594 -0.931653 2.991813 0
M  V30 7 C 0.734109 0.229765 2.171075 0
M  V30 8 C 0.165151 0.280066 0.906088 0
M  V30 9 C 0.299105 1.460241 0.162071 0
M  V30 10 C 0.975119 2.583448 0.633710 0
M  V30 11 C 1.529364 2.502396 1.895362 0
M  V30 12 C 1.399605 1.342572 2.627963 0
M  V30 13 Cl 2.158159 1.384180 4.211255 0
M  V30 14 C 0.863872 3.563557 -0.469073 0
M  V30 15 O 1.425545 4.682661 -0.238364 0
M  V30 16 N 0.131631 2.995423 -1.552968 0
M  V30 17 C -0.041375 3.881320 -2.679452 0
M  V30 18 C -0.241167 1.647829 -1.209415 0
M  V30 19 N -1.194737 -2.245319 3.291345 0
M  V30 20 C -2.015449 -3.276581 3.077214 0
M  V30 21 C -1.805643 -4.251528 2.147232 0
M  V30 22 Cl -2.700561 -5.660531 1.682947 0
M  V30 23 H 1.362026 -5.749860 -0.733315 0
M  V30 24 H 0.536686 -4.539614 -1.744028 0
M  V30 25 H 1.715249 -4.008873 -0.480995 0
M  V30 26 H -0.864366 -5.413100 -0.077341 0
M  V30 27 H 1.149166 -0.975948 3.897298 0
M  V30 28 H -0.355116 -0.599977 0.568463 0
M  V30 29 H 2.055477 3.390393 2.252544 0
M  V30 30 H -0.472936 4.866900 -2.356928 0
M  V30 31 H 0.937569 4.092907 -3.167658 0
M  V30 32 H -0.717235 3.427267 -3.414492 0
M  V30 33 H 0.222296 0.918893 -1.908902 0
M  V30 34 H -1.338938 1.553862 -1.261910 0
M  V30 35 H -2.956551 -3.459129 3.626875 0
M  V30 END ATOM
M  V30 BEGIN BOND
M  V30 1 1 1 2
M  V30 2 1 2 3
M  V30 3 2 3 4
M  V30 4 1 4 5
M  V30 5 1 5 6
M  V30 6 1 6 7
M  V30 7 2 7 8
M  V30 8 1 8 9
M  V30 9 2 9 10
M  V30 10 1 10 11
M  V30 11 2 11 12
M  V30 12 1 12 13
M  V30 13 1 10 14
M  V30 14 2 14 15
M  V30 15 1 14 16
M  V30 16 1 16 17
M  V30 17 1 16 18
M  V30 18 2 5 19
M  V30 19 1 19 20
M  V30 20 2 20 21
M  V30 21 1 21 22
M  V30 22 1 21 3
M  V30 23 1 12 7
M  V30 24 1 18 9
M  V30 25 1 1 23
M  V30 26 1 1 24
M  V30 27 1 1 25
M  V30 28 1 2 26
M  V30 29 1 6 27
M  V30 30 1 8 28
M  V30 31 1 11 29
M  V30 32 1 17 30
M  V30 33 1 17 31
M  V30 34 1 17 32
M  V30 35 1 18 33
M  V30 36 1 18 34
M  V30 37 1 20 35
M  V30 END BOND
M  V30 END CTAB
M  END
>  <Dataset>  (302) 
ChEMBL_Kinases

>  <Ligand_Instance>  (302) 
nan

>  <PDB_ID>  (302) 
nan

>  <Standardized_SMILES>  (302) 
CNc1nc(Nc2cc3c(cc2Cl)C(=O)N(C)C3)ncc1Cl

>  <Name>  (302) 
nan

>  <Pocket>  (302) 
nan

>  <ATP_Site>  (302) 
nan

>  <Peripheral>  (302) 
nan

>  <Num_H_Atoms_ProtBoundConf>  (302) 
nan

>  <Num_Resolved_Atoms>  (302) 
nan

>  <Num_Not_Resolved_Atoms>  (302) 
nan

$$$$
CHEMBL3694800
     RDKit          3D

  0  0  0  0  0  0  0  0  0  0999 V3000
M  V30 BEGIN CTAB
M  V30 COUNTS 42 44 0 0 0
M  V30 BEGIN ATOM
M  V30 1 C 1.555030 -4.029011 1.857850 0
M  V30 2 N 0.459953 -4.397300 0.977458 0
M  V30 3 C 0.080667 -3.615600 -0.157519 0
M  V30 4 N 0.675056 -2.486293 -0.510423 0
M  V30 5 C 0.322729 -1.719637 -1.584789 0
M  V30 6 N 1.232846 -0.597240 -1.598606 0
M  V30 7 C 1.111702 0.336121 -0.515946 0
M  V30 8 C 0.158558 0.167622 0.479848 0
M  V30 9 C -0.019325 0.997909 1.565472 0
M  V30 10 C 0.822990 2.102419 1.684212 0
M  V30 11 C 1.790450 2.300832 0.696424 0
M  V30 12 C 1.925669 1.443185 -0.364494 0
M  V30 13 O 2.887051 1.605981 -1.377967 0
M  V30 14 C 3.790289 2.713182 -1.336108 0
M  V30 15 C 0.511438 2.855153 2.933140 0
M  V30 16 N -0.648269 2.152615 3.460258 0
M  V30 17 C -1.475268 2.463180 4.610111 0
M  V30 18 C -0.965249 0.996011 2.674837 0
M  V30 19 O -1.861330 0.130624 2.860467 0
M  V30 20 N -0.703894 -2.122165 -2.357492 0
M  V30 21 C -1.338021 -3.262113 -2.038175 0
M  V30 22 C -0.957634 -4.017958 -0.943477 0
M  V30 23 C -1.668553 -5.284797 -0.590436 0
M  V30 24 F -0.794172 -6.367066 -0.603398 0
M  V30 25 F -2.250923 -5.246190 0.653599 0
M  V30 26 F -2.682746 -5.510567 -1.506958 0
M  V30 27 H 1.921370 -3.037224 1.535501 0
M  V30 28 H 1.197143 -3.896158 2.906679 0
M  V30 29 H 2.342703 -4.788694 1.892348 0
M  V30 30 H -0.013320 -5.271471 1.245598 0
M  V30 31 H 1.962513 -0.402967 -2.314451 0
M  V30 32 H -0.532327 -0.685068 0.435536 0
M  V30 33 H 2.459340 3.161457 0.768648 0
M  V30 34 H 4.359388 2.618388 -0.385648 0
M  V30 35 H 4.470949 2.605328 -2.218509 0
M  V30 36 H 3.287681 3.681262 -1.352083 0
M  V30 37 H 0.265222 3.887577 2.708996 0
M  V30 38 H 1.379332 2.758247 3.635608 0
M  V30 39 H -2.382793 3.017544 4.377547 0
M  V30 40 H -0.844848 2.972499 5.388698 0
M  V30 41 H -1.813285 1.516975 5.123595 0
M  V30 42 H -2.153219 -3.539137 -2.684238 0
M  V30 END ATOM
M  V30 BEGIN BOND
M  V30 1 1 1 2
M  V30 2 1 2 3
M  V30 3 2 3 4
M  V30 4 1 4 5
M  V30 5 1 5 6
M  V30 6 1 6 7
M  V30 7 2 7 8
M  V30 8 1 8 9
M  V30 9 2 9 10
M  V30 10 1 10 11
M  V30 11 2 11 12
M  V30 12 1 12 13
M  V30 13 1 13 14
M  V30 14 1 10 15
M  V30 15 1 15 16
M  V30 16 1 16 17
M  V30 17 1 16 18
M  V30 18 2 18 19
M  V30 19 2 5 20
M  V30 20 1 20 21
M  V30 21 2 21 22
M  V30 22 1 22 23
M  V30 23 1 23 24
M  V30 24 1 23 25
M  V30 25 1 23 26
M  V30 26 1 22 3
M  V30 27 1 12 7
M  V30 28 1 18 9
M  V30 29 1 1 27
M  V30 30 1 1 28
M  V30 31 1 1 29
M  V30 32 1 2 30
M  V30 33 1 6 31
M  V30 34 1 8 32
M  V30 35 1 11 33
M  V30 36 1 14 34
M  V30 37 1 14 35
M  V30 38 1 14 36
M  V30 39 1 15 37
M  V30 40 1 15 38
M  V30 41 1 17 39
M  V30 42 1 17 40
M  V30 43 1 17 41
M  V30 44 1 21 42
M  V30 END BOND
M  V30 END CTAB
M  END
>  <Dataset>  (303) 
ChEMBL_Kinases

>  <Ligand_Instance>  (303) 
nan

>  <PDB_ID>  (303) 
nan

>  <Standardized_SMILES>  (303) 
CNc1nc(Nc2cc3c(cc2OC)CN(C)C3=O)ncc1C(F)(F)F

>  <Name>  (303) 
nan

>  <Pocket>  (303) 
nan

>  <ATP_Site>  (303) 
nan

>  <Peripheral>  (303) 
nan

>  <Num_H_Atoms_ProtBoundConf>  (303) 
nan

>  <Num_Resolved_Atoms>  (303) 
nan

>  <Num_Not_Resolved_Atoms>  (303) 
nan

$$$$
CHEMBL3694799
     RDKit          3D

  0  0  0  0  0  0  0  0  0  0999 V3000
M  V30 BEGIN CTAB
M  V30 COUNTS 35 37 0 0 0
M  V30 BEGIN ATOM
M  V30 1 C 1.189313 -4.531419 3.911826 0
M  V30 2 N -0.016256 -4.528278 3.124390 0
M  V30 3 C -0.363733 -3.470604 2.220091 0
M  V30 4 N 0.495456 -2.445939 2.123008 0
M  V30 5 C 0.321605 -1.398705 1.338467 0
M  V30 6 N 1.289474 -0.360371 1.303390 0
M  V30 7 C 1.304986 0.841370 0.543097 0
M  V30 8 C 0.315609 1.212559 -0.339430 0
M  V30 9 C 0.310815 2.373613 -1.086871 0
M  V30 10 N -0.526726 2.927460 -1.987572 0
M  V30 11 C 0.002318 4.116499 -2.405164 0
M  V30 12 C -0.530697 5.102377 -3.384429 0
M  V30 13 O 1.151668 4.270676 -1.755216 0
M  V30 14 C 1.372864 3.245463 -0.953877 0
M  V30 15 C 2.382519 2.905879 -0.078402 0
M  V30 16 C 2.349168 1.738375 0.648325 0
M  V30 17 Cl 3.688824 1.396013 1.740575 0
M  V30 18 N -0.805746 -1.417409 0.616029 0
M  V30 19 C -1.740476 -2.376630 0.621949 0
M  V30 20 C -1.512023 -3.448642 1.457943 0
M  V30 21 C -2.453514 -4.574945 1.566548 0
M  V30 22 F -1.917033 -5.789622 1.227959 0
M  V30 23 F -3.058513 -4.643577 2.825103 0
M  V30 24 F -3.511303 -4.337782 0.696551 0
M  V30 25 H 1.938344 -5.158907 3.384577 0
M  V30 26 H 1.652184 -3.526556 3.981091 0
M  V30 27 H 1.052196 -5.002649 4.910526 0
M  V30 28 H -0.656918 -5.345019 3.230498 0
M  V30 29 H 2.134992 -0.489344 1.936916 0
M  V30 30 H -0.539162 0.597051 -0.501727 0
M  V30 31 H -1.163249 4.620657 -4.158466 0
M  V30 32 H 0.308639 5.572274 -3.932418 0
M  V30 33 H -1.164627 5.809497 -2.848758 0
M  V30 34 H 3.224366 3.570155 0.044201 0
M  V30 35 H -2.631199 -2.324975 0.008561 0
M  V30 END ATOM
M  V30 BEGIN BOND
M  V30 1 1 1 2
M  V30 2 1 2 3
M  V30 3 2 3 4
M  V30 4 1 4 5
M  V30 5 1 5 6
M  V30 6 1 6 7
M  V30 7 2 7 8
M  V30 8 1 8 9
M  V30 9 1 9 10
M  V30 10 2 10 11
M  V30 11 1 11 12
M  V30 12 1 11 13
M  V30 13 1 13 14
M  V30 14 1 14 15
M  V30 15 2 15 16
M  V30 16 1 16 17
M  V30 17 2 5 18
M  V30 18 1 18 19
M  V30 19 2 19 20
M  V30 20 1 20 21
M  V30 21 1 21 22
M  V30 22 1 21 23
M  V30 23 1 21 24
M  V30 24 1 20 3
M  V30 25 1 16 7
M  V30 26 2 14 9
M  V30 27 1 1 25
M  V30 28 1 1 26
M  V30 29 1 1 27
M  V30 30 1 2 28
M  V30 31 1 6 29
M  V30 32 1 8 30
M  V30 33 1 12 31
M  V30 34 1 12 32
M  V30 35 1 12 33
M  V30 36 1 15 34
M  V30 37 1 19 35
M  V30 END BOND
M  V30 END CTAB
M  END
>  <Dataset>  (304) 
ChEMBL_Kinases

>  <Ligand_Instance>  (304) 
nan

>  <PDB_ID>  (304) 
nan

>  <Standardized_SMILES>  (304) 
CNc1nc(Nc2cc3nc(C)oc3cc2Cl)ncc1C(F)(F)F

>  <Name>  (304) 
nan

>  <Pocket>  (304) 
nan

>  <ATP_Site>  (304) 
nan

>  <Peripheral>  (304) 
nan

>  <Num_H_Atoms_ProtBoundConf>  (304) 
nan

>  <Num_Resolved_Atoms>  (304) 
nan

>  <Num_Not_Resolved_Atoms>  (304) 
nan

$$$$
CHEMBL3694798
     RDKit          3D

  0  0  0  0  0  0  0  0  0  0999 V3000
M  V30 BEGIN CTAB
M  V30 COUNTS 36 38 0 0 0
M  V30 BEGIN ATOM
M  V30 1 C 1.553273 -5.644625 2.284698 0
M  V30 2 N 0.216955 -5.244303 1.956631 0
M  V30 3 C -0.252747 -3.984596 1.496216 0
M  V30 4 N 0.620074 -2.984048 1.321264 0
M  V30 5 C 0.283218 -1.768234 0.894714 0
M  V30 6 N 1.280299 -0.770770 0.739720 0
M  V30 7 C 1.152183 0.572318 0.305911 0
M  V30 8 C -0.034066 1.166368 -0.058832 0
M  V30 9 C -0.187755 2.468477 -0.483928 0
M  V30 10 O -1.193942 3.217583 -0.868936 0
M  V30 11 C -0.738792 4.432384 -1.173934 0
M  V30 12 O -1.434605 5.403815 -1.580015 0
M  V30 13 N 0.591851 4.490237 -0.988140 0
M  V30 14 C 1.456501 5.640996 -1.210713 0
M  V30 15 C 0.936453 3.263518 -0.557079 0
M  V30 16 C 2.146532 2.712348 -0.201912 0
M  V30 17 C 2.246334 1.406571 0.216066 0
M  V30 18 Cl 3.839174 0.784687 0.651601 0
M  V30 19 N -1.018899 -1.605064 0.645032 0
M  V30 20 C -1.976686 -2.524907 0.782088 0
M  V30 21 C -1.584678 -3.767708 1.225406 0
M  V30 22 C -2.553216 -4.859920 1.413977 0
M  V30 23 F -2.223162 -5.929977 0.606980 0
M  V30 24 F -2.620998 -5.252578 2.731289 0
M  V30 25 F -3.810085 -4.430139 1.029258 0
M  V30 26 H 1.809109 -6.513317 1.629921 0
M  V30 27 H 2.297514 -4.863443 2.087693 0
M  V30 28 H 1.635108 -5.921792 3.360539 0
M  V30 29 H -0.454265 -6.019448 2.092902 0
M  V30 30 H 2.275429 -1.061232 0.981573 0
M  V30 31 H -0.956898 0.614316 -0.029788 0
M  V30 32 H 1.408643 5.889790 -2.295718 0
M  V30 33 H 2.458205 5.443464 -0.827361 0
M  V30 34 H 1.013342 6.528674 -0.695939 0
M  V30 35 H 3.051703 3.312348 -0.248428 0
M  V30 36 H -3.017440 -2.328663 0.562228 0
M  V30 END ATOM
M  V30 BEGIN BOND
M  V30 1 1 1 2
M  V30 2 1 2 3
M  V30 3 2 3 4
M  V30 4 1 4 5
M  V30 5 1 5 6
M  V30 6 1 6 7
M  V30 7 2 7 8
M  V30 8 1 8 9
M  V30 9 1 9 10
M  V30 10 1 10 11
M  V30 11 2 11 12
M  V30 12 1 11 13
M  V30 13 1 13 14
M  V30 14 1 13 15
M  V30 15 1 15 16
M  V30 16 2 16 17
M  V30 17 1 17 18
M  V30 18 2 5 19
M  V30 19 1 19 20
M  V30 20 2 20 21
M  V30 21 1 21 22
M  V30 22 1 22 23
M  V30 23 1 22 24
M  V30 24 1 22 25
M  V30 25 1 21 3
M  V30 26 1 17 7
M  V30 27 2 15 9
M  V30 28 1 1 26
M  V30 29 1 1 27
M  V30 30 1 1 28
M  V30 31 1 2 29
M  V30 32 1 6 30
M  V30 33 1 8 31
M  V30 34 1 14 32
M  V30 35 1 14 33
M  V30 36 1 14 34
M  V30 37 1 16 35
M  V30 38 1 20 36
M  V30 END BOND
M  V30 END CTAB
M  END
>  <Dataset>  (305) 
ChEMBL_Kinases

>  <Ligand_Instance>  (305) 
nan

>  <PDB_ID>  (305) 
nan

>  <Standardized_SMILES>  (305) 
CNc1nc(Nc2cc3oc(=O)n(C)c3cc2Cl)ncc1C(F)(F)F

>  <Name>  (305) 
nan

>  <Pocket>  (305) 
nan

>  <ATP_Site>  (305) 
nan

>  <Peripheral>  (305) 
nan

>  <Num_H_Atoms_ProtBoundConf>  (305) 
nan

>  <Num_Resolved_Atoms>  (305) 
nan

>  <Num_Not_Resolved_Atoms>  (305) 
nan

$$$$
CHEMBL3694797
     RDKit          3D

  0  0  0  0  0  0  0  0  0  0999 V3000
M  V30 BEGIN CTAB
M  V30 COUNTS 40 42 0 0 0
M  V30 BEGIN ATOM
M  V30 1 C 0.871036 -3.455689 1.845060 0
M  V30 2 N -0.513860 -3.821908 1.516836 0
M  V30 3 C -1.162277 -3.170956 0.413389 0
M  V30 4 N -0.513290 -2.254358 -0.297423 0
M  V30 5 C -0.997112 -1.575493 -1.348927 0
M  V30 6 N -0.094939 -0.637328 -1.921596 0
M  V30 7 C 0.623318 0.319134 -1.150027 0
M  V30 8 C 0.460564 0.449105 0.210721 0
M  V30 9 C 1.106090 1.357024 1.022128 0
M  V30 10 C 2.008555 2.229259 0.420732 0
M  V30 11 C 2.215818 2.147943 -0.946318 0
M  V30 12 C 1.538768 1.212827 -1.718370 0
M  V30 13 Cl 1.836225 1.151896 -3.448797 0
M  V30 14 N 2.510628 3.016226 1.400508 0
M  V30 15 C 3.491297 4.070834 1.220439 0
M  V30 16 C 1.935307 2.643280 2.582741 0
M  V30 17 O 2.209095 3.199769 3.672412 0
M  V30 18 N 1.087244 1.638268 2.338260 0
M  V30 19 C 0.260794 0.939836 3.326098 0
M  V30 20 N -2.282284 -1.856048 -1.724648 0
M  V30 21 C -2.988949 -2.789890 -1.025777 0
M  V30 22 C -2.452120 -3.464138 0.050866 0
M  V30 23 C -3.223124 -4.468961 0.809327 0
M  V30 24 F -2.658172 -5.722686 0.811601 0
M  V30 25 F -3.388292 -4.051165 2.137711 0
M  V30 26 F -4.506439 -4.579129 0.271382 0
M  V30 27 H 1.584555 -4.244211 1.514639 0
M  V30 28 H 1.007646 -3.387163 2.947175 0
M  V30 29 H 1.090522 -2.475231 1.377446 0
M  V30 30 H -1.026311 -4.539764 2.069710 0
M  V30 31 H 0.084894 -0.611100 -2.964838 0
M  V30 32 H -0.219960 -0.183301 0.756111 0
M  V30 33 H 2.922398 2.842551 -1.363837 0
M  V30 34 H 3.687429 4.530054 2.218492 0
M  V30 35 H 3.162415 4.813281 0.463930 0
M  V30 36 H 4.451480 3.650164 0.896674 0
M  V30 37 H 0.902656 0.415879 4.071591 0
M  V30 38 H -0.477330 1.631030 3.779739 0
M  V30 39 H -0.350964 0.150770 2.836012 0
M  V30 40 H -3.989835 -2.969055 -1.365344 0
M  V30 END ATOM
M  V30 BEGIN BOND
M  V30 1 1 1 2
M  V30 2 1 2 3
M  V30 3 2 3 4
M  V30 4 1 4 5
M  V30 5 1 5 6
M  V30 6 1 6 7
M  V30 7 2 7 8
M  V30 8 1 8 9
M  V30 9 2 9 10
M  V30 10 1 10 11
M  V30 11 2 11 12
M  V30 12 1 12 13
M  V30 13 1 10 14
M  V30 14 1 14 15
M  V30 15 1 14 16
M  V30 16 2 16 17
M  V30 17 1 16 18
M  V30 18 1 18 19
M  V30 19 2 5 20
M  V30 20 1 20 21
M  V30 21 2 21 22
M  V30 22 1 22 23
M  V30 23 1 23 24
M  V30 24 1 23 25
M  V30 25 1 23 26
M  V30 26 1 22 3
M  V30 27 1 12 7
M  V30 28 1 18 9
M  V30 29 1 1 27
M  V30 30 1 1 28
M  V30 31 1 1 29
M  V30 32 1 2 30
M  V30 33 1 6 31
M  V30 34 1 8 32
M  V30 35 1 11 33
M  V30 36 1 15 34
M  V30 37 1 15 35
M  V30 38 1 15 36
M  V30 39 1 19 37
M  V30 40 1 19 38
M  V30 41 1 19 39
M  V30 42 1 21 40
M  V30 END BOND
M  V30 END CTAB
M  END
>  <Dataset>  (306) 
ChEMBL_Kinases

>  <Ligand_Instance>  (306) 
nan

>  <PDB_ID>  (306) 
nan

>  <Standardized_SMILES>  (306) 
CNc1nc(Nc2cc3c(cc2Cl)n(C)c(=O)n3C)ncc1C(F)(F)F

>  <Name>  (306) 
nan

>  <Pocket>  (306) 
nan

>  <ATP_Site>  (306) 
nan

>  <Peripheral>  (306) 
nan

>  <Num_H_Atoms_ProtBoundConf>  (306) 
nan

>  <Num_Resolved_Atoms>  (306) 
nan

>  <Num_Not_Resolved_Atoms>  (306) 
nan

$$$$
CHEMBL3696251
     RDKit          3D

  0  0  0  0  0  0  0  0  0  0999 V3000
M  V30 BEGIN CTAB
M  V30 COUNTS 41 43 0 0 0
M  V30 BEGIN ATOM
M  V30 1 O 0.791480 -3.811032 2.599353 0
M  V30 2 C 0.882110 -2.573194 2.910360 0
M  V30 3 C 1.994987 -1.873251 3.670110 0
M  V30 4 C 2.017479 -0.453081 3.138360 0
M  V30 5 N 1.972986 -0.459860 1.788636 0
M  V30 6 C 1.977891 0.672670 1.061920 0
M  V30 7 N 1.860791 0.590802 -0.376939 0
M  V30 8 C 0.440170 0.325883 -0.602753 0
M  V30 9 C 0.029663 0.515533 -2.042899 0
M  V30 10 O 1.078545 0.238971 -2.899229 0
M  V30 11 C 2.078092 1.195319 -2.669808 0
M  V30 12 C 2.838694 0.711049 -1.447307 0
M  V30 13 C 2.032497 1.903263 1.725299 0
M  V30 14 C 2.077897 1.867739 3.101235 0
M  V30 15 O 2.128816 2.932820 3.766853 0
M  V30 16 N 2.069746 0.712771 3.794095 0
M  V30 17 N -0.224188 -1.834567 2.446180 0
M  V30 18 C -1.412504 -2.114596 1.721131 0
M  V30 19 C -2.249646 -1.097552 1.322841 0
M  V30 20 C -3.409666 -1.324835 0.627619 0
M  V30 21 F -4.160963 -0.245839 0.280907 0
M  V30 22 C -3.777310 -2.587957 0.302659 0
M  V30 23 F -4.944421 -2.708258 -0.383117 0
M  V30 24 C -2.997315 -3.650915 0.663858 0
M  V30 25 F -3.412642 -4.882245 0.310970 0
M  V30 26 C -1.847416 -3.381696 1.356293 0
M  V30 27 H 1.888312 -1.923597 4.742905 0
M  V30 28 H 2.937700 -2.332455 3.281237 0
M  V30 29 H 0.254487 -0.706769 -0.233406 0
M  V30 30 H -0.152338 1.034272 0.022649 0
M  V30 31 H -0.827550 -0.171614 -2.224946 0
M  V30 32 H -0.349985 1.549261 -2.135921 0
M  V30 33 H 2.736717 1.214159 -3.562241 0
M  V30 34 H 1.602128 2.155823 -2.443695 0
M  V30 35 H 3.635501 1.411285 -1.223780 0
M  V30 36 H 3.247417 -0.302262 -1.724125 0
M  V30 37 H 2.033261 2.804206 1.150727 0
M  V30 38 H 2.099283 0.590795 4.823213 0
M  V30 39 H -0.143384 -0.799837 2.733774 0
M  V30 40 H -1.990910 -0.059668 1.560193 0
M  V30 41 H -1.253578 -4.227594 1.621869 0
M  V30 END ATOM
M  V30 BEGIN BOND
M  V30 1 2 1 2
M  V30 2 1 2 3
M  V30 3 1 3 4
M  V30 4 2 4 5
M  V30 5 1 5 6
M  V30 6 1 6 7
M  V30 7 1 7 8
M  V30 8 1 8 9
M  V30 9 1 9 10
M  V30 10 1 10 11
M  V30 11 1 11 12
M  V30 12 2 6 13
M  V30 13 1 13 14
M  V30 14 2 14 15
M  V30 15 1 14 16
M  V30 16 1 2 17
M  V30 17 1 17 18
M  V30 18 2 18 19
M  V30 19 1 19 20
M  V30 20 1 20 21
M  V30 21 2 20 22
M  V30 22 1 22 23
M  V30 23 1 22 24
M  V30 24 1 24 25
M  V30 25 2 24 26
M  V30 26 1 16 4
M  V30 27 1 26 18
M  V30 28 1 12 7
M  V30 29 1 3 27
M  V30 30 1 3 28
M  V30 31 1 8 29
M  V30 32 1 8 30
M  V30 33 1 9 31
M  V30 34 1 9 32
M  V30 35 1 11 33
M  V30 36 1 11 34
M  V30 37 1 12 35
M  V30 38 1 12 36
M  V30 39 1 13 37
M  V30 40 1 16 38
M  V30 41 1 17 39
M  V30 42 1 19 40
M  V30 43 1 26 41
M  V30 END BOND
M  V30 END CTAB
M  END
>  <Dataset>  (307) 
ChEMBL_Kinases

>  <Ligand_Instance>  (307) 
nan

>  <PDB_ID>  (307) 
nan

>  <Standardized_SMILES>  (307) 
O=C(Cc1nc(N2CCOCC2)cc(=O)[nH]1)Nc1cc(F)c(F)c(F)c1

>  <Name>  (307) 
nan

>  <Pocket>  (307) 
nan

>  <ATP_Site>  (307) 
nan

>  <Peripheral>  (307) 
nan

>  <Num_H_Atoms_ProtBoundConf>  (307) 
nan

>  <Num_Resolved_Atoms>  (307) 
nan

>  <Num_Not_Resolved_Atoms>  (307) 
nan

$$$$
CHEMBL3694394
     RDKit          3D

  0  0  0  0  0  0  0  0  0  0999 V3000
M  V30 BEGIN CTAB
M  V30 COUNTS 53 55 0 0 0
M  V30 BEGIN ATOM
M  V30 1 C 1.334755 -3.441825 3.403036 0
M  V30 2 O 2.725602 -3.367632 3.514600 0
M  V30 3 C 3.522250 -2.289541 3.177686 0
M  V30 4 C 4.846712 -2.557606 3.430980 0
M  V30 5 C 5.859686 -1.627301 3.182648 0
M  V30 6 C 5.415860 -0.407833 2.656890 0
M  V30 7 C 4.082201 -0.124587 2.394893 0
M  V30 8 C 3.774749 1.214631 1.905703 0
M  V30 9 N 3.946596 1.566416 0.589960 0
M  V30 10 C 3.348599 1.018766 -0.528670 0
M  V30 11 C 1.873945 0.973627 -0.594727 0
M  V30 12 C 1.178060 2.111802 -0.917410 0
M  V30 13 C -0.190057 2.106469 -1.027139 0
M  V30 14 C -0.925356 0.958235 -0.820388 0
M  V30 15 N -2.311439 1.131347 -0.963970 0
M  V30 16 C -3.420043 0.267024 -0.904783 0
M  V30 17 O -3.206671 -0.941219 -0.690039 0
M  V30 18 N -4.782198 0.601978 -1.061140 0
M  V30 19 C -5.803060 -0.385314 -0.980089 0
M  V30 20 C -7.109665 0.017407 -1.118144 0
M  V30 21 N -8.036013 -0.963089 -1.039344 0
M  V30 22 C -7.718357 -2.263726 -0.838478 0
M  V30 23 C -8.734149 -3.272572 -0.763084 0
M  V30 24 N -9.564568 -4.106678 -0.695540 0
M  V30 25 C -6.396871 -2.648051 -0.702238 0
M  V30 26 N -5.468530 -1.673707 -0.779367 0
M  V30 27 C -0.186501 -0.153187 -0.501667 0
M  V30 28 O -0.884194 -1.312893 -0.292086 0
M  V30 29 C -0.226564 -2.502429 0.025266 0
M  V30 30 C 1.180402 -0.191006 -0.381007 0
M  V30 31 C 3.122341 -1.078122 2.657363 0
M  V30 32 H 0.898845 -2.430236 3.151100 0
M  V30 33 H 1.069947 -4.124690 2.579846 0
M  V30 34 H 0.884731 -3.776683 4.375911 0
M  V30 35 H 5.264825 -3.484351 3.840340 0
M  V30 36 H 6.917018 -1.741775 3.347635 0
M  V30 37 H 6.176519 0.352835 2.445200 0
M  V30 38 H 4.430951 1.913564 2.536019 0
M  V30 39 H 2.745428 1.481169 2.299277 0
M  V30 40 H 4.929849 1.848491 0.379340 0
M  V30 41 H 3.726016 0.013318 -0.844012 0
M  V30 42 H 3.646566 1.668816 -1.419915 0
M  V30 43 H 1.738752 2.996818 -1.077988 0
M  V30 44 H -0.616422 3.081550 -1.289214 0
M  V30 45 H -2.703974 2.092503 -1.159864 0
M  V30 46 H -5.005258 1.605891 -1.241531 0
M  V30 47 H -7.406694 1.034683 -1.279241 0
M  V30 48 H -6.065604 -3.663363 -0.540816 0
M  V30 49 H 0.353882 -2.903907 -0.854624 0
M  V30 50 H 0.530090 -2.369594 0.813484 0
M  V30 51 H -0.992224 -3.273693 0.320155 0
M  V30 52 H 1.740471 -1.073594 -0.128806 0
M  V30 53 H 2.074834 -0.921119 2.475593 0
M  V30 END ATOM
M  V30 BEGIN BOND
M  V30 1 1 1 2
M  V30 2 1 2 3
M  V30 3 2 3 4
M  V30 4 1 4 5
M  V30 5 2 5 6
M  V30 6 1 6 7
M  V30 7 1 7 8
M  V30 8 1 8 9
M  V30 9 1 9 10
M  V30 10 1 10 11
M  V30 11 2 11 12
M  V30 12 1 12 13
M  V30 13 2 13 14
M  V30 14 1 14 15
M  V30 15 1 15 16
M  V30 16 2 16 17
M  V30 17 1 16 18
M  V30 18 1 18 19
M  V30 19 2 19 20
M  V30 20 1 20 21
M  V30 21 2 21 22
M  V30 22 1 22 23
M  V30 23 3 23 24
M  V30 24 1 22 25
M  V30 25 2 25 26
M  V30 26 1 14 27
M  V30 27 1 27 28
M  V30 28 1 28 29
M  V30 29 2 27 30
M  V30 30 2 7 31
M  V30 31 1 31 3
M  V30 32 1 30 11
M  V30 33 1 26 19
M  V30 34 1 1 32
M  V30 35 1 1 33
M  V30 36 1 1 34
M  V30 37 1 4 35
M  V30 38 1 5 36
M  V30 39 1 6 37
M  V30 40 1 8 38
M  V30 41 1 8 39
M  V30 42 1 9 40
M  V30 43 1 10 41
M  V30 44 1 10 42
M  V30 45 1 12 43
M  V30 46 1 13 44
M  V30 47 1 15 45
M  V30 48 1 18 46
M  V30 49 1 20 47
M  V30 50 1 25 48
M  V30 51 1 29 49
M  V30 52 1 29 50
M  V30 53 1 29 51
M  V30 54 1 30 52
M  V30 55 1 31 53
M  V30 END BOND
M  V30 END CTAB
M  END
>  <Dataset>  (308) 
ChEMBL_Kinases

>  <Ligand_Instance>  (308) 
nan

>  <PDB_ID>  (308) 
nan

>  <Standardized_SMILES>  (308) 
COc1cccc(CNCc2ccc(NC(=O)Nc3cnc(C#N)cn3)c(OC)c2)c1

>  <Name>  (308) 
nan

>  <Pocket>  (308) 
nan

>  <ATP_Site>  (308) 
nan

>  <Peripheral>  (308) 
nan

>  <Num_H_Atoms_ProtBoundConf>  (308) 
nan

>  <Num_Resolved_Atoms>  (308) 
nan

>  <Num_Not_Resolved_Atoms>  (308) 
nan

$$$$
CHEMBL3694395
     RDKit          3D

  0  0  0  0  0  0  0  0  0  0999 V3000
M  V30 BEGIN CTAB
M  V30 COUNTS 53 55 0 0 0
M  V30 BEGIN ATOM
M  V30 1 C 2.531395 -2.272739 2.194215 0
M  V30 2 O 2.681258 -0.880316 2.202971 0
M  V30 3 C 3.585616 -0.194433 2.987615 0
M  V30 4 C 4.409555 -0.908431 3.829157 0
M  V30 5 C 5.327712 -0.241889 4.628577 0
M  V30 6 C 5.384609 1.134413 4.551839 0
M  V30 7 C 4.560514 1.876816 3.707545 0
M  V30 8 C 3.653230 1.200280 2.919195 0
M  V30 9 C 2.713536 1.870903 1.972635 0
M  V30 10 N 3.191976 1.704333 0.613985 0
M  V30 11 C 2.328880 2.349436 -0.353889 0
M  V30 12 C 0.984363 1.731454 -0.234452 0
M  V30 13 C -0.002844 2.189625 0.588759 0
M  V30 14 C -1.221074 1.579602 0.657768 0
M  V30 15 C -1.516213 0.470502 -0.099798 0
M  V30 16 N -2.815336 -0.031492 0.093691 0
M  V30 17 C -3.543944 -1.113142 -0.430460 0
M  V30 18 O -2.973766 -1.843054 -1.265993 0
M  V30 19 N -4.853020 -1.518256 -0.156529 0
M  V30 20 C -5.468098 -2.645751 -0.766874 0
M  V30 21 C -6.208696 -2.726301 -1.934240 0
M  V30 22 N -6.693295 -3.929150 -2.309841 0
M  V30 23 C -6.471391 -5.038626 -1.577437 0
M  V30 24 C -7.008246 -6.302592 -2.016883 0
M  V30 25 N -7.433477 -7.315654 -2.381994 0
M  V30 26 C -5.733929 -4.964867 -0.412666 0
M  V30 27 N -5.234714 -3.757201 -0.015101 0
M  V30 28 C -0.497507 0.043021 -0.912929 0
M  V30 29 O -0.753624 -1.062938 -1.686406 0
M  V30 30 C 0.235460 -1.562775 -2.544242 0
M  V30 31 C 0.739432 0.634815 -1.005223 0
M  V30 32 H 3.532223 -2.755545 2.265331 0
M  V30 33 H 2.130105 -2.536866 1.182127 0
M  V30 34 H 1.814771 -2.636988 2.931637 0
M  V30 35 H 4.414123 -1.985401 3.935415 0
M  V30 36 H 5.991329 -0.772089 5.302080 0
M  V30 37 H 6.097674 1.642246 5.173524 0
M  V30 38 H 4.602309 2.954210 3.644998 0
M  V30 39 H 2.591034 2.947709 2.212237 0
M  V30 40 H 1.735533 1.316507 2.085521 0
M  V30 41 H 3.173187 0.679048 0.416506 0
M  V30 42 H 2.788964 2.155389 -1.343760 0
M  V30 43 H 2.224471 3.435402 -0.158579 0
M  V30 44 H 0.223808 3.058366 1.184524 0
M  V30 45 H -1.917869 2.055588 1.361681 0
M  V30 46 H -3.473679 0.441092 0.766279 0
M  V30 47 H -5.373097 -0.939045 0.536885 0
M  V30 48 H -6.312137 -1.781072 -2.420365 0
M  V30 49 H -5.567407 -5.873739 0.162741 0
M  V30 50 H -0.087558 -2.509200 -3.019418 0
M  V30 51 H 0.441827 -0.769973 -3.318265 0
M  V30 52 H 1.183778 -1.833482 -1.997556 0
M  V30 53 H 1.474316 0.218271 -1.678932 0
M  V30 END ATOM
M  V30 BEGIN BOND
M  V30 1 1 1 2
M  V30 2 1 2 3
M  V30 3 2 3 4
M  V30 4 1 4 5
M  V30 5 2 5 6
M  V30 6 1 6 7
M  V30 7 2 7 8
M  V30 8 1 8 9
M  V30 9 1 9 10
M  V30 10 1 10 11
M  V30 11 1 11 12
M  V30 12 2 12 13
M  V30 13 1 13 14
M  V30 14 2 14 15
M  V30 15 1 15 16
M  V30 16 1 16 17
M  V30 17 2 17 18
M  V30 18 1 17 19
M  V30 19 1 19 20
M  V30 20 2 20 21
M  V30 21 1 21 22
M  V30 22 2 22 23
M  V30 23 1 23 24
M  V30 24 3 24 25
M  V30 25 1 23 26
M  V30 26 2 26 27
M  V30 27 1 15 28
M  V30 28 1 28 29
M  V30 29 1 29 30
M  V30 30 2 28 31
M  V30 31 1 8 3
M  V30 32 1 31 12
M  V30 33 1 27 20
M  V30 34 1 1 32
M  V30 35 1 1 33
M  V30 36 1 1 34
M  V30 37 1 4 35
M  V30 38 1 5 36
M  V30 39 1 6 37
M  V30 40 1 7 38
M  V30 41 1 9 39
M  V30 42 1 9 40
M  V30 43 1 10 41
M  V30 44 1 11 42
M  V30 45 1 11 43
M  V30 46 1 13 44
M  V30 47 1 14 45
M  V30 48 1 16 46
M  V30 49 1 19 47
M  V30 50 1 21 48
M  V30 51 1 26 49
M  V30 52 1 30 50
M  V30 53 1 30 51
M  V30 54 1 30 52
M  V30 55 1 31 53
M  V30 END BOND
M  V30 END CTAB
M  END
>  <Dataset>  (309) 
ChEMBL_Kinases

>  <Ligand_Instance>  (309) 
nan

>  <PDB_ID>  (309) 
nan

>  <Standardized_SMILES>  (309) 
COc1ccccc1CNCc1ccc(NC(=O)Nc2cnc(C#N)cn2)c(OC)c1

>  <Name>  (309) 
nan

>  <Pocket>  (309) 
nan

>  <ATP_Site>  (309) 
nan

>  <Peripheral>  (309) 
nan

>  <Num_H_Atoms_ProtBoundConf>  (309) 
nan

>  <Num_Resolved_Atoms>  (309) 
nan

>  <Num_Not_Resolved_Atoms>  (309) 
nan

$$$$
CHEMBL3694396
     RDKit          3D

  0  0  0  0  0  0  0  0  0  0999 V3000
M  V30 BEGIN CTAB
M  V30 COUNTS 49 51 0 0 0
M  V30 BEGIN ATOM
M  V30 1 C -1.057341 1.044885 -0.407721 0
M  V30 2 O -1.676020 0.032608 0.355254 0
M  V30 3 C -0.953563 -0.597777 1.365009 0
M  V30 4 C 0.359597 -0.223516 1.605229 0
M  V30 5 C 1.149800 -0.787413 2.579783 0
M  V30 6 C 2.553954 -0.471195 2.900842 0
M  V30 7 N 3.080986 0.684806 2.261928 0
M  V30 8 C 2.537644 1.943718 2.647405 0
M  V30 9 C 3.157461 3.005748 1.775317 0
M  V30 10 C 4.298072 3.714704 2.083835 0
M  V30 11 C 4.777632 4.666718 1.190506 0
M  V30 12 C 4.108922 4.903884 -0.010911 0
M  V30 13 F 4.554654 5.826129 -0.895584 0
M  V30 14 C 2.962815 4.191541 -0.320682 0
M  V30 15 C 2.484034 3.239836 0.572439 0
M  V30 16 C 0.594451 -1.791816 3.367926 0
M  V30 17 Cl 1.475332 -2.609702 4.654125 0
M  V30 18 C -0.705659 -2.184974 3.153256 0
M  V30 19 C -1.464268 -1.611279 2.183351 0
M  V30 20 N -2.830582 -1.919516 1.824759 0
M  V30 21 C -2.850980 -2.906487 0.798570 0
M  V30 22 O -1.696143 -3.296703 0.429599 0
M  V30 23 N -4.022506 -3.472370 0.171670 0
M  V30 24 C -3.865400 -4.463589 -0.866571 0
M  V30 25 C -3.792463 -5.825464 -0.665551 0
M  V30 26 N -3.643940 -6.649481 -1.741403 0
M  V30 27 C -3.571919 -6.093662 -2.985994 0
M  V30 28 C -3.416006 -7.055549 -4.038931 0
M  V30 29 N -3.280833 -7.834182 -4.911109 0
M  V30 30 C -3.643536 -4.732904 -3.197826 0
M  V30 31 N -3.790372 -3.935768 -2.123705 0
M  V30 32 H -0.149653 0.636993 -0.858007 0
M  V30 33 H -1.761401 1.381746 -1.196834 0
M  V30 34 H -0.876807 1.887345 0.309756 0
M  V30 35 H 0.810416 0.544778 0.997244 0
M  V30 36 H 3.200149 -1.334233 2.561083 0
M  V30 37 H 2.726455 -0.464035 4.017781 0
M  V30 38 H 3.373978 0.573583 1.289744 0
M  V30 39 H 2.874676 2.223781 3.700770 0
M  V30 40 H 1.462269 2.052988 2.659654 0
M  V30 41 H 4.778164 3.495295 3.023016 0
M  V30 42 H 5.667450 5.214070 1.440873 0
M  V30 43 H 2.427414 4.360604 -1.251385 0
M  V30 44 H 1.576209 2.710517 0.268975 0
M  V30 45 H -1.244881 -2.954704 3.702834 0
M  V30 46 H -3.773573 -1.586874 2.143205 0
M  V30 47 H -4.897267 -3.076023 0.557609 0
M  V30 48 H -3.858601 -6.164053 0.356210 0
M  V30 49 H -3.575918 -4.400463 -4.231746 0
M  V30 END ATOM
M  V30 BEGIN BOND
M  V30 1 1 1 2
M  V30 2 1 2 3
M  V30 3 2 3 4
M  V30 4 1 4 5
M  V30 5 1 5 6
M  V30 6 1 6 7
M  V30 7 1 7 8
M  V30 8 1 8 9
M  V30 9 2 9 10
M  V30 10 1 10 11
M  V30 11 2 11 12
M  V30 12 1 12 13
M  V30 13 1 12 14
M  V30 14 2 14 15
M  V30 15 2 5 16
M  V30 16 1 16 17
M  V30 17 1 16 18
M  V30 18 2 18 19
M  V30 19 1 19 20
M  V30 20 1 20 21
M  V30 21 2 21 22
M  V30 22 1 21 23
M  V30 23 1 23 24
M  V30 24 2 24 25
M  V30 25 1 25 26
M  V30 26 2 26 27
M  V30 27 1 27 28
M  V30 28 3 28 29
M  V30 29 1 27 30
M  V30 30 2 30 31
M  V30 31 1 19 3
M  V30 32 1 31 24
M  V30 33 1 15 9
M  V30 34 1 1 32
M  V30 35 1 1 33
M  V30 36 1 1 34
M  V30 37 1 4 35
M  V30 38 1 6 36
M  V30 39 1 6 37
M  V30 40 1 7 38
M  V30 41 1 8 39
M  V30 42 1 8 40
M  V30 43 1 10 41
M  V30 44 1 11 42
M  V30 45 1 14 43
M  V30 46 1 15 44
M  V30 47 1 18 45
M  V30 48 1 20 46
M  V30 49 1 23 47
M  V30 50 1 25 48
M  V30 51 1 30 49
M  V30 END BOND
M  V30 END CTAB
M  END
>  <Dataset>  (310) 
ChEMBL_Kinases

>  <Ligand_Instance>  (310) 
nan

>  <PDB_ID>  (310) 
nan

>  <Standardized_SMILES>  (310) 
COc1cc(CNCc2ccc(F)cc2)c(Cl)cc1NC(=O)Nc1cnc(C#N)cn1

>  <Name>  (310) 
nan

>  <Pocket>  (310) 
nan

>  <ATP_Site>  (310) 
nan

>  <Peripheral>  (310) 
nan

>  <Num_H_Atoms_ProtBoundConf>  (310) 
nan

>  <Num_Resolved_Atoms>  (310) 
nan

>  <Num_Not_Resolved_Atoms>  (310) 
nan

$$$$
CHEMBL3694397
     RDKit          3D

  0  0  0  0  0  0  0  0  0  0999 V3000
M  V30 BEGIN CTAB
M  V30 COUNTS 66 69 0 0 0
M  V30 BEGIN ATOM
M  V30 1 C 1.175233 1.372703 4.230971 0
M  V30 2 O 1.484277 0.001471 4.173523 0
M  V30 3 C 0.490489 -0.948197 4.096113 0
M  V30 4 C -0.834243 -0.564502 4.072094 0
M  V30 5 C -1.865304 -1.475536 3.995211 0
M  V30 6 C -3.305151 -1.168786 3.920472 0
M  V30 7 C -3.765679 -1.126594 2.496207 0
M  V30 8 N -3.512147 -2.353742 1.796072 0
M  V30 9 C -4.076938 -2.267347 0.442100 0
M  V30 10 C -3.399508 -1.145026 -0.239229 0
M  V30 11 C -2.215913 -1.469499 -0.902282 0
M  V30 12 C -1.488481 -0.526483 -1.575909 0
M  V30 13 C -1.864282 0.799695 -1.650230 0
M  V30 14 N -1.131735 1.807637 -2.332462 0
M  V30 15 C -1.562348 3.171337 -2.570565 0
M  V30 16 C -1.426850 3.581447 -4.015462 0
M  V30 17 N -0.260252 3.106320 -4.680465 0
M  V30 18 C 0.100055 1.758455 -4.368206 0
M  V30 19 C 0.188530 1.591156 -2.888657 0
M  V30 20 C -3.025003 1.090498 -0.994063 0
M  V30 21 C -3.788265 0.173922 -0.304186 0
M  V30 22 C -1.568613 -2.837828 3.940650 0
M  V30 23 Cl -2.676487 -4.209136 3.891115 0
M  V30 24 C -0.256923 -3.264301 3.961281 0
M  V30 25 C 0.763157 -2.314216 4.038870 0
M  V30 26 N 2.172243 -2.628361 4.062925 0
M  V30 27 C 2.653878 -2.656001 2.741578 0
M  V30 28 O 1.803817 -2.415961 1.865862 0
M  V30 29 N 3.964068 -2.919151 2.298575 0
M  V30 30 C 4.495130 -2.957558 0.992845 0
M  V30 31 C 3.832356 -2.738807 -0.186514 0
M  V30 32 N 4.417763 -2.793296 -1.396017 0
M  V30 33 C 5.736692 -3.078151 -1.491292 0
M  V30 34 C 6.378578 -3.140780 -2.771883 0
M  V30 35 N 6.899145 -3.180739 -3.810828 0
M  V30 36 C 6.420139 -3.300848 -0.323269 0
M  V30 37 N 5.797032 -3.236649 0.863793 0
M  V30 38 H 0.323265 1.591424 4.913610 0
M  V30 39 H 2.042893 1.977761 4.591976 0
M  V30 40 H 0.948694 1.722881 3.201054 0
M  V30 41 H -1.165875 0.456251 4.110192 0
M  V30 42 H -3.921253 -1.896217 4.501544 0
M  V30 43 H -3.440518 -0.126602 4.327439 0
M  V30 44 H -4.815094 -0.781099 2.392231 0
M  V30 45 H -3.128718 -0.339676 1.995867 0
M  V30 46 H -2.456131 -2.447925 1.620552 0
M  V30 47 H -5.167432 -2.041421 0.498452 0
M  V30 48 H -3.925354 -3.229458 -0.046669 0
M  V30 49 H -1.844104 -2.502113 -0.893924 0
M  V30 50 H -0.582608 -0.848417 -2.067984 0
M  V30 51 H -0.930101 3.820211 -1.923148 0
M  V30 52 H -2.616158 3.324392 -2.273167 0
M  V30 53 H -1.416826 4.696543 -4.037222 0
M  V30 54 H -2.378949 3.284299 -4.535603 0
M  V30 55 H -0.474281 3.133500 -5.722989 0
M  V30 56 H 1.131828 1.605617 -4.776875 0
M  V30 57 H -0.531836 1.002425 -4.870860 0
M  V30 58 H 0.663370 0.643379 -2.572976 0
M  V30 59 H 0.841930 2.412602 -2.507833 0
M  V30 60 H -3.465981 2.073102 -0.947423 0
M  V30 61 H -4.712725 0.390148 0.221358 0
M  V30 62 H 0.129192 -4.261221 3.925305 0
M  V30 63 H 2.886144 -2.832140 4.823859 0
M  V30 64 H 4.564453 -3.101407 3.124560 0
M  V30 65 H 2.792249 -2.509840 -0.168110 0
M  V30 66 H 7.458245 -3.528444 -0.364718 0
M  V30 END ATOM
M  V30 BEGIN BOND
M  V30 1 1 1 2
M  V30 2 1 2 3
M  V30 3 2 3 4
M  V30 4 1 4 5
M  V30 5 1 5 6
M  V30 6 1 6 7
M  V30 7 1 7 8
M  V30 8 1 8 9
M  V30 9 1 9 10
M  V30 10 2 10 11
M  V30 11 1 11 12
M  V30 12 2 12 13
M  V30 13 1 13 14
M  V30 14 1 14 15
M  V30 15 1 15 16
M  V30 16 1 16 17
M  V30 17 1 17 18
M  V30 18 1 18 19
M  V30 19 1 13 20
M  V30 20 2 20 21
M  V30 21 2 5 22
M  V30 22 1 22 23
M  V30 23 1 22 24
M  V30 24 2 24 25
M  V30 25 1 25 26
M  V30 26 1 26 27
M  V30 27 2 27 28
M  V30 28 1 27 29
M  V30 29 1 29 30
M  V30 30 2 30 31
M  V30 31 1 31 32
M  V30 32 2 32 33
M  V30 33 1 33 34
M  V30 34 3 34 35
M  V30 35 1 33 36
M  V30 36 2 36 37
M  V30 37 1 25 3
M  V30 38 1 37 30
M  V30 39 1 21 10
M  V30 40 1 19 14
M  V30 41 1 1 38
M  V30 42 1 1 39
M  V30 43 1 1 40
M  V30 44 1 4 41
M  V30 45 1 6 42
M  V30 46 1 6 43
M  V30 47 1 7 44
M  V30 48 1 7 45
M  V30 49 1 8 46
M  V30 50 1 9 47
M  V30 51 1 9 48
M  V30 52 1 11 49
M  V30 53 1 12 50
M  V30 54 1 15 51
M  V30 55 1 15 52
M  V30 56 1 16 53
M  V30 57 1 16 54
M  V30 58 1 17 55
M  V30 59 1 18 56
M  V30 60 1 18 57
M  V30 61 1 19 58
M  V30 62 1 19 59
M  V30 63 1 20 60
M  V30 64 1 21 61
M  V30 65 1 24 62
M  V30 66 1 26 63
M  V30 67 1 29 64
M  V30 68 1 31 65
M  V30 69 1 36 66
M  V30 END BOND
M  V30 END CTAB
M  END
>  <Dataset>  (311) 
ChEMBL_Kinases

>  <Ligand_Instance>  (311) 
nan

>  <PDB_ID>  (311) 
nan

>  <Standardized_SMILES>  (311) 
COc1cc(CCNCc2ccc(N3CCNCC3)cc2)c(Cl)cc1NC(=O)Nc1cnc(C#N)cn1

>  <Name>  (311) 
nan

>  <Pocket>  (311) 
nan

>  <ATP_Site>  (311) 
nan

>  <Peripheral>  (311) 
nan

>  <Num_H_Atoms_ProtBoundConf>  (311) 
nan

>  <Num_Resolved_Atoms>  (311) 
nan

>  <Num_Not_Resolved_Atoms>  (311) 
nan

$$$$
CHEMBL3694398
     RDKit          3D

  0  0  0  0  0  0  0  0  0  0999 V3000
M  V30 BEGIN CTAB
M  V30 COUNTS 59 61 0 0 0
M  V30 BEGIN ATOM
M  V30 1 C 2.613646 -3.390413 3.057116 0
M  V30 2 O 2.090936 -2.134971 2.767127 0
M  V30 3 C 2.736629 -0.912166 2.965574 0
M  V30 4 C 4.005666 -0.848783 3.492924 0
M  V30 5 C 4.656364 0.370410 3.696617 0
M  V30 6 C 4.021169 1.574174 3.363947 0
M  V30 7 C 2.742120 1.417961 2.836357 0
M  V30 8 C 2.051743 2.678594 2.513262 0 CFG=2
M  V30 9 C 0.910625 2.872346 3.558755 0
M  V30 10 N 1.395382 2.750816 1.261990 0
M  V30 11 C 2.211324 2.797661 0.064708 0
M  V30 12 C 1.220854 2.982573 -1.084681 0
M  V30 13 C 0.333437 1.870144 -1.371033 0
M  V30 14 C -0.534776 1.279074 -0.494639 0
M  V30 15 C -1.324413 0.195291 -0.795474 0
M  V30 16 O -2.198556 -0.431225 0.061535 0
M  V30 17 C -2.333366 0.003971 1.391467 0
M  V30 18 C -1.224003 -0.322970 -2.098657 0
M  V30 19 N -2.012284 -1.397862 -2.567322 0
M  V30 20 C -2.527510 -2.633451 -2.213124 0
M  V30 21 O -2.101738 -2.895580 -1.008486 0
M  V30 22 N -3.349625 -3.530994 -2.906214 0
M  V30 23 C -3.691266 -4.745013 -2.199661 0
M  V30 24 C -4.761183 -4.914303 -1.333831 0
M  V30 25 N -4.948830 -6.127051 -0.755116 0
M  V30 26 C -4.110566 -7.152025 -1.015888 0
M  V30 27 C -4.248080 -8.453543 -0.434108 0
M  V30 28 N -4.368994 -9.503791 0.055629 0
M  V30 29 C -3.047566 -6.991508 -1.874004 0
M  V30 30 N -2.851704 -5.791861 -2.453787 0
M  V30 31 C -0.359871 0.240424 -3.012511 0
M  V30 32 C 0.412519 1.319671 -2.662216 0
M  V30 33 Cl 1.495453 1.998426 -3.893969 0
M  V30 34 C 2.051799 0.252602 2.612092 0
M  V30 35 H 3.668588 -3.404851 3.376659 0
M  V30 36 H 2.575119 -4.010931 2.122931 0
M  V30 37 H 1.962344 -3.861688 3.843915 0
M  V30 38 H 4.594518 -1.703501 3.784919 0
M  V30 39 H 5.673017 0.453215 4.113012 0
M  V30 40 H 4.469648 2.541139 3.498602 0
M  V30 41 H 2.667329 3.590009 2.638854 0
M  V30 42 H 1.170453 2.322349 4.486873 0
M  V30 43 H 0.013164 2.402973 3.121873 0
M  V30 44 H 0.786608 3.940297 3.805401 0
M  V30 45 H 0.724178 3.564324 1.192861 0
M  V30 46 H 2.888452 1.959658 -0.069100 0
M  V30 47 H 2.791426 3.731018 0.134673 0
M  V30 48 H 0.590264 3.876065 -0.802841 0
M  V30 49 H 1.832503 3.219481 -2.000894 0
M  V30 50 H -0.577533 1.725839 0.479644 0
M  V30 51 H -1.456180 0.585268 1.763209 0
M  V30 52 H -2.503521 -0.885742 2.078580 0
M  V30 53 H -3.206996 0.696147 1.443018 0
M  V30 54 H -2.385421 -1.226230 -3.563179 0
M  V30 55 H -3.594545 -3.185657 -3.848326 0
M  V30 56 H -5.381977 -4.044709 -1.181769 0
M  V30 57 H -2.357921 -7.827278 -2.095774 0
M  V30 58 H -0.281953 -0.158508 -4.036689 0
M  V30 59 H 1.051970 0.259748 2.198718 0
M  V30 END ATOM
M  V30 BEGIN BOND
M  V30 1 1 1 2
M  V30 2 1 2 3
M  V30 3 2 3 4
M  V30 4 1 4 5
M  V30 5 2 5 6
M  V30 6 1 6 7
M  V30 7 1 7 8
M  V30 8 1 8 9
M  V30 9 1 8 10
M  V30 10 1 10 11
M  V30 11 1 11 12
M  V30 12 1 12 13
M  V30 13 2 13 14
M  V30 14 1 14 15
M  V30 15 1 15 16
M  V30 16 1 16 17
M  V30 17 2 15 18
M  V30 18 1 18 19
M  V30 19 1 19 20
M  V30 20 2 20 21
M  V30 21 1 20 22
M  V30 22 1 22 23
M  V30 23 2 23 24
M  V30 24 1 24 25
M  V30 25 2 25 26
M  V30 26 1 26 27
M  V30 27 3 27 28
M  V30 28 1 26 29
M  V30 29 2 29 30
M  V30 30 1 18 31
M  V30 31 2 31 32
M  V30 32 1 32 33
M  V30 33 2 7 34
M  V30 34 1 34 3
M  V30 35 1 32 13
M  V30 36 1 30 23
M  V30 37 1 1 35
M  V30 38 1 1 36
M  V30 39 1 1 37
M  V30 40 1 4 38
M  V30 41 1 5 39
M  V30 42 1 6 40
M  V30 43 1 8 41 CFG=3
M  V30 44 1 9 42
M  V30 45 1 9 43
M  V30 46 1 9 44
M  V30 47 1 10 45
M  V30 48 1 11 46
M  V30 49 1 11 47
M  V30 50 1 12 48
M  V30 51 1 12 49
M  V30 52 1 14 50
M  V30 53 1 17 51
M  V30 54 1 17 52
M  V30 55 1 17 53
M  V30 56 1 19 54
M  V30 57 1 22 55
M  V30 58 1 24 56
M  V30 59 1 29 57
M  V30 60 1 31 58
M  V30 61 1 34 59
M  V30 END BOND
M  V30 END CTAB
M  END
>  <Dataset>  (312) 
ChEMBL_Kinases

>  <Ligand_Instance>  (312) 
nan

>  <PDB_ID>  (312) 
nan

>  <Standardized_SMILES>  (312) 
COc1cccc([C@H](C)NCCc2cc(OC)c(NC(=O)Nc3cnc(C#N)cn3)cc2Cl)c1

>  <Name>  (312) 
nan

>  <Pocket>  (312) 
nan

>  <ATP_Site>  (312) 
nan

>  <Peripheral>  (312) 
nan

>  <Num_H_Atoms_ProtBoundConf>  (312) 
nan

>  <Num_Resolved_Atoms>  (312) 
nan

>  <Num_Not_Resolved_Atoms>  (312) 
nan

$$$$
CHEMBL3694399
     RDKit          3D

  0  0  0  0  0  0  0  0  0  0999 V3000
M  V30 BEGIN CTAB
M  V30 COUNTS 46 48 0 0 0
M  V30 BEGIN ATOM
M  V30 1 C -0.509872 -5.534615 -1.398691 0
M  V30 2 O -0.131927 -4.198216 -1.109677 0
M  V30 3 C 1.172400 -3.849165 -0.787866 0
M  V30 4 C 2.165522 -4.828929 -0.739967 0
M  V30 5 C 3.449589 -4.512286 -0.427370 0
M  V30 6 C 3.814545 -3.211051 -0.146770 0
M  V30 7 C 2.803425 -2.254691 -0.202041 0
M  V30 8 C 1.504059 -2.538432 -0.512575 0
M  V30 9 C 0.445549 -1.538505 -0.570596 0
M  V30 10 C 0.662164 -0.204014 -0.313703 0
M  V30 11 C -0.361106 0.727646 -0.375194 0
M  V30 12 N -0.140229 2.129332 -0.107603 0
M  V30 13 C 0.196116 2.617804 -1.444777 0
M  V30 14 C -0.165589 3.045199 1.003290 0
M  V30 15 O 0.119242 4.270406 0.759460 0
M  V30 16 C -0.500470 2.611870 2.358867 0 CFG=2
M  V30 17 C 0.406605 1.557927 2.942284 0
M  V30 18 C -0.068440 1.371992 4.391970 0
M  V30 19 C -1.496167 0.948063 4.477078 0
M  V30 20 N -2.077879 0.906758 3.152551 0
M  V30 21 C -1.921045 2.124662 2.428596 0
M  V30 22 N -1.582494 0.308528 -0.692427 0
M  V30 23 C -1.836442 -0.979621 -0.949634 0
M  V30 24 N -0.822635 -1.860549 -0.881942 0
M  V30 25 H -0.557209 -6.143107 -0.471718 0
M  V30 26 H -1.470160 -5.556988 -1.953419 0
M  V30 27 H 0.263508 -5.983244 -2.061329 0
M  V30 28 H 1.966629 -5.867811 -0.945072 0
M  V30 29 H 4.241778 -5.269149 -0.385288 0
M  V30 30 H 4.829597 -2.929333 0.105321 0
M  V30 31 H 3.099092 -1.250078 0.017426 0
M  V30 32 H 1.627162 0.153586 -0.058872 0
M  V30 33 H -0.616934 2.478537 -2.176010 0
M  V30 34 H 0.352166 3.717889 -1.382441 0
M  V30 35 H 1.114882 2.164012 -1.837513 0
M  V30 36 H -0.398157 3.504058 3.041181 0
M  V30 37 H 0.355720 0.581290 2.448799 0
M  V30 38 H 1.429145 1.978075 3.049675 0
M  V30 39 H 0.087800 2.381380 4.866977 0
M  V30 40 H 0.643703 0.703647 4.907545 0
M  V30 41 H -2.056102 1.614547 5.159841 0
M  V30 42 H -1.510959 -0.051669 4.955054 0
M  V30 43 H -1.901394 0.037904 2.641937 0
M  V30 44 H -2.555382 2.899715 2.905205 0
M  V30 45 H -2.339854 1.981461 1.414372 0
M  V30 46 H -2.841656 -1.301307 -1.207036 0
M  V30 END ATOM
M  V30 BEGIN BOND
M  V30 1 1 1 2
M  V30 2 1 2 3
M  V30 3 2 3 4
M  V30 4 1 4 5
M  V30 5 2 5 6
M  V30 6 1 6 7
M  V30 7 2 7 8
M  V30 8 1 8 9
M  V30 9 2 9 10
M  V30 10 1 10 11
M  V30 11 1 11 12
M  V30 12 1 12 13
M  V30 13 1 12 14
M  V30 14 2 14 15
M  V30 15 1 14 16
M  V30 16 1 16 17
M  V30 17 1 17 18
M  V30 18 1 18 19
M  V30 19 1 19 20
M  V30 20 1 20 21
M  V30 21 2 11 22
M  V30 22 1 22 23
M  V30 23 2 23 24
M  V30 24 1 8 3
M  V30 25 1 24 9
M  V30 26 1 21 16
M  V30 27 1 1 25
M  V30 28 1 1 26
M  V30 29 1 1 27
M  V30 30 1 4 28
M  V30 31 1 5 29
M  V30 32 1 6 30
M  V30 33 1 7 31
M  V30 34 1 10 32
M  V30 35 1 13 33
M  V30 36 1 13 34
M  V30 37 1 13 35
M  V30 38 1 16 36 CFG=1
M  V30 39 1 17 37
M  V30 40 1 17 38
M  V30 41 1 18 39
M  V30 42 1 18 40
M  V30 43 1 19 41
M  V30 44 1 19 42
M  V30 45 1 20 43
M  V30 46 1 21 44
M  V30 47 1 21 45
M  V30 48 1 23 46
M  V30 END BOND
M  V30 END CTAB
M  END
>  <Dataset>  (313) 
ChEMBL_Kinases

>  <Ligand_Instance>  (313) 
nan

>  <PDB_ID>  (313) 
nan

>  <Standardized_SMILES>  (313) 
COc1ccccc1-c1cc(N(C)C(=O)[C@@H]2CCCNC2)ncn1

>  <Name>  (313) 
nan

>  <Pocket>  (313) 
nan

>  <ATP_Site>  (313) 
nan

>  <Peripheral>  (313) 
nan

>  <Num_H_Atoms_ProtBoundConf>  (313) 
nan

>  <Num_Resolved_Atoms>  (313) 
nan

>  <Num_Not_Resolved_Atoms>  (313) 
nan

$$$$
CHEMBL3694400
     RDKit          3D

  0  0  0  0  0  0  0  0  0  0999 V3000
M  V30 BEGIN CTAB
M  V30 COUNTS 43 45 0 0 0
M  V30 BEGIN ATOM
M  V30 1 C -2.673544 -5.513724 1.023605 0
M  V30 2 O -1.856001 -4.410716 0.779753 0
M  V30 3 C -0.478290 -4.367357 0.952935 0
M  V30 4 C 0.181060 -5.494688 1.405199 0
M  V30 5 C 1.548997 -5.504902 1.594286 0
M  V30 6 C 2.226972 -4.336598 1.310490 0
M  V30 7 F 3.575508 -4.324159 1.489662 0
M  V30 8 C 1.570966 -3.209016 0.858605 0
M  V30 9 C 0.204075 -3.202104 0.670715 0
M  V30 10 C -0.565752 -2.056565 0.197665 0
M  V30 11 C 0.007068 -0.844030 -0.114289 0
M  V30 12 C -0.697764 0.259574 -0.564943 0
M  V30 13 N -0.024191 1.496095 -0.870925 0
M  V30 14 C 0.008550 2.295457 0.329146 0
M  V30 15 O -0.562975 1.668826 1.283296 0
M  V30 16 C 0.635496 3.651641 0.381604 0
M  V30 17 C 2.108452 3.547723 0.019504 0
M  V30 18 C 2.682898 2.409883 0.797335 0
M  V30 19 C 2.331304 2.362155 2.233245 0
M  V30 20 N 1.162922 3.020270 2.668061 0
M  V30 21 C 0.630167 4.042476 1.859357 0
M  V30 22 N -2.048796 0.109783 -0.700483 0
M  V30 23 C -2.625073 -1.074836 -0.397972 0
M  V30 24 N -1.903036 -2.115549 0.034799 0
M  V30 25 H -2.963792 -5.644666 2.081776 0
M  V30 26 H -3.609112 -5.366725 0.408725 0
M  V30 27 H -2.200458 -6.419828 0.570346 0
M  V30 28 H -0.388207 -6.391503 1.616428 0
M  V30 29 H 2.037471 -6.401544 1.949101 0
M  V30 30 H 2.118958 -2.302794 0.641480 0
M  V30 31 H 1.051981 -0.698608 -0.018949 0
M  V30 32 H 0.417686 1.894334 -1.750343 0
M  V30 33 H 0.095475 4.389751 -0.215764 0
M  V30 34 H 2.581040 4.518788 0.229054 0
M  V30 35 H 2.189477 3.293048 -1.068282 0
M  V30 36 H 2.459562 1.449751 0.248553 0
M  V30 37 H 3.804310 2.501878 0.719495 0
M  V30 38 H 2.225261 1.276623 2.515253 0
M  V30 39 H 3.179836 2.726929 2.874603 0
M  V30 40 H 0.491667 2.459657 3.220143 0
M  V30 41 H 1.197973 4.981757 2.020675 0
M  V30 42 H -0.461678 4.162537 2.102660 0
M  V30 43 H -3.691495 -1.218406 -0.496813 0
M  V30 END ATOM
M  V30 BEGIN BOND
M  V30 1 1 1 2
M  V30 2 1 2 3
M  V30 3 2 3 4
M  V30 4 1 4 5
M  V30 5 2 5 6
M  V30 6 1 6 7
M  V30 7 1 6 8
M  V30 8 2 8 9
M  V30 9 1 9 10
M  V30 10 2 10 11
M  V30 11 1 11 12
M  V30 12 1 12 13
M  V30 13 1 13 14
M  V30 14 2 14 15
M  V30 15 1 14 16
M  V30 16 1 16 17
M  V30 17 1 17 18
M  V30 18 1 18 19
M  V30 19 1 19 20
M  V30 20 1 20 21
M  V30 21 2 12 22
M  V30 22 1 22 23
M  V30 23 2 23 24
M  V30 24 1 9 3
M  V30 25 1 24 10
M  V30 26 1 21 16
M  V30 27 1 1 25
M  V30 28 1 1 26
M  V30 29 1 1 27
M  V30 30 1 4 28
M  V30 31 1 5 29
M  V30 32 1 8 30
M  V30 33 1 11 31
M  V30 34 1 13 32
M  V30 35 1 16 33
M  V30 36 1 17 34
M  V30 37 1 17 35
M  V30 38 1 18 36
M  V30 39 1 18 37
M  V30 40 1 19 38
M  V30 41 1 19 39
M  V30 42 1 20 40
M  V30 43 1 21 41
M  V30 44 1 21 42
M  V30 45 1 23 43
M  V30 END BOND
M  V30 END CTAB
M  END
>  <Dataset>  (314) 
ChEMBL_Kinases

>  <Ligand_Instance>  (314) 
nan

>  <PDB_ID>  (314) 
nan

>  <Standardized_SMILES>  (314) 
COc1ccc(F)cc1-c1cc(NC(=O)C2CCCNC2)ncn1

>  <Name>  (314) 
nan

>  <Pocket>  (314) 
nan

>  <ATP_Site>  (314) 
nan

>  <Peripheral>  (314) 
nan

>  <Num_H_Atoms_ProtBoundConf>  (314) 
nan

>  <Num_Resolved_Atoms>  (314) 
nan

>  <Num_Not_Resolved_Atoms>  (314) 
nan

$$$$
CHEMBL3694796
     RDKit          3D

  0  0  0  0  0  0  0  0  0  0999 V3000
M  V30 BEGIN CTAB
M  V30 COUNTS 47 49 0 0 0
M  V30 BEGIN ATOM
M  V30 1 C -2.331923 -4.554926 -2.438685 0
M  V30 2 N -1.493705 -5.320514 -1.536731 0
M  V30 3 C -1.126953 -4.858694 -0.244831 0
M  V30 4 N -1.569446 -3.644231 0.190754 0
M  V30 5 C -1.223493 -3.195491 1.423375 0
M  V30 6 N -1.718440 -1.914361 1.825779 0
M  V30 7 C -1.141401 -0.632084 1.643765 0
M  V30 8 C 0.073352 -0.563797 0.993408 0
M  V30 9 C 0.614334 0.699563 0.829161 0
M  V30 10 O 1.742309 1.035366 0.253186 0
M  V30 11 C 1.933950 2.313258 0.279429 0
M  V30 12 C 2.906139 3.314566 -0.144103 0
M  V30 13 O 3.375905 3.630910 -1.270843 0
M  V30 14 N 3.598545 4.238125 0.712621 0
M  V30 15 C 4.509123 5.113324 -0.029132 0
M  V30 16 C 3.505446 4.399933 2.171452 0
M  V30 17 C 0.835622 2.885157 0.931621 0
M  V30 18 C -0.029137 1.844806 1.293730 0
M  V30 19 C -1.242418 1.709887 1.936516 0
M  V30 20 C -1.814776 0.474072 2.120628 0
M  V30 21 O -3.034462 0.318153 2.764878 0
M  V30 22 C -3.696556 1.497212 3.243324 0
M  V30 23 N -0.441955 -3.885324 2.291347 0
M  V30 24 C 0.020669 -5.105583 1.891688 0
M  V30 25 C -0.332934 -5.557196 0.639786 0
M  V30 26 C 0.147656 -6.875612 0.169771 0
M  V30 27 F 0.908474 -6.793011 -0.972145 0
M  V30 28 F 0.899555 -7.488936 1.142389 0
M  V30 29 F -0.931418 -7.731830 -0.091507 0
M  V30 30 H -2.432954 -3.502148 -2.126403 0
M  V30 31 H -1.907844 -4.552220 -3.474697 0
M  V30 32 H -3.348613 -4.993118 -2.500536 0
M  V30 33 H -1.144017 -6.251779 -1.849772 0
M  V30 34 H -2.620609 -2.093882 2.299068 0
M  V30 35 H 0.586034 -1.450162 0.625821 0
M  V30 36 H 5.494788 4.663974 -0.186205 0
M  V30 37 H 4.578969 6.070353 0.565671 0
M  V30 38 H 4.079792 5.402311 -1.005995 0
M  V30 39 H 3.380496 5.458473 2.445918 0
M  V30 40 H 4.404189 3.971508 2.666752 0
M  V30 41 H 2.624438 3.794955 2.495892 0
M  V30 42 H 0.499487 3.887352 1.215165 0
M  V30 43 H -1.721162 2.612940 2.287292 0
M  V30 44 H -3.064751 1.931125 4.045671 0
M  V30 45 H -4.673064 1.265790 3.677294 0
M  V30 46 H -3.745405 2.245333 2.420603 0
M  V30 47 H 0.658249 -5.757818 2.499425 0
M  V30 END ATOM
M  V30 BEGIN BOND
M  V30 1 1 1 2
M  V30 2 1 2 3
M  V30 3 2 3 4
M  V30 4 1 4 5
M  V30 5 1 5 6
M  V30 6 1 6 7
M  V30 7 2 7 8
M  V30 8 1 8 9
M  V30 9 1 9 10
M  V30 10 1 10 11
M  V30 11 1 11 12
M  V30 12 2 12 13
M  V30 13 1 12 14
M  V30 14 1 14 15
M  V30 15 1 14 16
M  V30 16 2 11 17
M  V30 17 1 17 18
M  V30 18 1 18 19
M  V30 19 2 19 20
M  V30 20 1 20 21
M  V30 21 1 21 22
M  V30 22 2 5 23
M  V30 23 1 23 24
M  V30 24 2 24 25
M  V30 25 1 25 26
M  V30 26 1 26 27
M  V30 27 1 26 28
M  V30 28 1 26 29
M  V30 29 1 25 3
M  V30 30 1 20 7
M  V30 31 2 18 9
M  V30 32 1 1 30
M  V30 33 1 1 31
M  V30 34 1 1 32
M  V30 35 1 2 33
M  V30 36 1 6 34
M  V30 37 1 8 35
M  V30 38 1 15 36
M  V30 39 1 15 37
M  V30 40 1 15 38
M  V30 41 1 16 39
M  V30 42 1 16 40
M  V30 43 1 16 41
M  V30 44 1 17 42
M  V30 45 1 19 43
M  V30 46 1 22 44
M  V30 47 1 22 45
M  V30 48 1 22 46
M  V30 49 1 24 47
M  V30 END BOND
M  V30 END CTAB
M  END
>  <Dataset>  (315) 
ChEMBL_Kinases

>  <Ligand_Instance>  (315) 
nan

>  <PDB_ID>  (315) 
nan

>  <Standardized_SMILES>  (315) 
CNc1nc(Nc2cc3oc(C(=O)N(C)C)cc3cc2OC)ncc1C(F)(F)F

>  <Name>  (315) 
nan

>  <Pocket>  (315) 
nan

>  <ATP_Site>  (315) 
nan

>  <Peripheral>  (315) 
nan

>  <Num_H_Atoms_ProtBoundConf>  (315) 
nan

>  <Num_Resolved_Atoms>  (315) 
nan

>  <Num_Not_Resolved_Atoms>  (315) 
nan

$$$$
CHEMBL3694402
     RDKit          3D

  0  0  0  0  0  0  0  0  0  0999 V3000
M  V30 BEGIN CTAB
M  V30 COUNTS 42 44 0 0 0
M  V30 BEGIN ATOM
M  V30 1 C 0.398567 -6.398138 -1.183862 0
M  V30 2 O 0.475346 -5.035470 -0.828331 0
M  V30 3 C 0.901768 -4.708938 0.446941 0
M  V30 4 C 1.250265 -5.698600 1.367835 0
M  V30 5 C 1.675698 -5.388923 2.638596 0
M  V30 6 C 1.751220 -4.058402 2.987351 0
M  V30 7 C 1.402255 -3.109451 2.061166 0
M  V30 8 C 0.971092 -3.373366 0.778110 0
M  V30 9 C 0.600509 -2.365416 -0.205331 0
M  V30 10 C 0.636447 -1.030211 0.028772 0
M  V30 11 C 0.291831 -0.067047 -0.883142 0
M  V30 12 N 0.304965 1.337007 -0.708799 0
M  V30 13 C 0.670884 2.089267 0.431321 0
M  V30 14 O 1.045307 1.492243 1.465473 0
M  V30 15 C 0.661836 3.543329 0.545855 0
M  V30 16 C 1.118329 3.953933 1.916361 0
M  V30 17 C 0.125031 3.590873 2.993646 0
M  V30 18 C -1.253059 3.396882 2.435436 0
M  V30 19 O -2.071333 2.977570 3.296207 0
M  V30 20 N -1.714625 3.627094 1.091311 0
M  V30 21 C -0.671156 4.169548 0.231006 0
M  V30 22 N -0.102689 -0.532221 -2.078919 0
M  V30 23 C -0.155957 -1.844152 -2.361314 0
M  V30 24 N 0.188588 -2.762303 -1.445251 0
M  V30 25 H 1.379036 -6.893301 -0.996495 0
M  V30 26 H -0.340746 -6.901823 -0.513625 0
M  V30 27 H 0.130408 -6.528208 -2.242326 0
M  V30 28 H 1.194148 -6.753737 1.102277 0
M  V30 29 H 1.955279 -6.121049 3.383381 0
M  V30 30 H 2.086033 -3.775665 3.991195 0
M  V30 31 H 1.477791 -2.089760 2.379942 0
M  V30 32 H 0.955634 -0.724154 0.989380 0
M  V30 33 H 0.019636 1.967010 -1.479940 0
M  V30 34 H 1.390672 3.958684 -0.182301 0
M  V30 35 H 1.265498 5.042197 1.940860 0
M  V30 36 H 2.080319 3.473749 2.153379 0
M  V30 37 H 0.034824 4.397243 3.748338 0
M  V30 38 H 0.410048 2.658609 3.495170 0
M  V30 39 H -2.691241 3.396582 0.879696 0
M  V30 40 H -0.588113 5.245801 0.545425 0
M  V30 41 H -0.907832 4.157361 -0.828895 0
M  V30 42 H -0.487620 -2.107194 -3.354185 0
M  V30 END ATOM
M  V30 BEGIN BOND
M  V30 1 1 1 2
M  V30 2 1 2 3
M  V30 3 2 3 4
M  V30 4 1 4 5
M  V30 5 2 5 6
M  V30 6 1 6 7
M  V30 7 2 7 8
M  V30 8 1 8 9
M  V30 9 2 9 10
M  V30 10 1 10 11
M  V30 11 1 11 12
M  V30 12 1 12 13
M  V30 13 2 13 14
M  V30 14 1 13 15
M  V30 15 1 15 16
M  V30 16 1 16 17
M  V30 17 1 17 18
M  V30 18 2 18 19
M  V30 19 1 18 20
M  V30 20 1 20 21
M  V30 21 2 11 22
M  V30 22 1 22 23
M  V30 23 2 23 24
M  V30 24 1 8 3
M  V30 25 1 24 9
M  V30 26 1 21 15
M  V30 27 1 1 25
M  V30 28 1 1 26
M  V30 29 1 1 27
M  V30 30 1 4 28
M  V30 31 1 5 29
M  V30 32 1 6 30
M  V30 33 1 7 31
M  V30 34 1 10 32
M  V30 35 1 12 33
M  V30 36 1 15 34
M  V30 37 1 16 35
M  V30 38 1 16 36
M  V30 39 1 17 37
M  V30 40 1 17 38
M  V30 41 1 20 39
M  V30 42 1 21 40
M  V30 43 1 21 41
M  V30 44 1 23 42
M  V30 END BOND
M  V30 END CTAB
M  END
>  <Dataset>  (316) 
ChEMBL_Kinases

>  <Ligand_Instance>  (316) 
nan

>  <PDB_ID>  (316) 
nan

>  <Standardized_SMILES>  (316) 
COc1ccccc1-c1cc(NC(=O)C2CCC(=O)NC2)ncn1

>  <Name>  (316) 
nan

>  <Pocket>  (316) 
nan

>  <ATP_Site>  (316) 
nan

>  <Peripheral>  (316) 
nan

>  <Num_H_Atoms_ProtBoundConf>  (316) 
nan

>  <Num_Resolved_Atoms>  (316) 
nan

>  <Num_Not_Resolved_Atoms>  (316) 
nan

$$$$
CHEMBL3694403
     RDKit          3D

  0  0  0  0  0  0  0  0  0  0999 V3000
M  V30 BEGIN CTAB
M  V30 COUNTS 46 48 0 0 0
M  V30 BEGIN ATOM
M  V30 1 C 4.067302 -0.377581 2.721154 0
M  V30 2 O 3.959321 -0.432776 1.333341 0
M  V30 3 C 5.018538 -0.496051 0.459267 0
M  V30 4 C 6.270299 -0.504032 1.028004 0
M  V30 5 C 7.369596 -0.566176 0.205355 0
M  V30 6 C 7.156118 -0.617418 -1.153092 0
M  V30 7 C 5.880308 -0.606691 -1.670540 0
M  V30 8 C 4.740410 -0.545052 -0.884500 0
M  V30 9 C 3.454875 -0.540246 -1.546911 0
M  V30 10 C 2.210156 -0.485419 -0.982087 0
M  V30 11 C 1.039580 -0.485063 -1.678501 0
M  V30 12 N -0.271497 -0.430374 -1.155122 0
M  V30 13 C -0.722524 -0.363682 0.172907 0
M  V30 14 O 0.133016 -0.346953 1.087335 0
M  V30 15 C -2.114498 -0.311248 0.594527 0
M  V30 16 C -2.398171 -0.247720 1.944721 0
M  V30 17 C -3.703077 -0.195076 2.424741 0
M  V30 18 C -4.769814 -0.204180 1.569869 0
M  V30 19 N -6.130779 -0.153065 1.979416 0
M  V30 20 S -6.774899 -1.106645 3.275348 0
M  V30 21 C -6.012312 -0.753514 4.822308 0
M  V30 22 O -8.237288 -0.777362 3.384125 0
M  V30 23 O -6.693693 -2.574969 2.964781 0
M  V30 24 C -4.506997 -0.267293 0.216688 0
M  V30 25 C -3.205781 -0.318827 -0.238936 0
M  V30 26 N 1.159653 -0.543925 -3.017578 0
M  V30 27 C 2.351479 -0.599408 -3.630012 0
M  V30 28 N 3.468239 -0.596359 -2.884303 0
M  V30 29 H 4.819881 0.395721 3.054610 0
M  V30 30 H 4.471994 -1.364703 3.072312 0
M  V30 31 H 3.125061 -0.233446 3.245829 0
M  V30 32 H 6.402085 -0.462865 2.097262 0
M  V30 33 H 8.353368 -0.572642 0.647623 0
M  V30 34 H 8.035657 -0.665554 -1.773166 0
M  V30 35 H 5.855683 -0.651747 -2.765869 0
M  V30 36 H 2.148366 -0.440034 0.068815 0
M  V30 37 H -1.084307 -0.437582 -1.816365 0
M  V30 38 H -1.617546 -0.235082 2.713533 0
M  V30 39 H -3.894415 -0.145837 3.488111 0
M  V30 40 H -6.730040 0.524648 1.421221 0
M  V30 41 H -6.776785 -0.934438 5.620220 0
M  V30 42 H -5.784526 0.330685 4.898657 0
M  V30 43 H -5.173880 -1.417915 5.074080 0
M  V30 44 H -5.314384 -0.277446 -0.508437 0
M  V30 45 H -3.042576 -0.366864 -1.290582 0
M  V30 46 H 2.357099 -0.644266 -4.702259 0
M  V30 END ATOM
M  V30 BEGIN BOND
M  V30 1 1 1 2
M  V30 2 1 2 3
M  V30 3 2 3 4
M  V30 4 1 4 5
M  V30 5 2 5 6
M  V30 6 1 6 7
M  V30 7 2 7 8
M  V30 8 1 8 9
M  V30 9 2 9 10
M  V30 10 1 10 11
M  V30 11 1 11 12
M  V30 12 1 12 13
M  V30 13 2 13 14
M  V30 14 1 13 15
M  V30 15 2 15 16
M  V30 16 1 16 17
M  V30 17 2 17 18
M  V30 18 1 18 19
M  V30 19 1 19 20
M  V30 20 1 20 21
M  V30 21 2 20 22
M  V30 22 2 20 23
M  V30 23 1 18 24
M  V30 24 2 24 25
M  V30 25 2 11 26
M  V30 26 1 26 27
M  V30 27 2 27 28
M  V30 28 1 8 3
M  V30 29 1 28 9
M  V30 30 1 25 15
M  V30 31 1 1 29
M  V30 32 1 1 30
M  V30 33 1 1 31
M  V30 34 1 4 32
M  V30 35 1 5 33
M  V30 36 1 6 34
M  V30 37 1 7 35
M  V30 38 1 10 36
M  V30 39 1 12 37
M  V30 40 1 16 38
M  V30 41 1 17 39
M  V30 42 1 19 40
M  V30 43 1 21 41
M  V30 44 1 21 42
M  V30 45 1 21 43
M  V30 46 1 24 44
M  V30 47 1 25 45
M  V30 48 1 27 46
M  V30 END BOND
M  V30 END CTAB
M  END
>  <Dataset>  (317) 
ChEMBL_Kinases

>  <Ligand_Instance>  (317) 
nan

>  <PDB_ID>  (317) 
nan

>  <Standardized_SMILES>  (317) 
COc1ccccc1-c1cc(NC(=O)c2ccc(NS(C)(=O)=O)cc2)ncn1

>  <Name>  (317) 
nan

>  <Pocket>  (317) 
nan

>  <ATP_Site>  (317) 
nan

>  <Peripheral>  (317) 
nan

>  <Num_H_Atoms_ProtBoundConf>  (317) 
nan

>  <Num_Resolved_Atoms>  (317) 
nan

>  <Num_Not_Resolved_Atoms>  (317) 
nan

$$$$
CHEMBL3694404
     RDKit          3D

  0  0  0  0  0  0  0  0  0  0999 V3000
M  V30 BEGIN CTAB
M  V30 COUNTS 49 51 0 0 0
M  V30 BEGIN ATOM
M  V30 1 C 3.995437 -2.868733 -0.163398 0
M  V30 2 O 3.789741 -1.482874 -0.024727 0
M  V30 3 C 4.714300 -0.590822 -0.526291 0
M  V30 4 C 5.828907 -1.058788 -1.156508 0
M  V30 5 C 6.756956 -0.183578 -1.659703 0
M  V30 6 C 6.521685 1.160263 -1.505370 0
M  V30 7 C 5.383743 1.605610 -0.862592 0
M  V30 8 C 4.418090 0.739075 -0.338327 0
M  V30 9 C 3.277910 1.363596 0.307659 0
M  V30 10 C 2.206106 0.757368 0.887524 0
M  V30 11 C 1.141952 1.389167 1.489114 0
M  V30 12 N 0.071913 0.641370 2.064296 0
M  V30 13 C -1.082562 0.247562 1.370789 0
M  V30 14 O -1.135810 0.601563 0.159875 0
M  V30 15 C -2.151625 -0.517702 1.999347 0
M  V30 16 C -2.133423 -0.933281 3.323898 0
M  V30 17 C -3.201315 -1.654388 3.817035 0
M  V30 18 C -4.314444 -2.004991 3.080990 0
M  V30 19 C -5.369546 -2.782890 3.773902 0
M  V30 20 C -4.325007 -1.588897 1.767638 0
M  V30 21 N -5.446658 -1.925610 0.975069 0
M  V30 22 S -5.528532 -1.331104 -0.642622 0
M  V30 23 C -4.205991 -1.904409 -1.658195 0
M  V30 24 O -5.561624 0.182386 -0.658511 0
M  V30 25 O -6.819584 -1.761662 -1.284033 0
M  V30 26 C -3.272243 -0.866116 1.244263 0
M  V30 27 N 1.179639 2.735516 1.496375 0
M  V30 28 C 2.239049 3.384674 0.924442 0
M  V30 29 N 3.247021 2.707141 0.353114 0
M  V30 30 H 3.895709 -3.112223 -1.254201 0
M  V30 31 H 3.182135 -3.355597 0.427983 0
M  V30 32 H 4.998272 -3.186827 0.177870 0
M  V30 33 H 5.972431 -2.124641 -1.255108 0
M  V30 34 H 7.617153 -0.619539 -2.147746 0
M  V30 35 H 7.259212 1.812954 -1.906132 0
M  V30 36 H 5.325386 2.691320 -0.811187 0
M  V30 37 H 2.163276 -0.314201 0.889047 0
M  V30 38 H 0.217665 0.402195 3.069004 0
M  V30 39 H -1.277931 -0.678062 3.935242 0
M  V30 40 H -3.106902 -1.944291 4.873265 0
M  V30 41 H -5.096697 -3.876730 3.825357 0
M  V30 42 H -6.366172 -2.715674 3.313620 0
M  V30 43 H -5.431663 -2.459921 4.856645 0
M  V30 44 H -6.229530 -2.518994 1.321056 0
M  V30 45 H -3.535986 -2.577241 -1.101271 0
M  V30 46 H -4.580462 -2.464633 -2.565003 0
M  V30 47 H -3.608719 -1.064370 -2.108987 0
M  V30 48 H -3.284434 -0.542417 0.213829 0
M  V30 49 H 2.256073 4.481994 0.937265 0
M  V30 END ATOM
M  V30 BEGIN BOND
M  V30 1 1 1 2
M  V30 2 1 2 3
M  V30 3 2 3 4
M  V30 4 1 4 5
M  V30 5 2 5 6
M  V30 6 1 6 7
M  V30 7 2 7 8
M  V30 8 1 8 9
M  V30 9 2 9 10
M  V30 10 1 10 11
M  V30 11 1 11 12
M  V30 12 1 12 13
M  V30 13 2 13 14
M  V30 14 1 13 15
M  V30 15 2 15 16
M  V30 16 1 16 17
M  V30 17 2 17 18
M  V30 18 1 18 19
M  V30 19 1 18 20
M  V30 20 1 20 21
M  V30 21 1 21 22
M  V30 22 1 22 23
M  V30 23 2 22 24
M  V30 24 2 22 25
M  V30 25 2 20 26
M  V30 26 2 11 27
M  V30 27 1 27 28
M  V30 28 2 28 29
M  V30 29 1 8 3
M  V30 30 1 29 9
M  V30 31 1 26 15
M  V30 32 1 1 30
M  V30 33 1 1 31
M  V30 34 1 1 32
M  V30 35 1 4 33
M  V30 36 1 5 34
M  V30 37 1 6 35
M  V30 38 1 7 36
M  V30 39 1 10 37
M  V30 40 1 12 38
M  V30 41 1 16 39
M  V30 42 1 17 40
M  V30 43 1 19 41
M  V30 44 1 19 42
M  V30 45 1 19 43
M  V30 46 1 21 44
M  V30 47 1 23 45
M  V30 48 1 23 46
M  V30 49 1 23 47
M  V30 50 1 26 48
M  V30 51 1 28 49
M  V30 END BOND
M  V30 END CTAB
M  END
>  <Dataset>  (318) 
ChEMBL_Kinases

>  <Ligand_Instance>  (318) 
nan

>  <PDB_ID>  (318) 
nan

>  <Standardized_SMILES>  (318) 
COc1ccccc1-c1cc(NC(=O)c2ccc(C)c(NS(C)(=O)=O)c2)ncn1

>  <Name>  (318) 
nan

>  <Pocket>  (318) 
nan

>  <ATP_Site>  (318) 
nan

>  <Peripheral>  (318) 
nan

>  <Num_H_Atoms_ProtBoundConf>  (318) 
nan

>  <Num_Resolved_Atoms>  (318) 
nan

>  <Num_Not_Resolved_Atoms>  (318) 
nan

$$$$
CHEMBL3694405
     RDKit          3D

  0  0  0  0  0  0  0  0  0  0999 V3000
M  V30 BEGIN CTAB
M  V30 COUNTS 46 48 0 0 0
M  V30 BEGIN ATOM
M  V30 1 C 2.814085 -2.426526 3.352521 0
M  V30 2 O 3.070561 -1.632814 2.239342 0
M  V30 3 C 4.315001 -1.362875 1.717360 0
M  V30 4 C 5.376888 -1.941476 2.374108 0
M  V30 5 C 6.649040 -1.710417 1.901685 0
M  V30 6 C 6.788962 -0.908439 0.791690 0
M  V30 7 C 5.688996 -0.354653 0.173457 0
M  V30 8 C 4.396486 -0.556679 0.608843 0
M  V30 9 C 3.320607 0.080952 -0.126909 0
M  V30 10 C 1.972680 0.018316 0.125232 0
M  V30 11 C 0.995224 0.636359 -0.596355 0
M  V30 12 N -0.375505 0.524379 -0.274174 0
M  V30 13 C -1.085480 1.394361 0.597559 0
M  V30 14 O -0.436980 2.322142 1.109574 0
M  V30 15 C -2.502365 1.256747 0.914003 0
M  V30 16 C -3.033767 2.190486 1.780768 0
M  V30 17 C -4.387505 2.093023 2.109044 0
M  V30 18 C -5.144885 1.073349 1.560007 0
M  V30 19 C -4.606106 0.129762 0.683585 0
M  V30 20 N -5.489249 -0.868923 0.188207 0
M  V30 21 S -5.048443 -2.533897 0.126111 0
M  V30 22 C -3.659473 -2.851442 -0.907242 0
M  V30 23 O -6.204758 -3.341185 -0.376657 0
M  V30 24 O -4.778416 -3.052113 1.531857 0
M  V30 25 C -3.265625 0.265434 0.388238 0
M  V30 26 N 1.415568 1.383441 -1.666746 0
M  V30 27 C 2.753247 1.461577 -1.938734 0
M  V30 28 N 3.657035 0.821476 -1.177987 0
M  V30 29 H 3.267667 -2.068964 4.284665 0
M  V30 30 H 3.280431 -3.430201 3.161164 0
M  V30 31 H 1.738768 -2.625680 3.455729 0
M  V30 32 H 5.230363 -2.564970 3.241752 0
M  V30 33 H 7.485307 -2.163185 2.414927 0
M  V30 34 H 7.786523 -0.735565 0.432550 0
M  V30 35 H 5.929434 0.263304 -0.698274 0
M  V30 36 H 1.630523 -0.551373 0.944218 0
M  V30 37 H -0.887627 -0.267804 -0.723755 0
M  V30 38 H -2.474122 2.999745 2.228842 0
M  V30 39 H -4.809778 2.826482 2.791340 0
M  V30 40 H -6.188678 1.022637 1.831627 0
M  V30 41 H -6.432712 -0.522391 -0.138911 0
M  V30 42 H -2.692711 -2.864186 -0.362468 0
M  V30 43 H -3.767885 -3.872847 -1.329698 0
M  V30 44 H -3.671838 -2.173436 -1.781777 0
M  V30 45 H -2.867953 -0.473369 -0.291017 0
M  V30 46 H 3.136763 2.044968 -2.781405 0
M  V30 END ATOM
M  V30 BEGIN BOND
M  V30 1 1 1 2
M  V30 2 1 2 3
M  V30 3 2 3 4
M  V30 4 1 4 5
M  V30 5 2 5 6
M  V30 6 1 6 7
M  V30 7 2 7 8
M  V30 8 1 8 9
M  V30 9 2 9 10
M  V30 10 1 10 11
M  V30 11 1 11 12
M  V30 12 1 12 13
M  V30 13 2 13 14
M  V30 14 1 13 15
M  V30 15 2 15 16
M  V30 16 1 16 17
M  V30 17 2 17 18
M  V30 18 1 18 19
M  V30 19 1 19 20
M  V30 20 1 20 21
M  V30 21 1 21 22
M  V30 22 2 21 23
M  V30 23 2 21 24
M  V30 24 2 19 25
M  V30 25 2 11 26
M  V30 26 1 26 27
M  V30 27 2 27 28
M  V30 28 1 8 3
M  V30 29 1 28 9
M  V30 30 1 25 15
M  V30 31 1 1 29
M  V30 32 1 1 30
M  V30 33 1 1 31
M  V30 34 1 4 32
M  V30 35 1 5 33
M  V30 36 1 6 34
M  V30 37 1 7 35
M  V30 38 1 10 36
M  V30 39 1 12 37
M  V30 40 1 16 38
M  V30 41 1 17 39
M  V30 42 1 18 40
M  V30 43 1 20 41
M  V30 44 1 22 42
M  V30 45 1 22 43
M  V30 46 1 22 44
M  V30 47 1 25 45
M  V30 48 1 27 46
M  V30 END BOND
M  V30 END CTAB
M  END
>  <Dataset>  (319) 
ChEMBL_Kinases

>  <Ligand_Instance>  (319) 
nan

>  <PDB_ID>  (319) 
nan

>  <Standardized_SMILES>  (319) 
COc1ccccc1-c1cc(NC(=O)c2cccc(NS(C)(=O)=O)c2)ncn1

>  <Name>  (319) 
nan

>  <Pocket>  (319) 
nan

>  <ATP_Site>  (319) 
nan

>  <Peripheral>  (319) 
nan

>  <Num_H_Atoms_ProtBoundConf>  (319) 
nan

>  <Num_Resolved_Atoms>  (319) 
nan

>  <Num_Not_Resolved_Atoms>  (319) 
nan

$$$$
CHEMBL3694406
     RDKit          3D

  0  0  0  0  0  0  0  0  0  0999 V3000
M  V30 BEGIN CTAB
M  V30 COUNTS 40 42 0 0 0
M  V30 BEGIN ATOM
M  V30 1 C 0.370758 -5.818585 -1.429810 0
M  V30 2 O 0.569464 -4.460058 -1.168830 0
M  V30 3 C 1.728286 -3.966893 -0.608813 0
M  V30 4 C 2.753268 -4.816112 -0.279917 0
M  V30 5 C 3.935148 -4.380691 0.282494 0
M  V30 6 C 4.049631 -3.008583 0.509174 0
M  V30 7 F 5.183647 -2.474780 1.063827 0
M  V30 8 C 3.013763 -2.160490 0.175475 0
M  V30 9 C 1.836389 -2.609667 -0.386788 0
M  V30 10 C 0.712767 -1.752191 -0.756852 0
M  V30 11 C 0.710803 -0.396512 -0.582130 0
M  V30 12 C -0.326829 0.449689 -0.916828 0
M  V30 13 N -0.269409 1.862311 -0.709318 0
M  V30 14 C -0.766519 2.182721 0.567180 0
M  V30 15 O -1.256257 1.731668 1.637021 0
M  V30 16 C -0.846368 3.585064 1.102977 0
M  V30 17 C -1.427814 3.488090 2.480592 0
M  V30 18 C -0.488898 3.331651 3.503741 0
M  V30 19 C -1.028714 3.240725 4.791890 0
M  V30 20 C -2.377539 3.296872 5.071062 0
M  V30 21 N -3.228275 3.449420 4.031939 0
M  V30 22 C -2.778964 3.544826 2.755131 0
M  V30 23 N -1.429432 -0.141692 -1.465510 0
M  V30 24 C -1.452681 -1.490543 -1.650144 0
M  V30 25 N -0.407354 -2.262907 -1.302592 0
M  V30 26 H 0.830458 -6.169106 -2.374474 0
M  V30 27 H 0.766278 -6.467774 -0.605322 0
M  V30 28 H -0.742210 -5.971399 -1.535498 0
M  V30 29 H 2.717793 -5.898017 -0.435178 0
M  V30 30 H 4.765968 -5.008536 0.556921 0
M  V30 31 H 3.122274 -1.109765 0.357988 0
M  V30 32 H 1.563054 0.097795 -0.153207 0
M  V30 33 H 0.039426 2.701958 -1.248035 0
M  V30 34 H -1.517106 4.141538 0.445365 0
M  V30 35 H 0.129148 4.095633 1.112058 0
M  V30 36 H 0.588001 3.280246 3.349123 0
M  V30 37 H -0.308371 3.117828 5.606805 0
M  V30 38 H -2.726411 3.219924 6.092189 0
M  V30 39 H -3.462740 3.667945 1.914701 0
M  V30 40 H -2.340954 -1.970049 -2.092578 0
M  V30 END ATOM
M  V30 BEGIN BOND
M  V30 1 1 1 2
M  V30 2 1 2 3
M  V30 3 2 3 4
M  V30 4 1 4 5
M  V30 5 2 5 6
M  V30 6 1 6 7
M  V30 7 1 6 8
M  V30 8 2 8 9
M  V30 9 1 9 10
M  V30 10 2 10 11
M  V30 11 1 11 12
M  V30 12 1 12 13
M  V30 13 1 13 14
M  V30 14 2 14 15
M  V30 15 1 14 16
M  V30 16 1 16 17
M  V30 17 2 17 18
M  V30 18 1 18 19
M  V30 19 2 19 20
M  V30 20 1 20 21
M  V30 21 2 21 22
M  V30 22 2 12 23
M  V30 23 1 23 24
M  V30 24 2 24 25
M  V30 25 1 9 3
M  V30 26 1 25 10
M  V30 27 1 22 17
M  V30 28 1 1 26
M  V30 29 1 1 27
M  V30 30 1 1 28
M  V30 31 1 4 29
M  V30 32 1 5 30
M  V30 33 1 8 31
M  V30 34 1 11 32
M  V30 35 1 13 33
M  V30 36 1 16 34
M  V30 37 1 16 35
M  V30 38 1 18 36
M  V30 39 1 19 37
M  V30 40 1 20 38
M  V30 41 1 22 39
M  V30 42 1 24 40
M  V30 END BOND
M  V30 END CTAB
M  END
>  <Dataset>  (320) 
ChEMBL_Kinases

>  <Ligand_Instance>  (320) 
nan

>  <PDB_ID>  (320) 
nan

>  <Standardized_SMILES>  (320) 
COc1ccc(F)cc1-c1cc(NC(=O)Cc2cccnc2)ncn1

>  <Name>  (320) 
nan

>  <Pocket>  (320) 
nan

>  <ATP_Site>  (320) 
nan

>  <Peripheral>  (320) 
nan

>  <Num_H_Atoms_ProtBoundConf>  (320) 
nan

>  <Num_Resolved_Atoms>  (320) 
nan

>  <Num_Not_Resolved_Atoms>  (320) 
nan

$$$$
CHEMBL3694407
     RDKit          3D

  0  0  0  0  0  0  0  0  0  0999 V3000
M  V30 BEGIN CTAB
M  V30 COUNTS 40 42 0 0 0
M  V30 BEGIN ATOM
M  V30 1 C 0.847833 -3.119187 2.158855 0
M  V30 2 O 1.151923 -2.554029 0.912445 0
M  V30 3 C 1.897957 -3.154337 -0.070705 0
M  V30 4 C 2.376131 -4.412437 0.211033 0
M  V30 5 C 3.130517 -5.053380 -0.747727 0
M  V30 6 C 3.363701 -4.407713 -1.925147 0
M  V30 7 F 4.108701 -5.066787 -2.844742 0
M  V30 8 C 2.865503 -3.148969 -2.164345 0
M  V30 9 C 2.098325 -2.457476 -1.230751 0
M  V30 10 C 1.629752 -1.138143 -1.597128 0
M  V30 11 C 0.869824 -0.266591 -0.866357 0
M  V30 12 C 0.467047 0.969259 -1.287445 0
M  V30 13 N -0.315957 1.898383 -0.566669 0
M  V30 14 C -0.868629 1.806829 0.723330 0
M  V30 15 O -0.682298 0.771547 1.402833 0
M  V30 16 C -1.672058 2.824155 1.396122 0
M  V30 17 C -2.107343 2.436908 2.741961 0
M  V30 18 C -1.320478 2.734139 3.834980 0
M  V30 19 C -1.659470 2.403518 5.137407 0
M  V30 20 N -2.836929 1.752283 5.309262 0
M  V30 21 C -3.642231 1.439135 4.269013 0
M  V30 22 C -3.284811 1.778565 2.975983 0
M  V30 23 N 0.859558 1.334149 -2.516294 0
M  V30 24 C 1.605221 0.525174 -3.281616 0
M  V30 25 N 1.971394 -0.679643 -2.813891 0
M  V30 26 H 1.671494 -3.042786 2.901909 0
M  V30 27 H 0.487574 -4.172769 2.074410 0
M  V30 28 H -0.017434 -2.527618 2.578510 0
M  V30 29 H 2.167945 -4.889894 1.158854 0
M  V30 30 H 3.508203 -6.042211 -0.530285 0
M  V30 31 H 3.125698 -2.743970 -3.148742 0
M  V30 32 H 0.570654 -0.581751 0.108914 0
M  V30 33 H -0.559531 2.815205 -0.998690 0
M  V30 34 H -1.043154 3.755636 1.505547 0
M  V30 35 H -2.539449 3.150717 0.794515 0
M  V30 36 H -0.378111 3.255991 3.691817 0
M  V30 37 H -1.022230 2.648934 5.981380 0
M  V30 38 H -4.564766 0.915037 4.525100 0
M  V30 39 H -3.942909 1.518996 2.158023 0
M  V30 40 H 1.886313 0.876686 -4.255838 0
M  V30 END ATOM
M  V30 BEGIN BOND
M  V30 1 1 1 2
M  V30 2 1 2 3
M  V30 3 2 3 4
M  V30 4 1 4 5
M  V30 5 2 5 6
M  V30 6 1 6 7
M  V30 7 1 6 8
M  V30 8 2 8 9
M  V30 9 1 9 10
M  V30 10 2 10 11
M  V30 11 1 11 12
M  V30 12 1 12 13
M  V30 13 1 13 14
M  V30 14 2 14 15
M  V30 15 1 14 16
M  V30 16 1 16 17
M  V30 17 2 17 18
M  V30 18 1 18 19
M  V30 19 2 19 20
M  V30 20 1 20 21
M  V30 21 2 21 22
M  V30 22 2 12 23
M  V30 23 1 23 24
M  V30 24 2 24 25
M  V30 25 1 9 3
M  V30 26 1 25 10
M  V30 27 1 22 17
M  V30 28 1 1 26
M  V30 29 1 1 27
M  V30 30 1 1 28
M  V30 31 1 4 29
M  V30 32 1 5 30
M  V30 33 1 8 31
M  V30 34 1 11 32
M  V30 35 1 13 33
M  V30 36 1 16 34
M  V30 37 1 16 35
M  V30 38 1 18 36
M  V30 39 1 19 37
M  V30 40 1 21 38
M  V30 41 1 22 39
M  V30 42 1 24 40
M  V30 END BOND
M  V30 END CTAB
M  END
>  <Dataset>  (321) 
ChEMBL_Kinases

>  <Ligand_Instance>  (321) 
nan

>  <PDB_ID>  (321) 
nan

>  <Standardized_SMILES>  (321) 
COc1ccc(F)cc1-c1cc(NC(=O)Cc2ccncc2)ncn1

>  <Name>  (321) 
nan

>  <Pocket>  (321) 
nan

>  <ATP_Site>  (321) 
nan

>  <Peripheral>  (321) 
nan

>  <Num_H_Atoms_ProtBoundConf>  (321) 
nan

>  <Num_Resolved_Atoms>  (321) 
nan

>  <Num_Not_Resolved_Atoms>  (321) 
nan

$$$$
CHEMBL3694794
     RDKit          3D

  0  0  0  0  0  0  0  0  0  0999 V3000
M  V30 BEGIN CTAB
M  V30 COUNTS 42 44 0 0 0
M  V30 BEGIN ATOM
M  V30 1 C 1.471765 -4.383876 0.921254 0
M  V30 2 N 0.423573 -4.696380 -0.027859 0
M  V30 3 C 0.031803 -3.782822 -1.063354 0
M  V30 4 N 0.653642 -2.592056 -1.160417 0
M  V30 5 C 0.351596 -1.661064 -2.100234 0
M  V30 6 N 1.125837 -0.467759 -2.049220 0
M  V30 7 C 1.167922 0.436699 -0.945951 0
M  V30 8 C 0.438113 0.122539 0.180116 0
M  V30 9 C 0.441263 0.942620 1.292740 0
M  V30 10 C 1.184595 2.112684 1.305409 0
M  V30 11 C 1.908213 2.423058 0.185200 0
M  V30 12 C 1.923382 1.610071 -0.955293 0
M  V30 13 Cl 2.844235 1.997903 -2.398918 0
M  V30 14 C 1.355812 3.131623 2.348292 0
M  V30 15 O 2.022194 4.151923 2.085743 0
M  V30 16 N 0.791502 3.015836 3.663618 0
M  V30 17 C 1.550923 3.745096 4.689094 0
M  V30 18 C -0.380190 2.298940 4.064764 0
M  V30 19 C -0.408951 0.849528 3.721190 0
M  V30 20 O -0.327328 0.530773 2.370789 0
M  V30 21 N -0.634980 -1.942147 -2.996515 0
M  V30 22 C -1.293091 -3.108332 -2.956389 0
M  V30 23 C -0.959919 -4.034358 -1.986586 0
M  V30 24 C -1.675046 -5.337934 -1.915207 0
M  V30 25 F -2.313579 -5.515876 -0.710081 0
M  V30 26 F -2.612849 -5.411761 -2.926520 0
M  V30 27 F -0.771447 -6.387938 -2.123636 0
M  V30 28 H 2.009124 -3.503441 0.542892 0
M  V30 29 H 2.198556 -5.221736 0.975360 0
M  V30 30 H 1.022925 -4.168165 1.927780 0
M  V30 31 H -0.064257 -5.603157 0.038593 0
M  V30 32 H 1.712764 -0.230589 -2.890914 0
M  V30 33 H -0.163646 -0.754291 0.260255 0
M  V30 34 H 2.499874 3.331036 0.161164 0
M  V30 35 H 2.246091 2.989218 5.110503 0
M  V30 36 H 0.884855 4.095595 5.490918 0
M  V30 37 H 2.113571 4.553155 4.189103 0
M  V30 38 H -1.316550 2.833551 3.760792 0
M  V30 39 H -0.413680 2.341097 5.190572 0
M  V30 40 H 0.317375 0.315911 4.380011 0
M  V30 41 H -1.424009 0.481787 4.063277 0
M  V30 42 H -2.067087 -3.299505 -3.680623 0
M  V30 END ATOM
M  V30 BEGIN BOND
M  V30 1 1 1 2
M  V30 2 1 2 3
M  V30 3 2 3 4
M  V30 4 1 4 5
M  V30 5 1 5 6
M  V30 6 1 6 7
M  V30 7 2 7 8
M  V30 8 1 8 9
M  V30 9 2 9 10
M  V30 10 1 10 11
M  V30 11 2 11 12
M  V30 12 1 12 13
M  V30 13 1 10 14
M  V30 14 2 14 15
M  V30 15 1 14 16
M  V30 16 1 16 17
M  V30 17 1 16 18
M  V30 18 1 18 19
M  V30 19 1 19 20
M  V30 20 2 5 21
M  V30 21 1 21 22
M  V30 22 2 22 23
M  V30 23 1 23 24
M  V30 24 1 24 25
M  V30 25 1 24 26
M  V30 26 1 24 27
M  V30 27 1 23 3
M  V30 28 1 12 7
M  V30 29 1 20 9
M  V30 30 1 1 28
M  V30 31 1 1 29
M  V30 32 1 1 30
M  V30 33 1 2 31
M  V30 34 1 6 32
M  V30 35 1 8 33
M  V30 36 1 11 34
M  V30 37 1 17 35
M  V30 38 1 17 36
M  V30 39 1 17 37
M  V30 40 1 18 38
M  V30 41 1 18 39
M  V30 42 1 19 40
M  V30 43 1 19 41
M  V30 44 1 22 42
M  V30 END BOND
M  V30 END CTAB
M  END
>  <Dataset>  (322) 
ChEMBL_Kinases

>  <Ligand_Instance>  (322) 
nan

>  <PDB_ID>  (322) 
nan

>  <Standardized_SMILES>  (322) 
CNc1nc(Nc2cc3c(cc2Cl)C(=O)N(C)CCO3)ncc1C(F)(F)F

>  <Name>  (322) 
nan

>  <Pocket>  (322) 
nan

>  <ATP_Site>  (322) 
nan

>  <Peripheral>  (322) 
nan

>  <Num_H_Atoms_ProtBoundConf>  (322) 
nan

>  <Num_Resolved_Atoms>  (322) 
nan

>  <Num_Not_Resolved_Atoms>  (322) 
nan

$$$$
CHEMBL3694795
     RDKit          3D

  0  0  0  0  0  0  0  0  0  0999 V3000
M  V30 BEGIN CTAB
M  V30 COUNTS 46 48 0 0 0
M  V30 BEGIN ATOM
M  V30 1 C 1.550809 -4.696007 2.074126 0
M  V30 2 N 1.288143 -5.294699 0.761166 0
M  V30 3 C 1.519952 -4.410376 -0.338974 0
M  V30 4 N 1.928282 -3.142718 -0.240798 0
M  V30 5 C 2.139641 -2.294718 -1.264357 0
M  V30 6 N 2.575161 -1.052593 -0.703867 0
M  V30 7 C 1.652978 -0.155590 -0.037592 0
M  V30 8 C 0.318926 -0.589546 0.021466 0
M  V30 9 C -0.526830 0.286970 0.692458 0
M  V30 10 C -0.092110 1.467604 1.244006 0
M  V30 11 C 1.228144 1.851789 1.160580 0
M  V30 12 C 2.133994 1.021093 0.501556 0
M  V30 13 O 3.470195 1.282530 0.346347 0
M  V30 14 C 4.091022 2.447083 0.854625 0
M  V30 15 N -1.055823 2.285999 1.903598 0
M  V30 16 C -0.643955 3.547340 2.511962 0
M  V30 17 C -2.432233 1.859957 1.970970 0
M  V30 18 O -3.296396 2.563771 2.550087 0
M  V30 19 C -2.894672 0.603210 1.377563 0
M  V30 20 C -3.556344 -0.309069 2.387564 0
M  V30 21 C -3.942818 0.915128 0.311644 0
M  V30 22 O -1.845894 -0.134660 0.756687 0
M  V30 23 N 1.912249 -2.787251 -2.519765 0
M  V30 24 C 1.495248 -4.076237 -2.661430 0
M  V30 25 C 1.287285 -4.919189 -1.600874 0
M  V30 26 Cl 0.749028 -6.553066 -1.914977 0
M  V30 27 H 2.640379 -4.564167 2.241069 0
M  V30 28 H 1.150227 -5.295257 2.905499 0
M  V30 29 H 1.023022 -3.705960 2.103659 0
M  V30 30 H 0.962254 -6.271958 0.625530 0
M  V30 31 H 3.589584 -0.801144 -0.785914 0
M  V30 32 H 0.047280 -1.523991 -0.435926 0
M  V30 33 H 1.593113 2.773313 1.589175 0
M  V30 34 H 3.429808 3.320295 0.870169 0
M  V30 35 H 5.025863 2.717949 0.282034 0
M  V30 36 H 4.446785 2.152653 1.893851 0
M  V30 37 H 0.321582 3.380090 3.062320 0
M  V30 38 H -0.551733 4.347203 1.773099 0
M  V30 39 H -1.419151 3.850108 3.247437 0
M  V30 40 H -3.699713 -1.329525 1.975348 0
M  V30 41 H -4.559675 0.036700 2.701391 0
M  V30 42 H -2.919265 -0.451802 3.286984 0
M  V30 43 H -4.952847 0.764999 0.739298 0
M  V30 44 H -3.848836 1.940265 -0.068260 0
M  V30 45 H -3.801406 0.219632 -0.564998 0
M  V30 46 H 1.357049 -4.322626 -3.697635 0
M  V30 END ATOM
M  V30 BEGIN BOND
M  V30 1 1 1 2
M  V30 2 1 2 3
M  V30 3 2 3 4
M  V30 4 1 4 5
M  V30 5 1 5 6
M  V30 6 1 6 7
M  V30 7 2 7 8
M  V30 8 1 8 9
M  V30 9 2 9 10
M  V30 10 1 10 11
M  V30 11 2 11 12
M  V30 12 1 12 13
M  V30 13 1 13 14
M  V30 14 1 10 15
M  V30 15 1 15 16
M  V30 16 1 15 17
M  V30 17 2 17 18
M  V30 18 1 17 19
M  V30 19 1 19 20
M  V30 20 1 19 21
M  V30 21 1 19 22
M  V30 22 2 5 23
M  V30 23 1 23 24
M  V30 24 2 24 25
M  V30 25 1 25 26
M  V30 26 1 25 3
M  V30 27 1 12 7
M  V30 28 1 22 9
M  V30 29 1 1 27
M  V30 30 1 1 28
M  V30 31 1 1 29
M  V30 32 1 2 30
M  V30 33 1 6 31
M  V30 34 1 8 32
M  V30 35 1 11 33
M  V30 36 1 14 34
M  V30 37 1 14 35
M  V30 38 1 14 36
M  V30 39 1 16 37
M  V30 40 1 16 38
M  V30 41 1 16 39
M  V30 42 1 20 40
M  V30 43 1 20 41
M  V30 44 1 20 42
M  V30 45 1 21 43
M  V30 46 1 21 44
M  V30 47 1 21 45
M  V30 48 1 24 46
M  V30 END BOND
M  V30 END CTAB
M  END
>  <Dataset>  (323) 
ChEMBL_Kinases

>  <Ligand_Instance>  (323) 
nan

>  <PDB_ID>  (323) 
nan

>  <Standardized_SMILES>  (323) 
CNc1nc(Nc2cc3c(cc2OC)N(C)C(=O)C(C)(C)O3)ncc1Cl

>  <Name>  (323) 
nan

>  <Pocket>  (323) 
nan

>  <ATP_Site>  (323) 
nan

>  <Peripheral>  (323) 
nan

>  <Num_H_Atoms_ProtBoundConf>  (323) 
nan

>  <Num_Resolved_Atoms>  (323) 
nan

>  <Num_Not_Resolved_Atoms>  (323) 
nan

$$$$
CHEMBL3694401
     RDKit          3D

  0  0  0  0  0  0  0  0  0  0999 V3000
M  V30 BEGIN CTAB
M  V30 COUNTS 43 45 0 0 0
M  V30 BEGIN ATOM
M  V30 1 C -1.514051 -4.234033 2.452956 0
M  V30 2 O -0.926725 -3.677325 1.318959 0
M  V30 3 C 0.228997 -4.128059 0.714909 0
M  V30 4 C 0.984652 -5.201553 1.139634 0
M  V30 5 C 2.138022 -5.577298 0.458844 0
M  V30 6 C 2.539563 -4.868485 -0.661885 0
M  V30 7 C 1.785532 -3.790240 -1.093126 0
M  V30 8 F 2.232248 -3.126234 -2.208818 0
M  V30 9 C 0.639287 -3.423560 -0.409444 0
M  V30 10 C -0.050760 -2.268059 -0.981683 0
M  V30 11 C 0.241499 -0.996354 -0.587172 0
M  V30 12 C -0.336880 0.175293 -1.049275 0
M  V30 13 N 0.076928 1.439935 -0.536977 0
M  V30 14 C -0.404591 2.197036 0.567718 0
M  V30 15 O -1.366670 1.642129 1.196989 0
M  V30 16 C 0.209161 3.492781 0.884988 0
M  V30 17 C 1.681054 3.257728 1.180790 0
M  V30 18 C 1.753260 2.103796 2.126165 0
M  V30 19 C 0.847929 2.180568 3.307080 0
M  V30 20 N -0.423146 2.787592 3.071089 0
M  V30 21 C -0.394493 3.944069 2.216869 0
M  V30 22 N -1.298615 -0.007077 -2.001727 0
M  V30 23 C -1.616827 -1.245858 -2.418671 0
M  V30 24 N -1.021661 -2.376571 -1.936683 0
M  V30 25 H -1.257838 -3.613981 3.336521 0
M  V30 26 H -2.621209 -4.231601 2.303234 0
M  V30 27 H -1.245231 -5.306157 2.607161 0
M  V30 28 H 0.659020 -5.735572 2.005571 0
M  V30 29 H 2.667063 -6.426012 0.858432 0
M  V30 30 H 3.438930 -5.170353 -1.183407 0
M  V30 31 H 1.012929 -0.894215 0.172998 0
M  V30 32 H 0.859725 1.742589 -1.162606 0
M  V30 33 H 0.091378 4.251303 0.107166 0
M  V30 34 H 2.200139 4.159756 1.559008 0
M  V30 35 H 2.142216 2.969382 0.223912 0
M  V30 36 H 2.801255 1.990794 2.521577 0
M  V30 37 H 1.582526 1.174684 1.511948 0
M  V30 38 H 0.637856 1.110963 3.603678 0
M  V30 39 H 1.378971 2.596056 4.201878 0
M  V30 40 H -0.850232 3.052397 3.983976 0
M  V30 41 H 0.289805 4.724663 2.614929 0
M  V30 42 H -1.421589 4.280230 2.056713 0
M  V30 43 H -2.394457 -1.354530 -3.185429 0
M  V30 END ATOM
M  V30 BEGIN BOND
M  V30 1 1 1 2
M  V30 2 1 2 3
M  V30 3 2 3 4
M  V30 4 1 4 5
M  V30 5 2 5 6
M  V30 6 1 6 7
M  V30 7 1 7 8
M  V30 8 2 7 9
M  V30 9 1 9 10
M  V30 10 2 10 11
M  V30 11 1 11 12
M  V30 12 1 12 13
M  V30 13 1 13 14
M  V30 14 2 14 15
M  V30 15 1 14 16
M  V30 16 1 16 17
M  V30 17 1 17 18
M  V30 18 1 18 19
M  V30 19 1 19 20
M  V30 20 1 20 21
M  V30 21 2 12 22
M  V30 22 1 22 23
M  V30 23 2 23 24
M  V30 24 1 9 3
M  V30 25 1 24 10
M  V30 26 1 21 16
M  V30 27 1 1 25
M  V30 28 1 1 26
M  V30 29 1 1 27
M  V30 30 1 4 28
M  V30 31 1 5 29
M  V30 32 1 6 30
M  V30 33 1 11 31
M  V30 34 1 13 32
M  V30 35 1 16 33
M  V30 36 1 17 34
M  V30 37 1 17 35
M  V30 38 1 18 36
M  V30 39 1 18 37
M  V30 40 1 19 38
M  V30 41 1 19 39
M  V30 42 1 20 40
M  V30 43 1 21 41
M  V30 44 1 21 42
M  V30 45 1 23 43
M  V30 END BOND
M  V30 END CTAB
M  END
>  <Dataset>  (324) 
ChEMBL_Kinases

>  <Ligand_Instance>  (324) 
nan

>  <PDB_ID>  (324) 
nan

>  <Standardized_SMILES>  (324) 
COc1cccc(F)c1-c1cc(NC(=O)C2CCCNC2)ncn1

>  <Name>  (324) 
nan

>  <Pocket>  (324) 
nan

>  <ATP_Site>  (324) 
nan

>  <Peripheral>  (324) 
nan

>  <Num_H_Atoms_ProtBoundConf>  (324) 
nan

>  <Num_Resolved_Atoms>  (324) 
nan

>  <Num_Not_Resolved_Atoms>  (324) 
nan

$$$$
CHEMBL3696250
     RDKit          3D

  0  0  0  0  0  0  0  0  0  0999 V3000
M  V30 BEGIN CTAB
M  V30 COUNTS 42 44 0 0 0
M  V30 BEGIN ATOM
M  V30 1 O 0.498879 -1.314035 1.900974 0
M  V30 2 C -0.307272 -2.152964 2.371624 0
M  V30 3 C 0.202232 -3.010947 1.245516 0
M  V30 4 C 1.204746 -2.173033 0.537472 0
M  V30 5 N 0.782812 -1.391424 -0.476393 0
M  V30 6 C 1.656852 -0.600907 -1.163141 0
M  V30 7 N 1.208313 0.222310 -2.231768 0
M  V30 8 C 2.049703 1.092916 -3.025653 0
M  V30 9 C 1.619884 1.145475 -4.472812 0
M  V30 10 O 0.707833 0.174678 -4.827916 0
M  V30 11 C -0.423323 0.136615 -4.050258 0
M  V30 12 C -0.187913 0.216640 -2.581015 0
M  V30 13 C 2.963549 -0.677711 -0.734054 0
M  V30 14 C 3.389646 -1.476230 0.300489 0
M  V30 15 O 4.617332 -1.495896 0.642888 0
M  V30 16 N 2.478929 -2.235497 0.941519 0
M  V30 17 N -1.274202 -2.450962 3.358965 0
M  V30 18 C -1.385800 -1.278312 4.193684 0
M  V30 19 C -2.264979 -0.243095 3.962220 0
M  V30 20 C -2.277545 0.828077 4.835177 0
M  V30 21 C -1.394748 0.780848 5.890648 0
M  V30 22 C -0.489954 -0.249487 6.157962 0
M  V30 23 O 0.334727 -0.128332 7.281026 0
M  V30 24 C -0.502200 -1.302082 5.269653 0
M  V30 25 H -0.629025 -3.246145 0.558674 0
M  V30 26 H 0.694728 -3.931200 1.611521 0
M  V30 27 H 3.127299 0.904931 -2.909858 0
M  V30 28 H 1.883929 2.122255 -2.590251 0
M  V30 29 H 2.532540 0.929609 -5.081301 0
M  V30 30 H 1.319919 2.165261 -4.771437 0
M  V30 31 H -0.894253 -0.868736 -4.261728 0
M  V30 32 H -1.197404 0.862136 -4.344841 0
M  V30 33 H -0.719706 -0.599706 -2.033271 0
M  V30 34 H -0.649899 1.158245 -2.180181 0
M  V30 35 H 3.708890 -0.082968 -1.227759 0
M  V30 36 H 2.816210 -2.836969 1.724996 0
M  V30 37 H -1.620879 -3.422934 3.196103 0
M  V30 38 H -2.907116 -0.309971 3.110507 0
M  V30 39 H -2.941225 1.650161 4.694061 0
M  V30 40 H -1.403422 1.631071 6.585126 0
M  V30 41 H 1.347898 -0.234718 7.159461 0
M  V30 42 H 0.188908 -2.099511 5.465086 0
M  V30 END ATOM
M  V30 BEGIN BOND
M  V30 1 2 1 2
M  V30 2 1 2 3
M  V30 3 1 3 4
M  V30 4 2 4 5
M  V30 5 1 5 6
M  V30 6 1 6 7
M  V30 7 1 7 8
M  V30 8 1 8 9
M  V30 9 1 9 10
M  V30 10 1 10 11
M  V30 11 1 11 12
M  V30 12 2 6 13
M  V30 13 1 13 14
M  V30 14 2 14 15
M  V30 15 1 14 16
M  V30 16 1 2 17
M  V30 17 1 17 18
M  V30 18 2 18 19
M  V30 19 1 19 20
M  V30 20 2 20 21
M  V30 21 1 21 22
M  V30 22 1 22 23
M  V30 23 2 22 24
M  V30 24 1 16 4
M  V30 25 1 24 18
M  V30 26 1 12 7
M  V30 27 1 3 25
M  V30 28 1 3 26
M  V30 29 1 8 27
M  V30 30 1 8 28
M  V30 31 1 9 29
M  V30 32 1 9 30
M  V30 33 1 11 31
M  V30 34 1 11 32
M  V30 35 1 12 33
M  V30 36 1 12 34
M  V30 37 1 13 35
M  V30 38 1 16 36
M  V30 39 1 17 37
M  V30 40 1 19 38
M  V30 41 1 20 39
M  V30 42 1 21 40
M  V30 43 1 23 41
M  V30 44 1 24 42
M  V30 END BOND
M  V30 END CTAB
M  END
>  <Dataset>  (325) 
ChEMBL_Kinases

>  <Ligand_Instance>  (325) 
nan

>  <PDB_ID>  (325) 
nan

>  <Standardized_SMILES>  (325) 
O=C(Cc1nc(N2CCOCC2)cc(=O)[nH]1)Nc1cccc(O)c1

>  <Name>  (325) 
nan

>  <Pocket>  (325) 
nan

>  <ATP_Site>  (325) 
nan

>  <Peripheral>  (325) 
nan

>  <Num_H_Atoms_ProtBoundConf>  (325) 
nan

>  <Num_Resolved_Atoms>  (325) 
nan

>  <Num_Not_Resolved_Atoms>  (325) 
nan

$$$$
CHEMBL3696249
     RDKit          3D

  0  0  0  0  0  0  0  0  0  0999 V3000
M  V30 BEGIN CTAB
M  V30 COUNTS 44 46 0 0 0
M  V30 BEGIN ATOM
M  V30 1 C -0.492596 -3.747038 -0.563998 0
M  V30 2 C 0.941345 -3.524004 -0.292154 0
M  V30 3 C 1.791528 -4.464579 0.230043 0
M  V30 4 C 3.142235 -4.265713 0.461513 0
M  V30 5 F 3.941870 -5.201674 0.972169 0
M  V30 6 C 3.705854 -3.032256 0.154455 0
M  V30 7 C 2.861718 -2.042498 -0.381007 0
M  V30 8 C 1.503321 -2.317018 -0.590065 0
M  V30 9 N 0.804570 -1.231014 -1.142275 0
M  V30 10 C 0.288894 -0.628350 -2.304247 0
M  V30 11 O 0.511364 -1.374087 -3.299803 0
M  V30 12 C -0.393114 0.667411 -2.358494 0
M  V30 13 C -1.068508 1.053320 -1.112780 0
M  V30 14 N -0.345752 1.275938 -0.010207 0
M  V30 15 C -0.873183 1.679483 1.150090 0
M  V30 16 N 0.050771 1.801834 2.208323 0
M  V30 17 C 1.399266 1.223014 2.116664 0
M  V30 18 C 1.365225 0.067138 3.134028 0
M  V30 19 O 0.265823 0.113813 3.956478 0
M  V30 20 C -0.010792 1.339350 4.519523 0
M  V30 21 C -0.159337 2.463305 3.505493 0
M  V30 22 C -2.220816 1.880973 1.224410 0
M  V30 23 C -2.989897 1.657105 0.097484 0
M  V30 24 O -4.219806 1.877924 0.284225 0
M  V30 25 N -2.374430 1.244598 -1.045360 0
M  V30 26 H -1.022225 -2.780962 -0.691138 0
M  V30 27 H -0.625376 -4.331992 -1.514806 0
M  V30 28 H -0.953448 -4.283846 0.260962 0
M  V30 29 H 1.390017 -5.456641 0.491674 0
M  V30 30 H 4.763913 -2.874226 0.331325 0
M  V30 31 H 3.357912 -1.104578 -0.598136 0
M  V30 32 H 0.628816 -0.741688 -0.215704 0
M  V30 33 H -1.117643 0.657328 -3.222868 0
M  V30 34 H 0.382690 1.428428 -2.613323 0
M  V30 35 H 1.658323 0.885145 1.116986 0
M  V30 36 H 2.090201 2.015819 2.464494 0
M  V30 37 H 2.299498 0.032736 3.717044 0
M  V30 38 H 1.312014 -0.874891 2.533425 0
M  V30 39 H 0.747628 1.585606 5.285172 0
M  V30 40 H -0.977325 1.198801 5.089862 0
M  V30 41 H -1.111159 3.000067 3.561027 0
M  V30 42 H 0.696775 3.145708 3.610307 0
M  V30 43 H -2.533041 2.209461 2.200691 0
M  V30 44 H -3.015238 1.101930 -1.843913 0
M  V30 END ATOM
M  V30 BEGIN BOND
M  V30 1 1 1 2
M  V30 2 2 2 3
M  V30 3 1 3 4
M  V30 4 1 4 5
M  V30 5 2 4 6
M  V30 6 1 6 7
M  V30 7 2 7 8
M  V30 8 1 8 9
M  V30 9 1 9 10
M  V30 10 2 10 11
M  V30 11 1 10 12
M  V30 12 1 12 13
M  V30 13 2 13 14
M  V30 14 1 14 15
M  V30 15 1 15 16
M  V30 16 1 16 17
M  V30 17 1 17 18
M  V30 18 1 18 19
M  V30 19 1 19 20
M  V30 20 1 20 21
M  V30 21 2 15 22
M  V30 22 1 22 23
M  V30 23 2 23 24
M  V30 24 1 23 25
M  V30 25 1 8 2
M  V30 26 1 25 13
M  V30 27 1 21 16
M  V30 28 1 1 26
M  V30 29 1 1 27
M  V30 30 1 1 28
M  V30 31 1 3 29
M  V30 32 1 6 30
M  V30 33 1 7 31
M  V30 34 1 9 32
M  V30 35 1 12 33
M  V30 36 1 12 34
M  V30 37 1 17 35
M  V30 38 1 17 36
M  V30 39 1 18 37
M  V30 40 1 18 38
M  V30 41 1 20 39
M  V30 42 1 20 40
M  V30 43 1 21 41
M  V30 44 1 21 42
M  V30 45 1 22 43
M  V30 46 1 25 44
M  V30 END BOND
M  V30 END CTAB
M  END
>  <Dataset>  (326) 
ChEMBL_Kinases

>  <Ligand_Instance>  (326) 
nan

>  <PDB_ID>  (326) 
nan

>  <Standardized_SMILES>  (326) 
Cc1cc(F)ccc1NC(=O)Cc1nc(N2CCOCC2)cc(=O)[nH]1

>  <Name>  (326) 
nan

>  <Pocket>  (326) 
nan

>  <ATP_Site>  (326) 
nan

>  <Peripheral>  (326) 
nan

>  <Num_H_Atoms_ProtBoundConf>  (326) 
nan

>  <Num_Resolved_Atoms>  (326) 
nan

>  <Num_Not_Resolved_Atoms>  (326) 
nan

$$$$
CHEMBL3696248
     RDKit          3D

  0  0  0  0  0  0  0  0  0  0999 V3000
M  V30 BEGIN CTAB
M  V30 COUNTS 40 42 0 0 0
M  V30 BEGIN ATOM
M  V30 1 O -0.298611 -0.369983 2.555474 0
M  V30 2 C 0.223892 -1.481621 2.840690 0
M  V30 3 C 1.562795 -1.743273 2.219878 0
M  V30 4 C 1.975424 -0.587190 1.381792 0
M  V30 5 N 1.595974 -0.626588 0.079186 0
M  V30 6 C 1.903577 0.353273 -0.783980 0
M  V30 7 N 1.486526 0.272034 -2.138243 0
M  V30 8 C 0.722554 -0.825948 -2.706166 0
M  V30 9 C -0.561783 -0.164327 -3.163487 0
M  V30 10 O -0.279424 0.677611 -4.200341 0
M  V30 11 C 1.020520 1.041149 -4.385121 0
M  V30 12 C 1.796995 1.312036 -3.102548 0
M  V30 13 C 2.625281 1.459734 -0.394877 0
M  V30 14 C 2.996931 1.468137 0.941968 0
M  V30 15 O 3.662410 2.401664 1.476101 0
M  V30 16 N 2.684559 0.482135 1.800261 0
M  V30 17 N -0.326081 -2.490861 3.679236 0
M  V30 18 C -1.613105 -2.105999 4.206362 0
M  V30 19 C -1.766207 -1.433947 5.385731 0
M  V30 20 C -3.037137 -1.108708 5.809344 0
M  V30 21 C -4.163659 -1.436925 5.085643 0
M  V30 22 N -3.980114 -2.093739 3.937108 0
M  V30 23 C -2.764366 -2.429346 3.488276 0
M  V30 24 H 2.302150 -1.784502 3.061669 0
M  V30 25 H 1.573622 -2.685302 1.664166 0
M  V30 26 H 1.274123 -1.205931 -3.612380 0
M  V30 27 H 0.564900 -1.632760 -1.970023 0
M  V30 28 H -1.344782 -0.910256 -3.401563 0
M  V30 29 H -0.953416 0.470916 -2.315416 0
M  V30 30 H 1.039984 1.998712 -4.947204 0
M  V30 31 H 1.574297 0.320326 -5.042245 0
M  V30 32 H 2.876693 1.184698 -3.361424 0
M  V30 33 H 1.561003 2.317290 -2.754277 0
M  V30 34 H 2.908689 2.276842 -1.016830 0
M  V30 35 H 2.955224 0.472454 2.806317 0
M  V30 36 H 0.198121 -3.378620 3.846404 0
M  V30 37 H -0.872438 -1.176275 5.954666 0
M  V30 38 H -3.078753 -0.571578 6.761706 0
M  V30 39 H -5.129235 -1.145354 5.486880 0
M  V30 40 H -2.713653 -2.968423 2.533095 0
M  V30 END ATOM
M  V30 BEGIN BOND
M  V30 1 2 1 2
M  V30 2 1 2 3
M  V30 3 1 3 4
M  V30 4 2 4 5
M  V30 5 1 5 6
M  V30 6 1 6 7
M  V30 7 1 7 8
M  V30 8 1 8 9
M  V30 9 1 9 10
M  V30 10 1 10 11
M  V30 11 1 11 12
M  V30 12 2 6 13
M  V30 13 1 13 14
M  V30 14 2 14 15
M  V30 15 1 14 16
M  V30 16 1 2 17
M  V30 17 1 17 18
M  V30 18 2 18 19
M  V30 19 1 19 20
M  V30 20 2 20 21
M  V30 21 1 21 22
M  V30 22 2 22 23
M  V30 23 1 16 4
M  V30 24 1 23 18
M  V30 25 1 12 7
M  V30 26 1 3 24
M  V30 27 1 3 25
M  V30 28 1 8 26
M  V30 29 1 8 27
M  V30 30 1 9 28
M  V30 31 1 9 29
M  V30 32 1 11 30
M  V30 33 1 11 31
M  V30 34 1 12 32
M  V30 35 1 12 33
M  V30 36 1 13 34
M  V30 37 1 16 35
M  V30 38 1 17 36
M  V30 39 1 19 37
M  V30 40 1 20 38
M  V30 41 1 21 39
M  V30 42 1 23 40
M  V30 END BOND
M  V30 END CTAB
M  END
>  <Dataset>  (327) 
ChEMBL_Kinases

>  <Ligand_Instance>  (327) 
nan

>  <PDB_ID>  (327) 
nan

>  <Standardized_SMILES>  (327) 
O=C(Cc1nc(N2CCOCC2)cc(=O)[nH]1)Nc1cccnc1

>  <Name>  (327) 
nan

>  <Pocket>  (327) 
nan

>  <ATP_Site>  (327) 
nan

>  <Peripheral>  (327) 
nan

>  <Num_H_Atoms_ProtBoundConf>  (327) 
nan

>  <Num_Resolved_Atoms>  (327) 
nan

>  <Num_Not_Resolved_Atoms>  (327) 
nan

$$$$
CHEMBL3696247
     RDKit          3D

  0  0  0  0  0  0  0  0  0  0999 V3000
M  V30 BEGIN CTAB
M  V30 COUNTS 40 42 0 0 0
M  V30 BEGIN ATOM
M  V30 1 O -1.081478 -1.712228 1.741202 0
M  V30 2 C -0.206393 -1.887958 2.608385 0
M  V30 3 C 1.168725 -2.504143 2.653331 0
M  V30 4 C 2.096007 -1.578008 1.951457 0
M  V30 5 N 1.591194 -1.237883 0.725487 0
M  V30 6 C 2.272877 -0.394921 -0.078296 0
M  V30 7 N 1.744767 -0.019568 -1.343388 0
M  V30 8 C 0.448490 -0.662485 -1.592334 0
M  V30 9 C -0.067172 -0.333720 -2.961083 0
M  V30 10 O 1.023346 -0.219913 -3.817353 0
M  V30 11 C 1.624154 1.016926 -3.520602 0
M  V30 12 C 2.435936 0.887396 -2.229868 0
M  V30 13 C 3.473467 0.075565 0.414546 0
M  V30 14 C 4.051565 -0.229681 1.656100 0
M  V30 15 O 5.131964 0.204247 2.080194 0
M  V30 16 N 3.255014 -1.088010 2.364023 0
M  V30 17 N -0.746971 -1.333876 3.807037 0
M  V30 18 C -2.064163 -0.834015 3.459900 0
M  V30 19 C -3.281473 -1.501506 3.570095 0
M  V30 20 C -4.388000 -0.750236 3.147151 0
M  V30 21 C -4.275584 0.528429 2.665005 0
M  V30 22 F -5.460658 1.123047 2.292237 0
M  V30 23 C -3.011642 1.130653 2.584735 0
M  V30 24 N -1.952452 0.423466 2.986405 0
M  V30 25 H 1.105308 -3.437446 2.019096 0
M  V30 26 H 1.478879 -2.713841 3.668616 0
M  V30 27 H 0.632644 -1.749358 -1.521260 0
M  V30 28 H -0.271597 -0.384107 -0.789280 0
M  V30 29 H -0.738514 -1.145546 -3.305102 0
M  V30 30 H -0.648617 0.615900 -2.917302 0
M  V30 31 H 0.806808 1.769747 -3.391897 0
M  V30 32 H 2.239937 1.297729 -4.385992 0
M  V30 33 H 2.477429 1.881912 -1.748815 0
M  V30 34 H 3.484765 0.566950 -2.430721 0
M  V30 35 H 4.083237 0.752046 -0.178553 0
M  V30 36 H 3.549650 -1.415371 3.334781 0
M  V30 37 H -0.290731 -1.296294 4.766785 0
M  V30 38 H -3.181564 -2.482725 3.958639 0
M  V30 39 H -5.296173 -1.346532 3.270220 0
M  V30 40 H -3.009501 2.136910 2.192248 0
M  V30 END ATOM
M  V30 BEGIN BOND
M  V30 1 2 1 2
M  V30 2 1 2 3
M  V30 3 1 3 4
M  V30 4 2 4 5
M  V30 5 1 5 6
M  V30 6 1 6 7
M  V30 7 1 7 8
M  V30 8 1 8 9
M  V30 9 1 9 10
M  V30 10 1 10 11
M  V30 11 1 11 12
M  V30 12 2 6 13
M  V30 13 1 13 14
M  V30 14 2 14 15
M  V30 15 1 14 16
M  V30 16 1 2 17
M  V30 17 1 17 18
M  V30 18 2 18 19
M  V30 19 1 19 20
M  V30 20 2 20 21
M  V30 21 1 21 22
M  V30 22 1 21 23
M  V30 23 2 23 24
M  V30 24 1 16 4
M  V30 25 1 24 18
M  V30 26 1 12 7
M  V30 27 1 3 25
M  V30 28 1 3 26
M  V30 29 1 8 27
M  V30 30 1 8 28
M  V30 31 1 9 29
M  V30 32 1 9 30
M  V30 33 1 11 31
M  V30 34 1 11 32
M  V30 35 1 12 33
M  V30 36 1 12 34
M  V30 37 1 13 35
M  V30 38 1 16 36
M  V30 39 1 17 37
M  V30 40 1 19 38
M  V30 41 1 20 39
M  V30 42 1 23 40
M  V30 END BOND
M  V30 END CTAB
M  END
>  <Dataset>  (328) 
ChEMBL_Kinases

>  <Ligand_Instance>  (328) 
nan

>  <PDB_ID>  (328) 
nan

>  <Standardized_SMILES>  (328) 
O=C(Cc1nc(N2CCOCC2)cc(=O)[nH]1)Nc1ccc(F)cn1

>  <Name>  (328) 
nan

>  <Pocket>  (328) 
nan

>  <ATP_Site>  (328) 
nan

>  <Peripheral>  (328) 
nan

>  <Num_H_Atoms_ProtBoundConf>  (328) 
nan

>  <Num_Resolved_Atoms>  (328) 
nan

>  <Num_Not_Resolved_Atoms>  (328) 
nan

$$$$
CHEMBL3696246
     RDKit          3D

  0  0  0  0  0  0  0  0  0  0999 V3000
M  V30 BEGIN CTAB
M  V30 COUNTS 42 44 0 0 0
M  V30 BEGIN ATOM
M  V30 1 N 0.580868 -7.163242 -0.856958 0
M  V30 2 C 1.372913 -6.344570 -0.588990 0
M  V30 3 C 2.367446 -5.344927 -0.273365 0
M  V30 4 C 3.422925 -5.664771 0.533183 0
M  V30 5 C 4.431275 -4.769463 0.893420 0
M  V30 6 C 4.318741 -3.476270 0.377227 0
M  V30 7 C 3.250711 -3.121417 -0.449579 0
M  V30 8 N 3.173081 -1.779386 -0.959361 0
M  V30 9 C 2.450002 -0.899158 -0.109591 0
M  V30 10 O 1.849961 -0.972849 0.983103 0
M  V30 11 C 2.281010 0.541196 -0.505981 0
M  V30 12 C 1.487818 1.226004 0.561688 0
M  V30 13 N 0.125320 1.260656 0.479910 0
M  V30 14 C -0.625152 1.860372 1.409738 0
M  V30 15 N -2.035676 1.834590 1.221805 0
M  V30 16 C -2.561529 1.171126 0.040080 0
M  V30 17 C -3.421078 0.035150 0.530219 0
M  V30 18 O -4.019898 0.261527 1.736586 0
M  V30 19 C -4.253215 1.577164 2.077003 0
M  V30 20 C -3.000041 2.426544 2.130477 0
M  V30 21 C -0.036451 2.471868 2.496803 0
M  V30 22 C 1.358109 2.427167 2.564956 0
M  V30 23 O 1.955733 2.964113 3.527717 0
M  V30 24 N 2.079232 1.813667 1.609033 0
M  V30 25 C 2.289209 -4.064578 -0.762507 0
M  V30 26 H 3.560479 -6.660656 0.964282 0
M  V30 27 H 5.264569 -5.046811 1.538639 0
M  V30 28 H 5.078274 -2.744571 0.629028 0
M  V30 29 H 3.557261 -1.381073 -1.827992 0
M  V30 30 H 3.273889 1.047464 -0.645739 0
M  V30 31 H 1.755452 0.638299 -1.486554 0
M  V30 32 H -3.158649 1.908976 -0.556675 0
M  V30 33 H -1.733265 0.785938 -0.605380 0
M  V30 34 H -2.738387 -0.837169 0.657586 0
M  V30 35 H -4.144437 -0.302390 -0.263487 0
M  V30 36 H -5.073434 2.047970 1.496439 0
M  V30 37 H -4.633127 1.532569 3.140070 0
M  V30 38 H -2.638419 2.595367 3.141116 0
M  V30 39 H -3.273341 3.419696 1.693201 0
M  V30 40 H -0.636633 2.958754 3.252506 0
M  V30 41 H 3.121118 1.774522 1.650397 0
M  V30 42 H 1.442230 -3.799943 -1.412342 0
M  V30 END ATOM
M  V30 BEGIN BOND
M  V30 1 3 1 2
M  V30 2 1 2 3
M  V30 3 2 3 4
M  V30 4 1 4 5
M  V30 5 2 5 6
M  V30 6 1 6 7
M  V30 7 1 7 8
M  V30 8 1 8 9
M  V30 9 2 9 10
M  V30 10 1 9 11
M  V30 11 1 11 12
M  V30 12 2 12 13
M  V30 13 1 13 14
M  V30 14 1 14 15
M  V30 15 1 15 16
M  V30 16 1 16 17
M  V30 17 1 17 18
M  V30 18 1 18 19
M  V30 19 1 19 20
M  V30 20 2 14 21
M  V30 21 1 21 22
M  V30 22 2 22 23
M  V30 23 1 22 24
M  V30 24 2 7 25
M  V30 25 1 25 3
M  V30 26 1 24 12
M  V30 27 1 20 15
M  V30 28 1 4 26
M  V30 29 1 5 27
M  V30 30 1 6 28
M  V30 31 1 8 29
M  V30 32 1 11 30
M  V30 33 1 11 31
M  V30 34 1 16 32
M  V30 35 1 16 33
M  V30 36 1 17 34
M  V30 37 1 17 35
M  V30 38 1 19 36
M  V30 39 1 19 37
M  V30 40 1 20 38
M  V30 41 1 20 39
M  V30 42 1 21 40
M  V30 43 1 24 41
M  V30 44 1 25 42
M  V30 END BOND
M  V30 END CTAB
M  END
>  <Dataset>  (329) 
ChEMBL_Kinases

>  <Ligand_Instance>  (329) 
nan

>  <PDB_ID>  (329) 
nan

>  <Standardized_SMILES>  (329) 
N#Cc1cccc(NC(=O)Cc2nc(N3CCOCC3)cc(=O)[nH]2)c1

>  <Name>  (329) 
nan

>  <Pocket>  (329) 
nan

>  <ATP_Site>  (329) 
nan

>  <Peripheral>  (329) 
nan

>  <Num_H_Atoms_ProtBoundConf>  (329) 
nan

>  <Num_Resolved_Atoms>  (329) 
nan

>  <Num_Not_Resolved_Atoms>  (329) 
nan

$$$$
CHEMBL3696245
     RDKit          3D

  0  0  0  0  0  0  0  0  0  0999 V3000
M  V30 BEGIN CTAB
M  V30 COUNTS 42 44 0 0 0
M  V30 BEGIN ATOM
M  V30 1 N 1.493793 -5.912185 5.070805 0
M  V30 2 C 1.542493 -5.842067 3.915422 0
M  V30 3 C 1.583529 -5.739255 2.484816 0
M  V30 4 C 1.971499 -4.566643 1.871450 0
M  V30 5 C 2.010389 -4.469522 0.494560 0
M  V30 6 N 2.432550 -3.191099 -0.016816 0
M  V30 7 C 1.404741 -2.228121 -0.248846 0
M  V30 8 O 0.177619 -2.468872 -0.021935 0
M  V30 9 C 1.844785 -0.928935 -0.769779 0
M  V30 10 C 0.747783 0.032423 -0.993344 0
M  V30 11 N 0.432342 0.829967 0.043623 0
M  V30 12 C -0.546004 1.749703 -0.023954 0
M  V30 13 N -0.839512 2.567717 1.101353 0
M  V30 14 C -1.874069 3.585171 1.125186 0
M  V30 15 C -1.471640 4.637560 2.135413 0
M  V30 16 O -0.110602 4.845737 2.182644 0
M  V30 17 C 0.653183 3.749965 2.492406 0
M  V30 18 C -0.104541 2.442299 2.346696 0
M  V30 19 C -1.282221 1.921742 -1.173863 0
M  V30 20 C -0.950030 1.098828 -2.230009 0
M  V30 21 O -1.593358 1.212682 -3.311936 0
M  V30 22 N 0.043862 0.175799 -2.137434 0
M  V30 23 C 1.668191 -5.524927 -0.325818 0
M  V30 24 C 1.276767 -6.708149 0.281931 0
M  V30 25 C 1.238332 -6.803794 1.664583 0
M  V30 26 F 0.855868 -7.959921 2.259522 0
M  V30 27 H 2.242355 -3.731452 2.508716 0
M  V30 28 H 3.442511 -2.990867 -0.204322 0
M  V30 29 H 2.674631 -0.509026 -0.167184 0
M  V30 30 H 2.301463 -1.113697 -1.783403 0
M  V30 31 H -2.026546 4.062396 0.155814 0
M  V30 32 H -2.831785 3.137171 1.522113 0
M  V30 33 H -1.929278 5.593920 1.807680 0
M  V30 34 H -1.899276 4.417279 3.151901 0
M  V30 35 H 1.467257 3.684163 1.711801 0
M  V30 36 H 1.101361 3.848097 3.512786 0
M  V30 37 H 0.584302 1.595830 2.372260 0
M  V30 38 H -0.844176 2.391211 3.197212 0
M  V30 39 H -2.081590 2.638008 -1.303500 0
M  V30 40 H 0.311800 -0.456360 -2.922543 0
M  V30 41 H 1.732248 -5.346312 -1.393288 0
M  V30 42 H 1.013867 -7.519011 -0.351008 0
M  V30 END ATOM
M  V30 BEGIN BOND
M  V30 1 3 1 2
M  V30 2 1 2 3
M  V30 3 2 3 4
M  V30 4 1 4 5
M  V30 5 1 5 6
M  V30 6 1 6 7
M  V30 7 2 7 8
M  V30 8 1 7 9
M  V30 9 1 9 10
M  V30 10 2 10 11
M  V30 11 1 11 12
M  V30 12 1 12 13
M  V30 13 1 13 14
M  V30 14 1 14 15
M  V30 15 1 15 16
M  V30 16 1 16 17
M  V30 17 1 17 18
M  V30 18 2 12 19
M  V30 19 1 19 20
M  V30 20 2 20 21
M  V30 21 1 20 22
M  V30 22 2 5 23
M  V30 23 1 23 24
M  V30 24 2 24 25
M  V30 25 1 25 26
M  V30 26 1 25 3
M  V30 27 1 22 10
M  V30 28 1 18 13
M  V30 29 1 4 27
M  V30 30 1 6 28
M  V30 31 1 9 29
M  V30 32 1 9 30
M  V30 33 1 14 31
M  V30 34 1 14 32
M  V30 35 1 15 33
M  V30 36 1 15 34
M  V30 37 1 17 35
M  V30 38 1 17 36
M  V30 39 1 18 37
M  V30 40 1 18 38
M  V30 41 1 19 39
M  V30 42 1 22 40
M  V30 43 1 23 41
M  V30 44 1 24 42
M  V30 END BOND
M  V30 END CTAB
M  END
>  <Dataset>  (330) 
ChEMBL_Kinases

>  <Ligand_Instance>  (330) 
nan

>  <PDB_ID>  (330) 
nan

>  <Standardized_SMILES>  (330) 
N#Cc1cc(NC(=O)Cc2nc(N3CCOCC3)cc(=O)[nH]2)ccc1F

>  <Name>  (330) 
nan

>  <Pocket>  (330) 
nan

>  <ATP_Site>  (330) 
nan

>  <Peripheral>  (330) 
nan

>  <Num_H_Atoms_ProtBoundConf>  (330) 
nan

>  <Num_Resolved_Atoms>  (330) 
nan

>  <Num_Not_Resolved_Atoms>  (330) 
nan

$$$$
CHEMBL3696244
     RDKit          3D

  0  0  0  0  0  0  0  0  0  0999 V3000
M  V30 BEGIN CTAB
M  V30 COUNTS 50 52 0 0 0
M  V30 BEGIN ATOM
M  V30 1 C 2.160894 -4.403958 2.420012 0
M  V30 2 C 2.866461 -4.871392 1.170324 0
M  V30 3 C 1.855430 -5.475358 0.241326 0
M  V30 4 C 3.547990 -3.706344 0.521096 0
M  V30 5 C 4.913382 -3.707090 0.339187 0
M  V30 6 C 5.469460 -2.600254 -0.265378 0
M  V30 7 C 4.700430 -1.534257 -0.673489 0
M  V30 8 C 3.347399 -1.505500 -0.506654 0
M  V30 9 N 2.630866 -0.376932 -0.951697 0
M  V30 10 C 1.245377 -0.098627 -0.900110 0
M  V30 11 O 0.469958 -0.938827 -0.394111 0
M  V30 12 C 0.608317 1.140872 -1.408863 0
M  V30 13 C -0.858640 0.970548 -1.131483 0
M  V30 14 N -1.334028 1.412873 0.061350 0
M  V30 15 C -2.633561 1.298043 0.387219 0
M  V30 16 N -3.023710 1.793998 1.660999 0
M  V30 17 C -2.009049 2.385966 2.514398 0
M  V30 18 C -2.469451 3.750675 2.858630 0
M  V30 19 O -3.764989 4.054377 2.821972 0
M  V30 20 C -4.728226 3.180416 2.551350 0
M  V30 21 C -4.360504 1.773885 2.218977 0
M  V30 22 C -3.483339 0.714656 -0.526463 0
M  V30 23 C -2.973546 0.274259 -1.730408 0
M  V30 24 O -3.722999 -0.266570 -2.594595 0
M  V30 25 N -1.660650 0.386131 -2.068780 0
M  V30 26 C 2.818738 -2.620740 0.098277 0
M  V30 27 H 1.754387 -5.286186 2.948134 0
M  V30 28 H 2.875133 -3.817854 3.050578 0
M  V30 29 H 1.311698 -3.761631 2.131247 0
M  V30 30 H 3.595590 -5.651753 1.446723 0
M  V30 31 H 1.486758 -6.421883 0.691580 0
M  V30 32 H 0.948205 -4.813820 0.136089 0
M  V30 33 H 2.272527 -5.707581 -0.756211 0
M  V30 34 H 5.525325 -4.534442 0.653929 0
M  V30 35 H 6.529727 -2.538072 -0.436698 0
M  V30 36 H 5.200310 -0.676661 -1.151128 0
M  V30 37 H 3.143529 0.416365 -1.400190 0
M  V30 38 H 0.794739 1.291139 -2.490143 0
M  V30 39 H 0.958615 2.018391 -0.824816 0
M  V30 40 H -1.941306 1.791786 3.466835 0
M  V30 41 H -1.018981 2.394456 2.017364 0
M  V30 42 H -1.912985 4.459438 2.177030 0
M  V30 43 H -2.066772 4.007118 3.872950 0
M  V30 44 H -5.370373 3.551374 1.714549 0
M  V30 45 H -5.428682 3.143337 3.423049 0
M  V30 46 H -5.066924 1.255039 1.573412 0
M  V30 47 H -4.267277 1.217101 3.197024 0
M  V30 48 H -4.517145 0.618775 -0.277382 0
M  V30 49 H -1.273005 0.054589 -2.976867 0
M  V30 50 H 1.756417 -2.681311 0.269122 0
M  V30 END ATOM
M  V30 BEGIN BOND
M  V30 1 1 1 2
M  V30 2 1 2 3
M  V30 3 1 2 4
M  V30 4 2 4 5
M  V30 5 1 5 6
M  V30 6 2 6 7
M  V30 7 1 7 8
M  V30 8 1 8 9
M  V30 9 1 9 10
M  V30 10 2 10 11
M  V30 11 1 10 12
M  V30 12 1 12 13
M  V30 13 2 13 14
M  V30 14 1 14 15
M  V30 15 1 15 16
M  V30 16 1 16 17
M  V30 17 1 17 18
M  V30 18 1 18 19
M  V30 19 1 19 20
M  V30 20 1 20 21
M  V30 21 2 15 22
M  V30 22 1 22 23
M  V30 23 2 23 24
M  V30 24 1 23 25
M  V30 25 2 8 26
M  V30 26 1 26 4
M  V30 27 1 25 13
M  V30 28 1 21 16
M  V30 29 1 1 27
M  V30 30 1 1 28
M  V30 31 1 1 29
M  V30 32 1 2 30
M  V30 33 1 3 31
M  V30 34 1 3 32
M  V30 35 1 3 33
M  V30 36 1 5 34
M  V30 37 1 6 35
M  V30 38 1 7 36
M  V30 39 1 9 37
M  V30 40 1 12 38
M  V30 41 1 12 39
M  V30 42 1 17 40
M  V30 43 1 17 41
M  V30 44 1 18 42
M  V30 45 1 18 43
M  V30 46 1 20 44
M  V30 47 1 20 45
M  V30 48 1 21 46
M  V30 49 1 21 47
M  V30 50 1 22 48
M  V30 51 1 25 49
M  V30 52 1 26 50
M  V30 END BOND
M  V30 END CTAB
M  END
>  <Dataset>  (331) 
ChEMBL_Kinases

>  <Ligand_Instance>  (331) 
nan

>  <PDB_ID>  (331) 
nan

>  <Standardized_SMILES>  (331) 
CC(C)c1cccc(NC(=O)Cc2nc(N3CCOCC3)cc(=O)[nH]2)c1

>  <Name>  (331) 
nan

>  <Pocket>  (331) 
nan

>  <ATP_Site>  (331) 
nan

>  <Peripheral>  (331) 
nan

>  <Num_H_Atoms_ProtBoundConf>  (331) 
nan

>  <Num_Resolved_Atoms>  (331) 
nan

>  <Num_Not_Resolved_Atoms>  (331) 
nan

$$$$
CHEMBL3696243
     RDKit          3D

  0  0  0  0  0  0  0  0  0  0999 V3000
M  V30 BEGIN CTAB
M  V30 COUNTS 44 46 0 0 0
M  V30 BEGIN ATOM
M  V30 1 O 2.034935 -3.385047 3.448292 0
M  V30 2 C 1.714113 -2.333772 2.847075 0
M  V30 3 C 2.558805 -1.114421 3.090821 0
M  V30 4 C 1.847996 0.116205 2.740198 0
M  V30 5 N 2.049646 0.539972 1.497945 0
M  V30 6 C 1.512232 1.632082 0.931362 0
M  V30 7 N 1.799255 2.000766 -0.417636 0
M  V30 8 C 1.079278 3.130610 -1.014615 0
M  V30 9 C 1.018314 3.013493 -2.509306 0
M  V30 10 O 1.502264 1.793921 -2.991623 0
M  V30 11 C 2.845882 1.712436 -2.556961 0
M  V30 12 C 2.793099 1.238428 -1.128777 0
M  V30 13 C 0.679557 2.341731 1.767734 0
M  V30 14 C 0.461374 1.911323 3.063253 0
M  V30 15 O -0.287881 2.535258 3.842462 0
M  V30 16 N 1.038304 0.791365 3.580107 0
M  V30 17 N 0.622954 -2.177681 1.951599 0
M  V30 18 C -0.462692 -2.853881 1.336816 0
M  V30 19 C -0.258619 -3.442501 0.096596 0
M  V30 20 C -1.313546 -4.115820 -0.529690 0
M  V30 21 C -2.500344 -4.136249 0.163968 0
M  V30 22 C -2.756606 -3.576818 1.381856 0
M  V30 23 C -4.062328 -3.667393 2.024670 0
M  V30 24 O -4.297704 -3.150948 3.145299 0
M  V30 25 O -5.069890 -4.362993 1.339151 0
M  V30 26 C -1.699030 -2.907993 1.997075 0
M  V30 27 H 2.850486 -1.104310 4.156074 0
M  V30 28 H 3.489300 -1.256349 2.513992 0
M  V30 29 H 0.046260 3.042417 -0.617437 0
M  V30 30 H 1.606482 4.040695 -0.728144 0
M  V30 31 H -0.035836 3.071469 -2.848849 0
M  V30 32 H 1.545749 3.852982 -3.028846 0
M  V30 33 H 3.376194 1.027759 -3.244503 0
M  V30 34 H 3.242144 2.759861 -2.594255 0
M  V30 35 H 3.820715 1.403426 -0.717884 0
M  V30 36 H 2.575271 0.153165 -1.127960 0
M  V30 37 H 0.197782 3.248123 1.390170 0
M  V30 38 H 0.892497 0.440992 4.545877 0
M  V30 39 H 0.438792 -1.232432 1.499960 0
M  V30 40 H 0.721882 -3.357740 -0.345828 0
M  V30 41 H -1.136276 -4.561403 -1.482178 0
M  V30 42 H -3.304119 -4.668871 -0.353242 0
M  V30 43 H -5.947140 -4.620273 1.802529 0
M  V30 44 H -1.831665 -2.442404 2.960440 0
M  V30 END ATOM
M  V30 BEGIN BOND
M  V30 1 2 1 2
M  V30 2 1 2 3
M  V30 3 1 3 4
M  V30 4 2 4 5
M  V30 5 1 5 6
M  V30 6 1 6 7
M  V30 7 1 7 8
M  V30 8 1 8 9
M  V30 9 1 9 10
M  V30 10 1 10 11
M  V30 11 1 11 12
M  V30 12 2 6 13
M  V30 13 1 13 14
M  V30 14 2 14 15
M  V30 15 1 14 16
M  V30 16 1 2 17
M  V30 17 1 17 18
M  V30 18 2 18 19
M  V30 19 1 19 20
M  V30 20 2 20 21
M  V30 21 1 21 22
M  V30 22 1 22 23
M  V30 23 2 23 24
M  V30 24 1 23 25
M  V30 25 2 22 26
M  V30 26 1 16 4
M  V30 27 1 26 18
M  V30 28 1 12 7
M  V30 29 1 3 27
M  V30 30 1 3 28
M  V30 31 1 8 29
M  V30 32 1 8 30
M  V30 33 1 9 31
M  V30 34 1 9 32
M  V30 35 1 11 33
M  V30 36 1 11 34
M  V30 37 1 12 35
M  V30 38 1 12 36
M  V30 39 1 13 37
M  V30 40 1 16 38
M  V30 41 1 17 39
M  V30 42 1 19 40
M  V30 43 1 20 41
M  V30 44 1 21 42
M  V30 45 1 25 43
M  V30 46 1 26 44
M  V30 END BOND
M  V30 END CTAB
M  END
>  <Dataset>  (332) 
ChEMBL_Kinases

>  <Ligand_Instance>  (332) 
nan

>  <PDB_ID>  (332) 
nan

>  <Standardized_SMILES>  (332) 
O=C(Cc1nc(N2CCOCC2)cc(=O)[nH]1)Nc1cccc(C(=O)O)c1

>  <Name>  (332) 
nan

>  <Pocket>  (332) 
nan

>  <ATP_Site>  (332) 
nan

>  <Peripheral>  (332) 
nan

>  <Num_H_Atoms_ProtBoundConf>  (332) 
nan

>  <Num_Resolved_Atoms>  (332) 
nan

>  <Num_Not_Resolved_Atoms>  (332) 
nan

$$$$
CHEMBL3696242
     RDKit          3D

  0  0  0  0  0  0  0  0  0  0999 V3000
M  V30 BEGIN CTAB
M  V30 COUNTS 47 49 0 0 0
M  V30 BEGIN ATOM
M  V30 1 C 5.451984 -3.777902 2.924971 0
M  V30 2 O 4.845050 -3.568301 1.667402 0
M  V30 3 C 4.303416 -2.344680 1.293248 0
M  V30 4 O 4.338891 -1.362704 2.084440 0
M  V30 5 C 3.693504 -2.214036 -0.028395 0
M  V30 6 C 3.628456 -3.250982 -0.928321 0
M  V30 7 C 3.051884 -3.122697 -2.174224 0
M  V30 8 C 2.502042 -1.905186 -2.571332 0
M  V30 9 C 2.566667 -0.856848 -1.664163 0
M  V30 10 N 2.049949 0.467079 -1.907140 0
M  V30 11 C 0.704713 0.564230 -1.488783 0
M  V30 12 O -0.329444 0.044334 -0.980600 0
M  V30 13 C -0.254236 1.711606 -1.528868 0
M  V30 14 C -1.519355 1.180017 -0.939987 0
M  V30 15 N -1.700755 1.288390 0.382323 0
M  V30 16 C -2.805025 0.841562 1.010836 0
M  V30 17 N -2.969485 0.970577 2.417076 0
M  V30 18 C -4.118162 0.518052 3.179379 0
M  V30 19 C -3.492615 -0.427867 4.203757 0
M  V30 20 O -2.578384 0.141777 5.008563 0
M  V30 21 C -1.699345 1.027230 4.527809 0
M  V30 22 C -1.910856 1.606091 3.175802 0
M  V30 23 C -3.740859 0.260197 0.184035 0
M  V30 24 C -3.563613 0.143477 -1.180836 0
M  V30 25 O -4.418045 -0.387484 -1.937028 0
M  V30 26 N -2.448966 0.603284 -1.756401 0
M  V30 27 C 3.149408 -0.997167 -0.412670 0
M  V30 28 H 5.873893 -2.840886 3.342444 0
M  V30 29 H 6.210802 -4.585012 2.889008 0
M  V30 30 H 4.660637 -4.113908 3.625249 0
M  V30 31 H 4.050522 -4.220897 -0.649125 0
M  V30 32 H 2.985695 -3.919268 -2.903394 0
M  V30 33 H 2.028247 -1.703257 -3.525373 0
M  V30 34 H 2.379721 1.378798 -2.303239 0
M  V30 35 H 0.076756 2.560433 -0.894610 0
M  V30 36 H -0.393617 2.109012 -2.532331 0
M  V30 37 H -4.876281 -0.008321 2.611166 0
M  V30 38 H -4.512727 1.418273 3.718624 0
M  V30 39 H -4.330820 -0.868102 4.791317 0
M  V30 40 H -3.054018 -1.267713 3.623324 0
M  V30 41 H -0.682227 0.535980 4.493585 0
M  V30 42 H -1.583103 1.841564 5.281445 0
M  V30 43 H -0.975667 1.702516 2.581443 0
M  V30 44 H -2.276192 2.668767 3.300574 0
M  V30 45 H -4.650061 -0.124087 0.591325 0
M  V30 46 H -2.287807 0.527739 -2.792172 0
M  V30 47 H 3.209514 -0.187951 0.311445 0
M  V30 END ATOM
M  V30 BEGIN BOND
M  V30 1 1 1 2
M  V30 2 1 2 3
M  V30 3 2 3 4
M  V30 4 1 3 5
M  V30 5 2 5 6
M  V30 6 1 6 7
M  V30 7 2 7 8
M  V30 8 1 8 9
M  V30 9 1 9 10
M  V30 10 1 10 11
M  V30 11 2 11 12
M  V30 12 1 11 13
M  V30 13 1 13 14
M  V30 14 2 14 15
M  V30 15 1 15 16
M  V30 16 1 16 17
M  V30 17 1 17 18
M  V30 18 1 18 19
M  V30 19 1 19 20
M  V30 20 1 20 21
M  V30 21 1 21 22
M  V30 22 2 16 23
M  V30 23 1 23 24
M  V30 24 2 24 25
M  V30 25 1 24 26
M  V30 26 2 9 27
M  V30 27 1 27 5
M  V30 28 1 26 14
M  V30 29 1 22 17
M  V30 30 1 1 28
M  V30 31 1 1 29
M  V30 32 1 1 30
M  V30 33 1 6 31
M  V30 34 1 7 32
M  V30 35 1 8 33
M  V30 36 1 10 34
M  V30 37 1 13 35
M  V30 38 1 13 36
M  V30 39 1 18 37
M  V30 40 1 18 38
M  V30 41 1 19 39
M  V30 42 1 19 40
M  V30 43 1 21 41
M  V30 44 1 21 42
M  V30 45 1 22 43
M  V30 46 1 22 44
M  V30 47 1 23 45
M  V30 48 1 26 46
M  V30 49 1 27 47
M  V30 END BOND
M  V30 END CTAB
M  END
>  <Dataset>  (333) 
ChEMBL_Kinases

>  <Ligand_Instance>  (333) 
nan

>  <PDB_ID>  (333) 
nan

>  <Standardized_SMILES>  (333) 
COC(=O)c1cccc(NC(=O)Cc2nc(N3CCOCC3)cc(=O)[nH]2)c1

>  <Name>  (333) 
nan

>  <Pocket>  (333) 
nan

>  <ATP_Site>  (333) 
nan

>  <Peripheral>  (333) 
nan

>  <Num_H_Atoms_ProtBoundConf>  (333) 
nan

>  <Num_Resolved_Atoms>  (333) 
nan

>  <Num_Not_Resolved_Atoms>  (333) 
nan

$$$$
CHEMBL3696241
     RDKit          3D

  0  0  0  0  0  0  0  0  0  0999 V3000
M  V30 BEGIN CTAB
M  V30 COUNTS 53 55 0 0 0
M  V30 BEGIN ATOM
M  V30 1 C 4.070915 -3.319002 4.350463 0
M  V30 2 C 3.925856 -3.032628 2.876187 0
M  V30 3 C 2.933014 -4.025266 2.307544 0
M  V30 4 C 5.226038 -3.175116 2.121977 0
M  V30 5 C 3.319527 -1.683709 2.705241 0
M  V30 6 C 2.963264 -0.861918 3.755705 0
M  V30 7 C 2.401262 0.387742 3.571096 0
M  V30 8 C 2.181911 0.844321 2.269528 0
M  V30 9 C 2.552211 -0.008620 1.223568 0
M  V30 10 N 2.351471 0.404408 -0.147708 0
M  V30 11 C 1.069730 -0.013605 -0.560661 0
M  V30 12 O 0.214875 -0.651206 0.143768 0
M  V30 13 C 0.397565 0.166148 -1.866704 0
M  V30 14 C -0.939145 -0.473753 -1.740054 0
M  V30 15 N -1.882835 0.349162 -1.310406 0
M  V30 16 C -3.173977 -0.030921 -1.124539 0
M  V30 17 N -4.174339 0.867509 -0.662320 0
M  V30 18 C -5.570584 0.536987 -0.437550 0
M  V30 19 C -6.319504 1.327145 -1.516730 0
M  V30 20 O -5.595740 2.440753 -1.941430 0
M  V30 21 C -4.933132 3.092683 -0.898259 0
M  V30 22 C -3.765657 2.235612 -0.391277 0
M  V30 23 C -3.401712 -1.356911 -1.427780 0
M  V30 24 C -2.420552 -2.218040 -1.875962 0
M  V30 25 O -2.677795 -3.419934 -2.139538 0
M  V30 26 N -1.176995 -1.758025 -2.029926 0
M  V30 27 C 3.113258 -1.256137 1.409025 0
M  V30 28 H 4.587650 -4.308328 4.443613 0
M  V30 29 H 3.065951 -3.416737 4.773813 0
M  V30 30 H 4.690388 -2.544259 4.835045 0
M  V30 31 H 3.056008 -3.995110 1.194965 0
M  V30 32 H 3.071021 -5.056518 2.688285 0
M  V30 33 H 1.911479 -3.633276 2.533110 0
M  V30 34 H 6.102391 -3.184954 2.788900 0
M  V30 35 H 5.397705 -2.397663 1.362489 0
M  V30 36 H 5.238941 -4.140389 1.572771 0
M  V30 37 H 3.130333 -1.209220 4.764927 0
M  V30 38 H 2.130086 1.014414 4.417496 0
M  V30 39 H 1.743626 1.817780 2.070220 0
M  V30 40 H 2.868903 0.914613 -0.913523 0
M  V30 41 H 0.907908 -0.376412 -2.687313 0
M  V30 42 H 0.328601 1.226536 -2.176250 0
M  V30 43 H -5.789561 -0.533823 -0.475806 0
M  V30 44 H -5.904325 0.982072 0.545877 0
M  V30 45 H -6.342912 0.638226 -2.396394 0
M  V30 46 H -7.319362 1.611352 -1.187500 0
M  V30 47 H -5.665965 3.314819 -0.123219 0
M  V30 48 H -4.473934 3.993499 -1.363978 0
M  V30 49 H -3.640735 2.350936 0.702872 0
M  V30 50 H -2.811163 2.504335 -0.849491 0
M  V30 51 H -4.394107 -1.755992 -1.313572 0
M  V30 52 H -0.368273 -2.332375 -2.363208 0
M  V30 53 H 3.376483 -1.865188 0.560214 0
M  V30 END ATOM
M  V30 BEGIN BOND
M  V30 1 1 1 2
M  V30 2 1 2 3
M  V30 3 1 2 4
M  V30 4 1 2 5
M  V30 5 2 5 6
M  V30 6 1 6 7
M  V30 7 2 7 8
M  V30 8 1 8 9
M  V30 9 1 9 10
M  V30 10 1 10 11
M  V30 11 2 11 12
M  V30 12 1 11 13
M  V30 13 1 13 14
M  V30 14 2 14 15
M  V30 15 1 15 16
M  V30 16 1 16 17
M  V30 17 1 17 18
M  V30 18 1 18 19
M  V30 19 1 19 20
M  V30 20 1 20 21
M  V30 21 1 21 22
M  V30 22 2 16 23
M  V30 23 1 23 24
M  V30 24 2 24 25
M  V30 25 1 24 26
M  V30 26 2 9 27
M  V30 27 1 27 5
M  V30 28 1 26 14
M  V30 29 1 22 17
M  V30 30 1 1 28
M  V30 31 1 1 29
M  V30 32 1 1 30
M  V30 33 1 3 31
M  V30 34 1 3 32
M  V30 35 1 3 33
M  V30 36 1 4 34
M  V30 37 1 4 35
M  V30 38 1 4 36
M  V30 39 1 6 37
M  V30 40 1 7 38
M  V30 41 1 8 39
M  V30 42 1 10 40
M  V30 43 1 13 41
M  V30 44 1 13 42
M  V30 45 1 18 43
M  V30 46 1 18 44
M  V30 47 1 19 45
M  V30 48 1 19 46
M  V30 49 1 21 47
M  V30 50 1 21 48
M  V30 51 1 22 49
M  V30 52 1 22 50
M  V30 53 1 23 51
M  V30 54 1 26 52
M  V30 55 1 27 53
M  V30 END BOND
M  V30 END CTAB
M  END
>  <Dataset>  (334) 
ChEMBL_Kinases

>  <Ligand_Instance>  (334) 
nan

>  <PDB_ID>  (334) 
nan

>  <Standardized_SMILES>  (334) 
CC(C)(C)c1cccc(NC(=O)Cc2nc(N3CCOCC3)cc(=O)[nH]2)c1

>  <Name>  (334) 
nan

>  <Pocket>  (334) 
nan

>  <ATP_Site>  (334) 
nan

>  <Peripheral>  (334) 
nan

>  <Num_H_Atoms_ProtBoundConf>  (334) 
nan

>  <Num_Resolved_Atoms>  (334) 
nan

>  <Num_Not_Resolved_Atoms>  (334) 
nan

$$$$
CHEMBL3696240
     RDKit          3D

  0  0  0  0  0  0  0  0  0  0999 V3000
M  V30 BEGIN CTAB
M  V30 COUNTS 44 46 0 0 0
M  V30 BEGIN ATOM
M  V30 1 O 1.916218 -3.369571 3.059865 0
M  V30 2 C 1.407694 -2.193485 3.203302 0
M  V30 3 C 2.225152 -1.171656 3.917411 0
M  V30 4 C 2.038529 0.164877 3.234601 0
M  V30 5 N 1.975624 0.043143 1.888026 0
M  V30 6 C 1.802512 1.116119 1.099294 0
M  V30 7 N 1.714043 0.933464 -0.334227 0
M  V30 8 C 0.510072 1.626840 -0.795732 0
M  V30 9 C 0.418535 1.704351 -2.281299 0
M  V30 10 O 1.202298 0.763213 -2.940696 0
M  V30 11 C 2.537026 0.892524 -2.548531 0
M  V30 12 C 2.649239 0.191008 -1.206825 0
M  V30 13 C 1.690248 2.376563 1.674048 0
M  V30 14 C 1.761465 2.460148 3.036194 0
M  V30 15 O 1.669968 3.535892 3.668418 0
M  V30 16 N 1.932120 1.369362 3.819964 0
M  V30 17 N 0.136304 -2.007127 2.656086 0
M  V30 18 C -1.035437 -2.384933 1.970306 0
M  V30 19 C -2.081848 -2.921738 2.670993 0
M  V30 20 C -3.207141 -3.285542 1.963682 0
M  V30 21 C -3.193329 -3.076840 0.574534 0
M  V30 22 C -2.161215 -2.542575 -0.157867 0
M  V30 23 C -2.339875 -2.422772 -1.626275 0
M  V30 24 F -1.120733 -2.462507 -2.268521 0
M  V30 25 F -2.961123 -1.212586 -1.953705 0
M  V30 26 F -3.148048 -3.451460 -2.080667 0
M  V30 27 C -1.057112 -2.191845 0.583498 0
M  V30 28 H 3.289799 -1.416843 3.769293 0
M  V30 29 H 1.923578 -1.086576 4.948143 0
M  V30 30 H -0.356372 1.011997 -0.413853 0
M  V30 31 H 0.404656 2.610027 -0.350186 0
M  V30 32 H -0.654983 1.477443 -2.563776 0
M  V30 33 H 0.615625 2.756257 -2.644885 0
M  V30 34 H 2.788763 1.972123 -2.383595 0
M  V30 35 H 3.197440 0.399124 -3.294187 0
M  V30 36 H 3.652109 0.207623 -0.792574 0
M  V30 37 H 2.275323 -0.835092 -1.292146 0
M  V30 38 H 1.547938 3.280800 1.109676 0
M  V30 39 H 1.986480 1.340936 4.875435 0
M  V30 40 H -0.166661 -0.986668 2.822456 0
M  V30 41 H -1.994249 -3.029663 3.740027 0
M  V30 42 H -4.067087 -3.708682 2.454121 0
M  V30 43 H -4.105799 -3.387263 0.066518 0
M  V30 44 H -0.219861 -1.759230 0.001239 0
M  V30 END ATOM
M  V30 BEGIN BOND
M  V30 1 2 1 2
M  V30 2 1 2 3
M  V30 3 1 3 4
M  V30 4 2 4 5
M  V30 5 1 5 6
M  V30 6 1 6 7
M  V30 7 1 7 8
M  V30 8 1 8 9
M  V30 9 1 9 10
M  V30 10 1 10 11
M  V30 11 1 11 12
M  V30 12 2 6 13
M  V30 13 1 13 14
M  V30 14 2 14 15
M  V30 15 1 14 16
M  V30 16 1 2 17
M  V30 17 1 17 18
M  V30 18 2 18 19
M  V30 19 1 19 20
M  V30 20 2 20 21
M  V30 21 1 21 22
M  V30 22 1 22 23
M  V30 23 1 23 24
M  V30 24 1 23 25
M  V30 25 1 23 26
M  V30 26 2 22 27
M  V30 27 1 16 4
M  V30 28 1 27 18
M  V30 29 1 12 7
M  V30 30 1 3 28
M  V30 31 1 3 29
M  V30 32 1 8 30
M  V30 33 1 8 31
M  V30 34 1 9 32
M  V30 35 1 9 33
M  V30 36 1 11 34
M  V30 37 1 11 35
M  V30 38 1 12 36
M  V30 39 1 12 37
M  V30 40 1 13 38
M  V30 41 1 16 39
M  V30 42 1 17 40
M  V30 43 1 19 41
M  V30 44 1 20 42
M  V30 45 1 21 43
M  V30 46 1 27 44
M  V30 END BOND
M  V30 END CTAB
M  END
>  <Dataset>  (335) 
ChEMBL_Kinases

>  <Ligand_Instance>  (335) 
nan

>  <PDB_ID>  (335) 
nan

>  <Standardized_SMILES>  (335) 
O=C(Cc1nc(N2CCOCC2)cc(=O)[nH]1)Nc1cccc(C(F)(F)F)c1

>  <Name>  (335) 
nan

>  <Pocket>  (335) 
nan

>  <ATP_Site>  (335) 
nan

>  <Peripheral>  (335) 
nan

>  <Num_H_Atoms_ProtBoundConf>  (335) 
nan

>  <Num_Resolved_Atoms>  (335) 
nan

>  <Num_Not_Resolved_Atoms>  (335) 
nan

$$$$
CHEMBL3696239
     RDKit          3D

  0  0  0  0  0  0  0  0  0  0999 V3000
M  V30 BEGIN CTAB
M  V30 COUNTS 41 43 0 0 0
M  V30 BEGIN ATOM
M  V30 1 O -0.647002 -3.879116 2.774233 0
M  V30 2 C -0.216787 -2.755454 2.505984 0
M  V30 3 C 1.239417 -2.695872 2.390836 0
M  V30 4 C 1.746526 -1.335141 2.093789 0
M  V30 5 N 1.910473 -0.900038 0.821034 0
M  V30 6 C 2.367266 0.324848 0.505134 0
M  V30 7 N 2.494785 0.661923 -0.873393 0
M  V30 8 C 2.123349 -0.331764 -1.850233 0
M  V30 9 C 2.875994 -0.221853 -3.147502 0
M  V30 10 O 3.169456 1.061120 -3.541156 0
M  V30 11 C 2.594421 2.057191 -2.786061 0
M  V30 12 C 2.975725 1.943851 -1.321074 0
M  V30 13 C 2.696494 1.212471 1.511244 0
M  V30 14 C 2.525783 0.759290 2.796966 0
M  V30 15 O 2.809420 1.524330 3.741388 0
M  V30 16 N 2.069691 -0.463774 3.091182 0
M  V30 17 N -1.127803 -1.701356 2.346905 0
M  V30 18 C -2.511100 -1.672354 2.438193 0
M  V30 19 C -3.187265 -0.486211 2.235492 0
M  V30 20 C -4.559558 -0.384821 2.310864 0
M  V30 21 F -5.104091 0.835685 2.091468 0
M  V30 22 C -5.347562 -1.478806 2.597385 0
M  V30 23 C -4.714192 -2.684056 2.807189 0
M  V30 24 F -5.460093 -3.769150 3.088909 0
M  V30 25 C -3.333969 -2.726527 2.718818 0
M  V30 26 H 1.509563 -3.329334 1.496734 0
M  V30 27 H 1.778838 -3.166991 3.245034 0
M  V30 28 H 1.024063 -0.279051 -2.047523 0
M  V30 29 H 2.387515 -1.347371 -1.437392 0
M  V30 30 H 3.833142 -0.818628 -3.128427 0
M  V30 31 H 2.237039 -0.757621 -3.907599 0
M  V30 32 H 1.479596 1.901972 -2.819949 0
M  V30 33 H 2.893789 3.023733 -3.228645 0
M  V30 34 H 2.451319 2.776496 -0.781221 0
M  V30 35 H 4.068676 1.973840 -1.167508 0
M  V30 36 H 3.059112 2.184840 1.241123 0
M  V30 37 H 1.961094 -0.751414 4.087900 0
M  V30 38 H -0.600301 -0.803402 2.119413 0
M  V30 39 H -2.597417 0.415307 2.003558 0
M  V30 40 H -6.403767 -1.314068 2.637084 0
M  V30 41 H -2.918803 -3.698771 2.894905 0
M  V30 END ATOM
M  V30 BEGIN BOND
M  V30 1 2 1 2
M  V30 2 1 2 3
M  V30 3 1 3 4
M  V30 4 2 4 5
M  V30 5 1 5 6
M  V30 6 1 6 7
M  V30 7 1 7 8
M  V30 8 1 8 9
M  V30 9 1 9 10
M  V30 10 1 10 11
M  V30 11 1 11 12
M  V30 12 2 6 13
M  V30 13 1 13 14
M  V30 14 2 14 15
M  V30 15 1 14 16
M  V30 16 1 2 17
M  V30 17 1 17 18
M  V30 18 2 18 19
M  V30 19 1 19 20
M  V30 20 1 20 21
M  V30 21 2 20 22
M  V30 22 1 22 23
M  V30 23 1 23 24
M  V30 24 2 23 25
M  V30 25 1 16 4
M  V30 26 1 25 18
M  V30 27 1 12 7
M  V30 28 1 3 26
M  V30 29 1 3 27
M  V30 30 1 8 28
M  V30 31 1 8 29
M  V30 32 1 9 30
M  V30 33 1 9 31
M  V30 34 1 11 32
M  V30 35 1 11 33
M  V30 36 1 12 34
M  V30 37 1 12 35
M  V30 38 1 13 36
M  V30 39 1 16 37
M  V30 40 1 17 38
M  V30 41 1 19 39
M  V30 42 1 22 40
M  V30 43 1 25 41
M  V30 END BOND
M  V30 END CTAB
M  END
>  <Dataset>  (336) 
ChEMBL_Kinases

>  <Ligand_Instance>  (336) 
nan

>  <PDB_ID>  (336) 
nan

>  <Standardized_SMILES>  (336) 
O=C(Cc1nc(N2CCOCC2)cc(=O)[nH]1)Nc1cc(F)cc(F)c1

>  <Name>  (336) 
nan

>  <Pocket>  (336) 
nan

>  <ATP_Site>  (336) 
nan

>  <Peripheral>  (336) 
nan

>  <Num_H_Atoms_ProtBoundConf>  (336) 
nan

>  <Num_Resolved_Atoms>  (336) 
nan

>  <Num_Not_Resolved_Atoms>  (336) 
nan

$$$$
CHEMBL3696238
     RDKit          3D

  0  0  0  0  0  0  0  0  0  0999 V3000
M  V30 BEGIN CTAB
M  V30 COUNTS 45 47 0 0 0
M  V30 BEGIN ATOM
M  V30 1 C -0.363085 -3.941406 -0.439831 0
M  V30 2 O 0.113097 -2.675594 -0.842090 0
M  V30 3 C 1.478631 -2.345281 -0.887549 0
M  V30 4 C 2.368074 -3.332487 -0.513785 0
M  V30 5 C 3.706122 -3.036317 -0.545775 0
M  V30 6 C 4.119133 -1.787628 -0.940656 0
M  V30 7 C 3.227665 -0.804236 -1.314243 0
M  V30 8 C 1.886011 -1.062315 -1.295950 0
M  V30 9 N 0.769249 -0.180143 -1.564306 0
M  V30 10 C 0.703811 1.252155 -1.391630 0
M  V30 11 O 1.706959 1.865713 -0.971761 0
M  V30 12 C -0.662604 1.760430 -1.762337 0
M  V30 13 C -1.520102 1.722237 -0.507445 0
M  V30 14 N -0.777220 1.314817 0.573236 0
M  V30 15 C -1.362295 1.161962 1.801417 0
M  V30 16 N -0.444110 0.732134 2.797822 0
M  V30 17 C -0.744899 0.496539 4.204376 0
M  V30 18 C -0.320407 -0.891195 4.629945 0
M  V30 19 O 0.938979 -1.216018 4.186133 0
M  V30 20 C 1.156582 -1.028579 2.839900 0
M  V30 21 C 0.958375 0.461216 2.549626 0
M  V30 22 C -2.690621 1.427852 1.891476 0
M  V30 23 C -3.424474 1.838071 0.789406 0
M  V30 24 O -4.639377 2.075601 0.896162 0
M  V30 25 N -2.826059 1.981614 -0.403148 0
M  V30 26 H -0.040557 -4.181247 0.604856 0
M  V30 27 H -0.038040 -4.732139 -1.136788 0
M  V30 28 H -1.486022 -3.888666 -0.463024 0
M  V30 29 H 1.977269 -4.308676 -0.211226 0
M  V30 30 H 4.362407 -3.835106 -0.247003 0
M  V30 31 H 5.159205 -1.539220 -0.963221 0
M  V30 32 H 3.456701 0.199238 -1.625746 0
M  V30 33 H -0.094613 -0.669085 -1.953397 0
M  V30 34 H -0.573577 2.831883 -2.028030 0
M  V30 35 H -1.143685 1.173858 -2.545071 0
M  V30 36 H -0.137281 1.244270 4.792732 0
M  V30 37 H -1.782864 0.684262 4.470449 0
M  V30 38 H -1.109195 -1.640512 4.354491 0
M  V30 39 H -0.278217 -0.895369 5.739370 0
M  V30 40 H 0.508957 -1.599939 2.161940 0
M  V30 41 H 2.228856 -1.246529 2.639634 0
M  V30 42 H 1.244529 0.678501 1.495746 0
M  V30 43 H 1.614731 0.994489 3.261165 0
M  V30 44 H -3.109514 1.289479 2.879128 0
M  V30 45 H -3.287692 2.278362 -1.284855 0
M  V30 END ATOM
M  V30 BEGIN BOND
M  V30 1 1 1 2
M  V30 2 1 2 3
M  V30 3 2 3 4
M  V30 4 1 4 5
M  V30 5 2 5 6
M  V30 6 1 6 7
M  V30 7 2 7 8
M  V30 8 1 8 9
M  V30 9 1 9 10
M  V30 10 2 10 11
M  V30 11 1 10 12
M  V30 12 1 12 13
M  V30 13 2 13 14
M  V30 14 1 14 15
M  V30 15 1 15 16
M  V30 16 1 16 17
M  V30 17 1 17 18
M  V30 18 1 18 19
M  V30 19 1 19 20
M  V30 20 1 20 21
M  V30 21 2 15 22
M  V30 22 1 22 23
M  V30 23 2 23 24
M  V30 24 1 23 25
M  V30 25 1 8 3
M  V30 26 1 25 13
M  V30 27 1 21 16
M  V30 28 1 1 26
M  V30 29 1 1 27
M  V30 30 1 1 28
M  V30 31 1 4 29
M  V30 32 1 5 30
M  V30 33 1 6 31
M  V30 34 1 7 32
M  V30 35 1 9 33
M  V30 36 1 12 34
M  V30 37 1 12 35
M  V30 38 1 17 36
M  V30 39 1 17 37
M  V30 40 1 18 38
M  V30 41 1 18 39
M  V30 42 1 20 40
M  V30 43 1 20 41
M  V30 44 1 21 42
M  V30 45 1 21 43
M  V30 46 1 22 44
M  V30 47 1 25 45
M  V30 END BOND
M  V30 END CTAB
M  END
>  <Dataset>  (337) 
ChEMBL_Kinases

>  <Ligand_Instance>  (337) 
nan

>  <PDB_ID>  (337) 
nan

>  <Standardized_SMILES>  (337) 
COc1ccccc1NC(=O)Cc1nc(N2CCOCC2)cc(=O)[nH]1

>  <Name>  (337) 
nan

>  <Pocket>  (337) 
nan

>  <ATP_Site>  (337) 
nan

>  <Peripheral>  (337) 
nan

>  <Num_H_Atoms_ProtBoundConf>  (337) 
nan

>  <Num_Resolved_Atoms>  (337) 
nan

>  <Num_Not_Resolved_Atoms>  (337) 
nan

$$$$
CHEMBL3696237
     RDKit          3D

  0  0  0  0  0  0  0  0  0  0999 V3000
M  V30 BEGIN CTAB
M  V30 COUNTS 38 40 0 0 0
M  V30 BEGIN ATOM
M  V30 1 O 0.398719 -2.196343 2.379822 0
M  V30 2 C 0.680266 -1.187952 3.009654 0
M  V30 3 C 1.969751 -0.389911 2.938761 0
M  V30 4 C 1.961070 0.451488 1.692992 0
M  V30 5 N 1.270940 0.001103 0.650935 0
M  V30 6 C 1.150905 0.639394 -0.521646 0
M  V30 7 N 0.349086 0.000810 -1.514339 0
M  V30 8 C 0.073154 -1.411050 -1.304580 0
M  V30 9 C 0.607339 -2.129497 -2.518058 0
M  V30 10 O 1.003116 -1.253312 -3.549102 0
M  V30 11 C -0.003284 -0.347507 -3.848014 0
M  V30 12 C -0.246133 0.621113 -2.700050 0
M  V30 13 C 1.818003 1.861015 -0.613144 0
M  V30 14 C 2.533136 2.298565 0.502764 0
M  V30 15 O 3.124054 3.415348 0.371325 0
M  V30 16 N 2.624603 1.612888 1.679207 0
M  V30 17 N -0.289073 -0.639964 3.951883 0
M  V30 18 C -1.597981 -1.204012 4.235517 0
M  V30 19 C -1.770213 -2.436167 3.773220 0
M  V30 20 C -2.975001 -2.917178 4.012850 0
M  V30 21 S -4.013072 -1.650752 4.935170 0
M  V30 22 C -2.552738 -0.519049 4.879153 0
M  V30 23 H 2.808335 -1.126316 2.789626 0
M  V30 24 H 2.154224 0.191317 3.837147 0
M  V30 25 H -1.025970 -1.580338 -1.181601 0
M  V30 26 H 0.577560 -1.774169 -0.367394 0
M  V30 27 H -0.079250 -2.909678 -2.903291 0
M  V30 28 H 1.571969 -2.628642 -2.182070 0
M  V30 29 H 0.273837 0.166044 -4.785559 0
M  V30 30 H -0.931848 -0.972253 -4.011333 0
M  V30 31 H -1.350286 0.638117 -2.509791 0
M  V30 32 H 0.083756 1.642269 -2.885298 0
M  V30 33 H 1.726359 2.362370 -1.540999 0
M  V30 34 H 3.168595 1.973580 2.472529 0
M  V30 35 H -0.016166 0.233562 4.458038 0
M  V30 36 H -1.378241 -3.294280 3.265575 0
M  V30 37 H -3.760898 -3.891991 3.892180 0
M  V30 38 H -2.463903 0.530245 5.290101 0
M  V30 END ATOM
M  V30 BEGIN BOND
M  V30 1 2 1 2
M  V30 2 1 2 3
M  V30 3 1 3 4
M  V30 4 2 4 5
M  V30 5 1 5 6
M  V30 6 1 6 7
M  V30 7 1 7 8
M  V30 8 1 8 9
M  V30 9 1 9 10
M  V30 10 1 10 11
M  V30 11 1 11 12
M  V30 12 2 6 13
M  V30 13 1 13 14
M  V30 14 2 14 15
M  V30 15 1 14 16
M  V30 16 1 2 17
M  V30 17 1 17 18
M  V30 18 1 18 19
M  V30 19 2 19 20
M  V30 20 1 20 21
M  V30 21 1 21 22
M  V30 22 1 16 4
M  V30 23 2 22 18
M  V30 24 1 12 7
M  V30 25 1 3 23
M  V30 26 1 3 24
M  V30 27 1 8 25
M  V30 28 1 8 26
M  V30 29 1 9 27
M  V30 30 1 9 28
M  V30 31 1 11 29
M  V30 32 1 11 30
M  V30 33 1 12 31
M  V30 34 1 12 32
M  V30 35 1 13 33
M  V30 36 1 16 34
M  V30 37 1 17 35
M  V30 38 1 19 36
M  V30 39 1 20 37
M  V30 40 1 22 38
M  V30 END BOND
M  V30 END CTAB
M  END
>  <Dataset>  (338) 
ChEMBL_Kinases

>  <Ligand_Instance>  (338) 
nan

>  <PDB_ID>  (338) 
nan

>  <Standardized_SMILES>  (338) 
O=C(Cc1nc(N2CCOCC2)cc(=O)[nH]1)Nc1ccsc1

>  <Name>  (338) 
nan

>  <Pocket>  (338) 
nan

>  <ATP_Site>  (338) 
nan

>  <Peripheral>  (338) 
nan

>  <Num_H_Atoms_ProtBoundConf>  (338) 
nan

>  <Num_Resolved_Atoms>  (338) 
nan

>  <Num_Not_Resolved_Atoms>  (338) 
nan

$$$$
CHEMBL3696236
     RDKit          3D

  0  0  0  0  0  0  0  0  0  0999 V3000
M  V30 BEGIN CTAB
M  V30 COUNTS 41 43 0 0 0
M  V30 BEGIN ATOM
M  V30 1 O -0.837539 -3.582759 2.991236 0
M  V30 2 C -0.303347 -2.555154 2.491316 0
M  V30 3 C 1.148076 -2.691034 2.374373 0
M  V30 4 C 1.896133 -1.391678 2.394165 0
M  V30 5 N 1.901280 -0.792122 1.171272 0
M  V30 6 C 2.527725 0.378146 0.903180 0
M  V30 7 N 2.375477 0.817695 -0.465976 0
M  V30 8 C 1.216735 0.330867 -1.235538 0
M  V30 9 C 1.758712 -0.603444 -2.272434 0
M  V30 10 O 3.032281 -0.174396 -2.681069 0
M  V30 11 C 3.058823 1.233442 -2.712598 0
M  V30 12 C 3.225307 1.685119 -1.253160 0
M  V30 13 C 3.184072 0.965612 1.945658 0
M  V30 14 C 3.175709 0.358094 3.178872 0
M  V30 15 O 3.782710 0.917087 4.117348 0
M  V30 16 N 2.548573 -0.794130 3.406733 0
M  V30 17 N -1.080129 -1.430446 2.103818 0
M  V30 18 C -2.487505 -1.258056 2.167247 0
M  V30 19 C -3.390619 -0.834304 3.114780 0
M  V30 20 C -4.739371 -0.786311 2.825296 0
M  V30 21 C -5.240482 -1.157708 1.584426 0
M  V30 22 F -6.592359 -1.081927 1.391129 0
M  V30 23 C -4.351404 -1.588599 0.614365 0
M  V30 24 C -2.989636 -1.636163 0.908516 0
M  V30 25 F -2.311966 -2.083400 -0.198789 0
M  V30 26 H 1.383744 -3.191011 1.405053 0
M  V30 27 H 1.567209 -3.346239 3.167449 0
M  V30 28 H 0.561040 -0.182275 -0.517049 0
M  V30 29 H 0.623824 1.182197 -1.637579 0
M  V30 30 H 1.905098 -1.614551 -1.824506 0
M  V30 31 H 1.130467 -0.721743 -3.172508 0
M  V30 32 H 2.112265 1.566635 -3.154951 0
M  V30 33 H 3.900610 1.596823 -3.350378 0
M  V30 34 H 2.892860 2.734875 -1.226419 0
M  V30 35 H 4.307771 1.565487 -1.035512 0
M  V30 36 H 3.670085 1.886616 1.680647 0
M  V30 37 H 2.496393 -1.310943 4.293283 0
M  V30 38 H -0.481477 -0.628950 1.722141 0
M  V30 39 H -2.849192 -0.589993 3.997444 0
M  V30 40 H -5.340591 -0.433889 3.654744 0
M  V30 41 H -4.834527 -1.853522 -0.310942 0
M  V30 END ATOM
M  V30 BEGIN BOND
M  V30 1 2 1 2
M  V30 2 1 2 3
M  V30 3 1 3 4
M  V30 4 2 4 5
M  V30 5 1 5 6
M  V30 6 1 6 7
M  V30 7 1 7 8
M  V30 8 1 8 9
M  V30 9 1 9 10
M  V30 10 1 10 11
M  V30 11 1 11 12
M  V30 12 2 6 13
M  V30 13 1 13 14
M  V30 14 2 14 15
M  V30 15 1 14 16
M  V30 16 1 2 17
M  V30 17 1 17 18
M  V30 18 2 18 19
M  V30 19 1 19 20
M  V30 20 2 20 21
M  V30 21 1 21 22
M  V30 22 1 21 23
M  V30 23 2 23 24
M  V30 24 1 24 25
M  V30 25 1 16 4
M  V30 26 1 24 18
M  V30 27 1 12 7
M  V30 28 1 3 26
M  V30 29 1 3 27
M  V30 30 1 8 28
M  V30 31 1 8 29
M  V30 32 1 9 30
M  V30 33 1 9 31
M  V30 34 1 11 32
M  V30 35 1 11 33
M  V30 36 1 12 34
M  V30 37 1 12 35
M  V30 38 1 13 36
M  V30 39 1 16 37
M  V30 40 1 17 38
M  V30 41 1 19 39
M  V30 42 1 20 40
M  V30 43 1 23 41
M  V30 END BOND
M  V30 END CTAB
M  END
>  <Dataset>  (339) 
ChEMBL_Kinases

>  <Ligand_Instance>  (339) 
nan

>  <PDB_ID>  (339) 
nan

>  <Standardized_SMILES>  (339) 
O=C(Cc1nc(N2CCOCC2)cc(=O)[nH]1)Nc1ccc(F)cc1F

>  <Name>  (339) 
nan

>  <Pocket>  (339) 
nan

>  <ATP_Site>  (339) 
nan

>  <Peripheral>  (339) 
nan

>  <Num_H_Atoms_ProtBoundConf>  (339) 
nan

>  <Num_Resolved_Atoms>  (339) 
nan

>  <Num_Not_Resolved_Atoms>  (339) 
nan

$$$$
CHEMBL3694812
     RDKit          3D

  0  0  0  0  0  0  0  0  0  0999 V3000
M  V30 BEGIN CTAB
M  V30 COUNTS 47 50 0 0 0
M  V30 BEGIN ATOM
M  V30 1 C 0.022552 -6.138170 1.334860 0
M  V30 2 N 1.341063 -5.926694 1.909395 0
M  V30 3 C 1.830325 -4.638859 2.336799 0
M  V30 4 N 1.034434 -3.569571 2.203099 0
M  V30 5 C 1.398459 -2.316799 2.576471 0
M  V30 6 N 0.441971 -1.291311 2.360477 0
M  V30 7 C 0.361651 -0.392919 1.260643 0
M  V30 8 C 1.304901 -0.406029 0.259154 0
M  V30 9 C 1.311990 0.436264 -0.831418 0
M  V30 10 C 0.271146 1.345576 -0.877096 0
M  V30 11 C -0.714237 1.400969 0.114839 0
M  V30 12 C -0.661896 0.528312 1.180597 0
M  V30 13 O -1.655612 0.599895 2.160280 0
M  V30 14 C -1.573175 1.404493 3.312280 0
M  V30 15 C -1.698549 2.470805 -0.205262 0
M  V30 16 N -1.216644 3.036387 -1.441578 0
M  V30 17 C -1.818867 4.129169 -2.179515 0
M  V30 18 C -3.266453 3.780410 -2.563799 0
M  V30 19 O -3.694177 4.978203 -2.051659 0
M  V30 20 C -2.472527 5.210534 -1.397561 0
M  V30 21 C -0.031606 2.376486 -1.872342 0
M  V30 22 O 0.658223 2.596144 -2.896632 0
M  V30 23 N 2.647391 -2.184300 3.110303 0
M  V30 24 C 3.481288 -3.232883 3.262610 0
M  V30 25 C 3.097339 -4.490299 2.880635 0
M  V30 26 C 3.986338 -5.659322 3.035057 0
M  V30 27 F 4.275754 -6.289840 1.857225 0
M  V30 28 F 5.185257 -5.247522 3.588665 0
M  V30 29 F 3.385846 -6.528047 3.932080 0
M  V30 30 H -0.579019 -5.213106 1.480348 0
M  V30 31 H 0.071318 -6.431163 0.261621 0
M  V30 32 H -0.509655 -6.966418 1.881716 0
M  V30 33 H 1.982778 -6.735013 2.028148 0
M  V30 34 H -0.260428 -1.232885 3.127232 0
M  V30 35 H 2.109158 -1.154297 0.353763 0
M  V30 36 H 2.068511 0.412332 -1.615519 0
M  V30 37 H -1.140308 0.767842 4.121691 0
M  V30 38 H -0.919714 2.284036 3.173088 0
M  V30 39 H -2.588729 1.675437 3.661126 0
M  V30 40 H -1.611323 3.296077 0.553577 0
M  V30 41 H -2.724472 2.106381 -0.223642 0
M  V30 42 H -1.293410 4.420345 -3.087657 0
M  V30 43 H -3.660976 2.946171 -1.953991 0
M  V30 44 H -3.403344 3.612248 -3.658383 0
M  V30 45 H -2.128875 6.231193 -1.736728 0
M  V30 46 H -2.493090 5.083416 -0.293387 0
M  V30 47 H 4.439483 -3.027945 3.689988 0
M  V30 END ATOM
M  V30 BEGIN BOND
M  V30 1 1 1 2
M  V30 2 1 2 3
M  V30 3 2 3 4
M  V30 4 1 4 5
M  V30 5 1 5 6
M  V30 6 1 6 7
M  V30 7 2 7 8
M  V30 8 1 8 9
M  V30 9 2 9 10
M  V30 10 1 10 11
M  V30 11 2 11 12
M  V30 12 1 12 13
M  V30 13 1 13 14
M  V30 14 1 11 15
M  V30 15 1 15 16
M  V30 16 1 16 17
M  V30 17 1 17 18
M  V30 18 1 18 19
M  V30 19 1 19 20
M  V30 20 1 16 21
M  V30 21 2 21 22
M  V30 22 2 5 23
M  V30 23 1 23 24
M  V30 24 2 24 25
M  V30 25 1 25 26
M  V30 26 1 26 27
M  V30 27 1 26 28
M  V30 28 1 26 29
M  V30 29 1 25 3
M  V30 30 1 12 7
M  V30 31 1 20 17
M  V30 32 1 21 10
M  V30 33 1 1 30
M  V30 34 1 1 31
M  V30 35 1 1 32
M  V30 36 1 2 33
M  V30 37 1 6 34
M  V30 38 1 8 35
M  V30 39 1 9 36
M  V30 40 1 14 37
M  V30 41 1 14 38
M  V30 42 1 14 39
M  V30 43 1 15 40
M  V30 44 1 15 41
M  V30 45 1 17 42
M  V30 46 1 18 43
M  V30 47 1 18 44
M  V30 48 1 20 45
M  V30 49 1 20 46
M  V30 50 1 24 47
M  V30 END BOND
M  V30 END CTAB
M  END
>  <Dataset>  (340) 
ChEMBL_Kinases

>  <Ligand_Instance>  (340) 
nan

>  <PDB_ID>  (340) 
nan

>  <Standardized_SMILES>  (340) 
CNc1nc(Nc2ccc3c(c2OC)CN(C2COC2)C3=O)ncc1C(F)(F)F

>  <Name>  (340) 
nan

>  <Pocket>  (340) 
nan

>  <ATP_Site>  (340) 
nan

>  <Peripheral>  (340) 
nan

>  <Num_H_Atoms_ProtBoundConf>  (340) 
nan

>  <Num_Resolved_Atoms>  (340) 
nan

>  <Num_Not_Resolved_Atoms>  (340) 
nan

$$$$
CHEMBL3694813
     RDKit          3D

  0  0  0  0  0  0  0  0  0  0999 V3000
M  V30 BEGIN CTAB
M  V30 COUNTS 42 44 0 0 0
M  V30 BEGIN ATOM
M  V30 1 C 1.786212 -3.715970 2.102893 0
M  V30 2 N 0.820799 -4.375102 1.244914 0
M  V30 3 C 0.468385 -3.696883 0.017278 0
M  V30 4 N 1.004229 -2.506718 -0.317741 0
M  V30 5 C 0.713189 -1.821998 -1.443226 0
M  V30 6 N 1.504238 -0.635645 -1.403559 0
M  V30 7 C 1.131599 0.338838 -0.415842 0
M  V30 8 C 0.041239 0.187265 0.411684 0
M  V30 9 C -0.302701 1.106400 1.362201 0
M  V30 10 C 0.445063 2.234441 1.526510 0
M  V30 11 C 1.566300 2.447321 0.713913 0
M  V30 12 C 1.888056 1.485952 -0.248955 0
M  V30 13 O 2.980686 1.616854 -1.091985 0
M  V30 14 C 3.846418 2.735574 -1.034673 0
M  V30 15 C -0.090916 3.046048 2.640605 0
M  V30 16 O 0.335008 4.163947 3.090203 0
M  V30 17 N -1.192654 2.329029 3.123653 0
M  V30 18 C -2.025188 2.668419 4.286765 0
M  V30 19 C -1.436781 1.142968 2.324515 0
M  V30 20 N -0.188497 -2.362210 -2.315217 0
M  V30 21 C -0.763433 -3.550635 -2.043702 0
M  V30 22 C -0.436151 -4.216894 -0.880223 0
M  V30 23 C -1.047450 -5.515101 -0.558752 0
M  V30 24 F -1.765251 -5.463658 0.646376 0
M  V30 25 F -1.952056 -5.854383 -1.538917 0
M  V30 26 F -0.095222 -6.531925 -0.466786 0
M  V30 27 H 2.743182 -4.267462 2.000652 0
M  V30 28 H 1.483196 -3.821919 3.163186 0
M  V30 29 H 1.894055 -2.644126 1.838126 0
M  V30 30 H 0.370271 -5.290398 1.447548 0
M  V30 31 H 2.310936 -0.444828 -2.032636 0
M  V30 32 H -0.556462 -0.720323 0.276318 0
M  V30 33 H 2.187188 3.333047 0.813153 0
M  V30 34 H 4.526727 2.539836 -0.161088 0
M  V30 35 H 4.441005 2.769146 -1.966798 0
M  V30 36 H 3.250367 3.669569 -0.889937 0
M  V30 37 H -2.589673 1.792181 4.653416 0
M  V30 38 H -1.377120 3.014150 5.139535 0
M  V30 39 H -2.708582 3.471654 3.973423 0
M  V30 40 H -2.419117 1.182700 1.808111 0
M  V30 41 H -1.467199 0.274338 3.009471 0
M  V30 42 H -1.459000 -3.906048 -2.772699 0
M  V30 END ATOM
M  V30 BEGIN BOND
M  V30 1 1 1 2
M  V30 2 1 2 3
M  V30 3 2 3 4
M  V30 4 1 4 5
M  V30 5 1 5 6
M  V30 6 1 6 7
M  V30 7 2 7 8
M  V30 8 1 8 9
M  V30 9 2 9 10
M  V30 10 1 10 11
M  V30 11 2 11 12
M  V30 12 1 12 13
M  V30 13 1 13 14
M  V30 14 1 10 15
M  V30 15 2 15 16
M  V30 16 1 15 17
M  V30 17 1 17 18
M  V30 18 1 17 19
M  V30 19 2 5 20
M  V30 20 1 20 21
M  V30 21 2 21 22
M  V30 22 1 22 23
M  V30 23 1 23 24
M  V30 24 1 23 25
M  V30 25 1 23 26
M  V30 26 1 22 3
M  V30 27 1 12 7
M  V30 28 1 19 9
M  V30 29 1 1 27
M  V30 30 1 1 28
M  V30 31 1 1 29
M  V30 32 1 2 30
M  V30 33 1 6 31
M  V30 34 1 8 32
M  V30 35 1 11 33
M  V30 36 1 14 34
M  V30 37 1 14 35
M  V30 38 1 14 36
M  V30 39 1 18 37
M  V30 40 1 18 38
M  V30 41 1 18 39
M  V30 42 1 19 40
M  V30 43 1 19 41
M  V30 44 1 21 42
M  V30 END BOND
M  V30 END CTAB
M  END
>  <Dataset>  (341) 
ChEMBL_Kinases

>  <Ligand_Instance>  (341) 
nan

>  <PDB_ID>  (341) 
nan

>  <Standardized_SMILES>  (341) 
CNc1nc(Nc2cc3c(cc2OC)C(=O)N(C)C3)ncc1C(F)(F)F

>  <Name>  (341) 
nan

>  <Pocket>  (341) 
nan

>  <ATP_Site>  (341) 
nan

>  <Peripheral>  (341) 
nan

>  <Num_H_Atoms_ProtBoundConf>  (341) 
nan

>  <Num_Resolved_Atoms>  (341) 
nan

>  <Num_Not_Resolved_Atoms>  (341) 
nan

$$$$
CHEMBL3694814
     RDKit          3D

  0  0  0  0  0  0  0  0  0  0999 V3000
M  V30 BEGIN CTAB
M  V30 COUNTS 52 55 0 0 0
M  V30 BEGIN ATOM
M  V30 1 C 5.314585 -4.375245 0.027732 0
M  V30 2 N 4.155596 -5.092549 0.554898 0
M  V30 3 C 3.024996 -4.778947 1.350292 0
M  V30 4 N 2.953251 -3.504584 1.753834 0
M  V30 5 C 1.924752 -3.070906 2.518913 0
M  V30 6 N 1.493181 -1.873761 3.126631 0
M  V30 7 C 0.902693 -0.822319 2.377790 0
M  V30 8 C 0.890422 -0.933726 1.000546 0
M  V30 9 C 0.356832 0.064215 0.214206 0
M  V30 10 C -0.171336 1.187378 0.861026 0
M  V30 11 C -0.187017 1.350626 2.230588 0
M  V30 12 C 0.368562 0.305287 2.941709 0
M  V30 13 Cl 0.420247 0.376163 4.691452 0
M  V30 14 C -0.646502 2.067614 -0.085963 0
M  V30 15 C -1.332137 3.363536 -0.040161 0
M  V30 16 O -0.491849 4.302763 0.044525 0
M  V30 17 N -2.774209 3.316123 -0.097298 0
M  V30 18 C -3.497467 2.061208 -0.208313 0
M  V30 19 C -4.963085 2.357304 -0.005288 0
M  V30 20 O -5.089563 3.486913 0.799391 0
M  V30 21 C -4.751011 4.636545 0.070733 0
M  V30 22 C -3.223740 4.691364 -0.011162 0
M  V30 23 C -0.419940 1.506657 -1.350949 0
M  V30 24 N 0.171316 0.331681 -1.087022 0
M  V30 25 C 0.599579 -0.627242 -2.114249 0
M  V30 26 N 0.986479 -3.986976 2.849947 0
M  V30 27 C 1.041786 -5.268644 2.455766 0
M  V30 28 C 2.081017 -5.723063 1.676370 0
M  V30 29 C 2.155030 -7.121997 1.190853 0
M  V30 30 F 2.082468 -7.145685 -0.214620 0
M  V30 31 F 3.307481 -7.769183 1.608371 0
M  V30 32 F 1.106203 -7.888358 1.653893 0
M  V30 33 H 5.282927 -3.324620 0.392822 0
M  V30 34 H 6.275073 -4.858604 0.347172 0
M  V30 35 H 5.307965 -4.451178 -1.082148 0
M  V30 36 H 4.237692 -6.092913 0.218784 0
M  V30 37 H 1.605511 -1.752226 4.153044 0
M  V30 38 H 1.271548 -1.758952 0.419441 0
M  V30 39 H -0.609243 2.242824 2.689803 0
M  V30 40 H -3.316236 1.672189 -1.248140 0
M  V30 41 H -3.159836 1.297832 0.511281 0
M  V30 42 H -5.498749 2.496968 -0.976929 0
M  V30 43 H -5.445651 1.496256 0.507399 0
M  V30 44 H -5.234992 4.665828 -0.916061 0
M  V30 45 H -5.072913 5.517582 0.670918 0
M  V30 46 H -2.890395 5.102660 0.978814 0
M  V30 47 H -2.935666 5.331139 -0.839687 0
M  V30 48 H -0.636859 1.864111 -2.333286 0
M  V30 49 H 0.527115 -0.235182 -3.127784 0
M  V30 50 H 1.631309 -0.960348 -1.883033 0
M  V30 51 H -0.076401 -1.517070 -1.976807 0
M  V30 52 H 0.313518 -6.055031 2.693643 0
M  V30 END ATOM
M  V30 BEGIN BOND
M  V30 1 1 1 2
M  V30 2 1 2 3
M  V30 3 2 3 4
M  V30 4 1 4 5
M  V30 5 1 5 6
M  V30 6 1 6 7
M  V30 7 2 7 8
M  V30 8 1 8 9
M  V30 9 2 9 10
M  V30 10 1 10 11
M  V30 11 2 11 12
M  V30 12 1 12 13
M  V30 13 1 10 14
M  V30 14 1 14 15
M  V30 15 2 15 16
M  V30 16 1 15 17
M  V30 17 1 17 18
M  V30 18 1 18 19
M  V30 19 1 19 20
M  V30 20 1 20 21
M  V30 21 1 21 22
M  V30 22 2 14 23
M  V30 23 1 23 24
M  V30 24 1 24 25
M  V30 25 2 5 26
M  V30 26 1 26 27
M  V30 27 2 27 28
M  V30 28 1 28 29
M  V30 29 1 29 30
M  V30 30 1 29 31
M  V30 31 1 29 32
M  V30 32 1 28 3
M  V30 33 1 12 7
M  V30 34 1 22 17
M  V30 35 1 24 9
M  V30 36 1 1 33
M  V30 37 1 1 34
M  V30 38 1 1 35
M  V30 39 1 2 36
M  V30 40 1 6 37
M  V30 41 1 8 38
M  V30 42 1 11 39
M  V30 43 1 18 40
M  V30 44 1 18 41
M  V30 45 1 19 42
M  V30 46 1 19 43
M  V30 47 1 21 44
M  V30 48 1 21 45
M  V30 49 1 22 46
M  V30 50 1 22 47
M  V30 51 1 23 48
M  V30 52 1 25 49
M  V30 53 1 25 50
M  V30 54 1 25 51
M  V30 55 1 27 52
M  V30 END BOND
M  V30 END CTAB
M  END
>  <Dataset>  (342) 
ChEMBL_Kinases

>  <Ligand_Instance>  (342) 
nan

>  <PDB_ID>  (342) 
nan

>  <Standardized_SMILES>  (342) 
CNc1nc(Nc2cc3c(cc2Cl)c(C(=O)N2CCOCC2)cn3C)ncc1C(F)(F)F

>  <Name>  (342) 
nan

>  <Pocket>  (342) 
nan

>  <ATP_Site>  (342) 
nan

>  <Peripheral>  (342) 
nan

>  <Num_H_Atoms_ProtBoundConf>  (342) 
nan

>  <Num_Resolved_Atoms>  (342) 
nan

>  <Num_Not_Resolved_Atoms>  (342) 
nan

$$$$
CHEMBL3694815
     RDKit          3D

  0  0  0  0  0  0  0  0  0  0999 V3000
M  V30 BEGIN CTAB
M  V30 COUNTS 52 54 0 0 0
M  V30 BEGIN ATOM
M  V30 1 C 0.048400 -2.602592 5.263086 0
M  V30 2 N 0.755761 -3.714985 4.661099 0
M  V30 3 C 1.720266 -3.464633 3.616903 0
M  V30 4 N 1.963383 -2.209473 3.205709 0
M  V30 5 C 2.828980 -1.854297 2.251387 0
M  V30 6 N 2.970918 -0.470767 1.938895 0
M  V30 7 C 2.086826 0.170775 0.993872 0
M  V30 8 C 1.080468 -0.584433 0.407228 0
M  V30 9 C 0.251680 0.071058 -0.484079 0
M  V30 10 C 0.373913 1.405403 -0.809989 0
M  V30 11 C 1.384741 2.159185 -0.220183 0
M  V30 12 C 2.216467 1.514100 0.670618 0
M  V30 13 O 3.249640 2.163376 1.312547 0
M  V30 14 C 3.576049 3.527420 1.145163 0
M  V30 15 C -0.692424 1.689465 -1.762467 0
M  V30 16 O -0.921484 2.794986 -2.301391 0
M  V30 17 N -1.457908 0.516914 -2.006655 0
M  V30 18 C -2.607534 0.260658 -2.828720 0
M  V30 19 C -3.910727 0.469394 -2.094735 0
M  V30 20 C -4.201687 1.873334 -1.707425 0
M  V30 21 C -5.023893 0.008126 -3.046842 0
M  V30 22 O -4.002213 -0.374660 -0.983393 0
M  V30 23 C -0.874855 -0.572886 -1.211676 0
M  V30 24 N 3.519620 -2.868056 1.650809 0
M  V30 25 C 3.346465 -4.144833 1.991456 0
M  V30 26 C 2.435691 -4.463487 2.988647 0
M  V30 27 C 2.195037 -5.883347 3.412131 0
M  V30 28 F 2.502826 -5.981328 4.762803 0
M  V30 29 F 0.861992 -6.194342 3.242806 0
M  V30 30 F 2.979636 -6.749413 2.682155 0
M  V30 31 H 0.082221 -1.742293 4.532237 0
M  V30 32 H -1.020801 -2.882429 5.413669 0
M  V30 33 H 0.524300 -2.355922 6.211430 0
M  V30 34 H 0.596182 -4.689525 4.952353 0
M  V30 35 H 3.708488 0.102939 2.378529 0
M  V30 36 H 0.997764 -1.626688 0.672829 0
M  V30 37 H 1.488059 3.186052 -0.463812 0
M  V30 38 H 2.630726 4.086953 0.954521 0
M  V30 39 H 4.071533 3.893620 2.082146 0
M  V30 40 H 4.257505 3.701703 0.268678 0
M  V30 41 H -2.616652 -0.772017 -3.228257 0
M  V30 42 H -2.530003 0.922619 -3.714917 0
M  V30 43 H -3.406585 2.430022 -1.215021 0
M  V30 44 H -5.051771 1.852965 -0.966015 0
M  V30 45 H -4.651659 2.420520 -2.585310 0
M  V30 46 H -5.973230 -0.153293 -2.500183 0
M  V30 47 H -4.721386 -0.972731 -3.465757 0
M  V30 48 H -5.132844 0.711581 -3.894084 0
M  V30 49 H -4.389833 -1.250777 -1.204066 0
M  V30 50 H -1.623128 -1.036672 -0.544836 0
M  V30 51 H -0.441046 -1.286749 -1.935766 0
M  V30 52 H 3.910469 -4.927083 1.495564 0
M  V30 END ATOM
M  V30 BEGIN BOND
M  V30 1 1 1 2
M  V30 2 1 2 3
M  V30 3 2 3 4
M  V30 4 1 4 5
M  V30 5 1 5 6
M  V30 6 1 6 7
M  V30 7 2 7 8
M  V30 8 1 8 9
M  V30 9 2 9 10
M  V30 10 1 10 11
M  V30 11 2 11 12
M  V30 12 1 12 13
M  V30 13 1 13 14
M  V30 14 1 10 15
M  V30 15 2 15 16
M  V30 16 1 15 17
M  V30 17 1 17 18
M  V30 18 1 18 19
M  V30 19 1 19 20
M  V30 20 1 19 21
M  V30 21 1 19 22
M  V30 22 1 17 23
M  V30 23 2 5 24
M  V30 24 1 24 25
M  V30 25 2 25 26
M  V30 26 1 26 27
M  V30 27 1 27 28
M  V30 28 1 27 29
M  V30 29 1 27 30
M  V30 30 1 26 3
M  V30 31 1 12 7
M  V30 32 1 23 9
M  V30 33 1 1 31
M  V30 34 1 1 32
M  V30 35 1 1 33
M  V30 36 1 2 34
M  V30 37 1 6 35
M  V30 38 1 8 36
M  V30 39 1 11 37
M  V30 40 1 14 38
M  V30 41 1 14 39
M  V30 42 1 14 40
M  V30 43 1 18 41
M  V30 44 1 18 42
M  V30 45 1 20 43
M  V30 46 1 20 44
M  V30 47 1 20 45
M  V30 48 1 21 46
M  V30 49 1 21 47
M  V30 50 1 21 48
M  V30 51 1 22 49
M  V30 52 1 23 50
M  V30 53 1 23 51
M  V30 54 1 25 52
M  V30 END BOND
M  V30 END CTAB
M  END
>  <Dataset>  (343) 
ChEMBL_Kinases

>  <Ligand_Instance>  (343) 
nan

>  <PDB_ID>  (343) 
nan

>  <Standardized_SMILES>  (343) 
CNc1nc(Nc2cc3c(cc2OC)C(=O)N(CC(C)(C)O)C3)ncc1C(F)(F)F

>  <Name>  (343) 
nan

>  <Pocket>  (343) 
nan

>  <ATP_Site>  (343) 
nan

>  <Peripheral>  (343) 
nan

>  <Num_H_Atoms_ProtBoundConf>  (343) 
nan

>  <Num_Resolved_Atoms>  (343) 
nan

>  <Num_Not_Resolved_Atoms>  (343) 
nan

$$$$
CHEMBL3694816
     RDKit          3D

  0  0  0  0  0  0  0  0  0  0999 V3000
M  V30 BEGIN CTAB
M  V30 COUNTS 47 50 0 0 0
M  V30 BEGIN ATOM
M  V30 1 C -0.211164 -5.510256 -0.294024 0
M  V30 2 N 0.115645 -4.622903 0.802599 0
M  V30 3 C 0.437125 -3.771633 1.828386 0
M  V30 4 N 1.203756 -2.677960 1.942485 0
M  V30 5 C 1.377501 -1.986421 3.056944 0
M  V30 6 N 2.252858 -0.896811 2.795818 0
M  V30 7 C 1.786040 0.154813 1.933601 0
M  V30 8 C 0.541077 0.064806 1.356748 0
M  V30 9 C 0.041410 1.046181 0.494022 0
M  V30 10 C 0.885679 2.109094 0.264241 0
M  V30 11 C 2.144096 2.282300 0.796865 0
M  V30 12 C 2.582503 1.270985 1.647194 0
M  V30 13 O 3.833502 1.343405 2.238144 0
M  V30 14 C 4.661949 2.453102 1.969163 0
M  V30 15 C 0.212868 3.038770 -0.655192 0
M  V30 16 O 0.616412 4.142839 -1.134625 0
M  V30 17 N -1.050816 2.447015 -0.932205 0
M  V30 18 C -2.115871 2.950856 -1.784847 0
M  V30 19 C -2.751243 1.860458 -2.621981 0
M  V30 20 O -3.456368 1.468029 -1.489454 0
M  V30 21 C -3.457920 2.820373 -1.112178 0
M  V30 22 C -1.237843 1.179734 -0.248038 0
M  V30 23 N 0.727712 -2.438095 4.129730 0
M  V30 24 C -0.062318 -3.510057 4.152357 0
M  V30 25 C -0.225663 -4.217101 2.962713 0
M  V30 26 C -1.129583 -5.398869 3.061773 0
M  V30 27 F -0.494066 -6.576131 2.713713 0
M  V30 28 F -1.615257 -5.552040 4.341816 0
M  V30 29 F -2.236874 -5.182471 2.254528 0
M  V30 30 H -1.051363 -6.214767 0.057101 0
M  V30 31 H 0.618828 -6.138506 -0.660094 0
M  V30 32 H -0.676953 -5.015227 -1.175074 0
M  V30 33 H 0.727071 -4.111666 0.077178 0
M  V30 34 H 3.190253 -0.881149 3.224534 0
M  V30 35 H -0.133234 -0.764587 1.528221 0
M  V30 36 H 2.788597 3.101247 0.618687 0
M  V30 37 H 4.883429 2.498050 0.868317 0
M  V30 38 H 5.624358 2.394882 2.525708 0
M  V30 39 H 4.216789 3.423776 2.258013 0
M  V30 40 H -1.942440 3.902717 -2.286481 0
M  V30 41 H -2.004676 1.084790 -2.880572 0
M  V30 42 H -3.359342 2.237749 -3.455936 0
M  V30 43 H -3.448369 2.984549 -0.017331 0
M  V30 44 H -4.278321 3.314971 -1.667432 0
M  V30 45 H -2.053741 1.303805 0.465553 0
M  V30 46 H -1.395601 0.345937 -0.959374 0
M  V30 47 H -0.490345 -3.702857 5.130281 0
M  V30 END ATOM
M  V30 BEGIN BOND
M  V30 1 1 1 2
M  V30 2 1 2 3
M  V30 3 2 3 4
M  V30 4 1 4 5
M  V30 5 1 5 6
M  V30 6 1 6 7
M  V30 7 2 7 8
M  V30 8 1 8 9
M  V30 9 2 9 10
M  V30 10 1 10 11
M  V30 11 2 11 12
M  V30 12 1 12 13
M  V30 13 1 13 14
M  V30 14 1 10 15
M  V30 15 2 15 16
M  V30 16 1 15 17
M  V30 17 1 17 18
M  V30 18 1 18 19
M  V30 19 1 19 20
M  V30 20 1 20 21
M  V30 21 1 17 22
M  V30 22 2 5 23
M  V30 23 1 23 24
M  V30 24 2 24 25
M  V30 25 1 25 26
M  V30 26 1 26 27
M  V30 27 1 26 28
M  V30 28 1 26 29
M  V30 29 1 25 3
M  V30 30 1 12 7
M  V30 31 1 21 18
M  V30 32 1 22 9
M  V30 33 1 1 30
M  V30 34 1 1 31
M  V30 35 1 1 32
M  V30 36 1 2 33
M  V30 37 1 6 34
M  V30 38 1 8 35
M  V30 39 1 11 36
M  V30 40 1 14 37
M  V30 41 1 14 38
M  V30 42 1 14 39
M  V30 43 1 18 40
M  V30 44 1 19 41
M  V30 45 1 19 42
M  V30 46 1 21 43
M  V30 47 1 21 44
M  V30 48 1 22 45
M  V30 49 1 22 46
M  V30 50 1 24 47
M  V30 END BOND
M  V30 END CTAB
M  END
>  <Dataset>  (344) 
ChEMBL_Kinases

>  <Ligand_Instance>  (344) 
nan

>  <PDB_ID>  (344) 
nan

>  <Standardized_SMILES>  (344) 
CNc1nc(Nc2cc3c(cc2OC)C(=O)N(C2COC2)C3)ncc1C(F)(F)F

>  <Name>  (344) 
nan

>  <Pocket>  (344) 
nan

>  <ATP_Site>  (344) 
nan

>  <Peripheral>  (344) 
nan

>  <Num_H_Atoms_ProtBoundConf>  (344) 
nan

>  <Num_Resolved_Atoms>  (344) 
nan

>  <Num_Not_Resolved_Atoms>  (344) 
nan

$$$$
CHEMBL3694817
     RDKit          3D

  0  0  0  0  0  0  0  0  0  0999 V3000
M  V30 BEGIN CTAB
M  V30 COUNTS 50 53 0 0 0
M  V30 BEGIN ATOM
M  V30 1 C 0.331825 -3.059359 2.810316 0
M  V30 2 C 1.447144 -4.034713 3.167656 0
M  V30 3 N 1.821769 -4.704784 1.918764 0
M  V30 4 C 2.294629 -3.889031 0.826751 0
M  V30 5 N 2.380864 -2.551674 0.954085 0
M  V30 6 C 2.802851 -1.726392 -0.016380 0
M  V30 7 N 2.805524 -0.363510 0.379603 0
M  V30 8 C 1.642024 0.452515 0.371421 0
M  V30 9 C 0.439830 -0.108038 -0.005862 0
M  V30 10 C -0.752744 0.590665 -0.030268 0
M  V30 11 C -0.743037 1.917664 0.342210 0
M  V30 12 C 0.444823 2.539725 0.732504 0
M  V30 13 C 1.606908 1.781957 0.734562 0
M  V30 14 O 2.797571 2.371999 1.116209 0
M  V30 15 C 2.930879 3.714482 1.512335 0
M  V30 16 C -2.122541 2.448035 0.270492 0
M  V30 17 O -2.413866 3.612451 0.547879 0
M  V30 18 N -2.931046 1.338191 -0.165381 0
M  V30 19 C -4.356126 1.420924 -0.305493 0
M  V30 20 C -4.829091 2.701456 -0.883964 0
M  V30 21 O -5.010186 3.216904 0.418671 0
M  V30 22 C -5.098599 1.933406 0.907414 0
M  V30 23 C -2.114365 0.145719 -0.424291 0
M  V30 24 N 3.165895 -2.287726 -1.205011 0
M  V30 25 C 3.093541 -3.621512 -1.370015 0
M  V30 26 C 2.656057 -4.474256 -0.363149 0
M  V30 27 C 2.585602 -5.947238 -0.562766 0
M  V30 28 F 3.435114 -6.487089 0.408555 0
M  V30 29 F 1.321260 -6.458118 -0.418854 0
M  V30 30 F 3.075639 -6.292760 -1.801527 0
M  V30 31 H -0.065364 -3.262072 1.801783 0
M  V30 32 H 0.706703 -2.003216 2.874574 0
M  V30 33 H -0.504456 -3.134962 3.537842 0
M  V30 34 H 1.068504 -4.802394 3.884273 0
M  V30 35 H 2.332944 -3.508041 3.563609 0
M  V30 36 H 1.760896 -5.726898 1.790108 0
M  V30 37 H 3.692352 0.094240 0.697611 0
M  V30 38 H 0.421886 -1.164127 -0.303138 0
M  V30 39 H 0.432746 3.576933 1.018550 0
M  V30 40 H 3.005599 4.372277 0.614517 0
M  V30 41 H 3.865428 3.838924 2.111773 0
M  V30 42 H 2.069794 4.028475 2.135244 0
M  V30 43 H -4.795398 0.470164 -0.661527 0
M  V30 44 H -4.025665 3.254959 -1.429938 0
M  V30 45 H -5.777114 2.609165 -1.452329 0
M  V30 46 H -6.142578 1.560587 0.906028 0
M  V30 47 H -4.621838 1.720436 1.886991 0
M  V30 48 H -2.178802 -0.032495 -1.519557 0
M  V30 49 H -2.446210 -0.701463 0.178858 0
M  V30 50 H 3.393945 -4.011825 -2.332472 0
M  V30 END ATOM
M  V30 BEGIN BOND
M  V30 1 1 1 2
M  V30 2 1 2 3
M  V30 3 1 3 4
M  V30 4 2 4 5
M  V30 5 1 5 6
M  V30 6 1 6 7
M  V30 7 1 7 8
M  V30 8 2 8 9
M  V30 9 1 9 10
M  V30 10 2 10 11
M  V30 11 1 11 12
M  V30 12 2 12 13
M  V30 13 1 13 14
M  V30 14 1 14 15
M  V30 15 1 11 16
M  V30 16 2 16 17
M  V30 17 1 16 18
M  V30 18 1 18 19
M  V30 19 1 19 20
M  V30 20 1 20 21
M  V30 21 1 21 22
M  V30 22 1 18 23
M  V30 23 2 6 24
M  V30 24 1 24 25
M  V30 25 2 25 26
M  V30 26 1 26 27
M  V30 27 1 27 28
M  V30 28 1 27 29
M  V30 29 1 27 30
M  V30 30 1 26 4
M  V30 31 1 13 8
M  V30 32 1 22 19
M  V30 33 1 23 10
M  V30 34 1 1 31
M  V30 35 1 1 32
M  V30 36 1 1 33
M  V30 37 1 2 34
M  V30 38 1 2 35
M  V30 39 1 3 36
M  V30 40 1 7 37
M  V30 41 1 9 38
M  V30 42 1 12 39
M  V30 43 1 15 40
M  V30 44 1 15 41
M  V30 45 1 15 42
M  V30 46 1 19 43
M  V30 47 1 20 44
M  V30 48 1 20 45
M  V30 49 1 22 46
M  V30 50 1 22 47
M  V30 51 1 23 48
M  V30 52 1 23 49
M  V30 53 1 25 50
M  V30 END BOND
M  V30 END CTAB
M  END
>  <Dataset>  (345) 
ChEMBL_Kinases

>  <Ligand_Instance>  (345) 
nan

>  <PDB_ID>  (345) 
nan

>  <Standardized_SMILES>  (345) 
CCNc1nc(Nc2cc3c(cc2OC)C(=O)N(C2COC2)C3)ncc1C(F)(F)F

>  <Name>  (345) 
nan

>  <Pocket>  (345) 
nan

>  <ATP_Site>  (345) 
nan

>  <Peripheral>  (345) 
nan

>  <Num_H_Atoms_ProtBoundConf>  (345) 
nan

>  <Num_Resolved_Atoms>  (345) 
nan

>  <Num_Not_Resolved_Atoms>  (345) 
nan

$$$$
CHEMBL3694818
     RDKit          3D

  0  0  0  0  0  0  0  0  0  0999 V3000
M  V30 BEGIN CTAB
M  V30 COUNTS 47 49 0 0 0
M  V30 BEGIN ATOM
M  V30 1 C -3.153984 0.467549 -3.495320 0
M  V30 2 N -3.103388 -0.997945 -3.400608 0
M  V30 3 C -1.968374 -1.703788 -2.928657 0
M  V30 4 N -0.922590 -0.956260 -2.562276 0
M  V30 5 C 0.223162 -1.493110 -2.086018 0
M  V30 6 N 1.459638 -0.958041 -1.642800 0
M  V30 7 C 1.548234 -0.366588 -0.326090 0
M  V30 8 C 0.370820 -0.272208 0.420618 0
M  V30 9 C 0.310630 0.288595 1.676346 0
M  V30 10 C 1.520969 0.770822 2.178638 0
M  V30 11 C 2.690390 0.683981 1.453783 0
M  V30 12 C 2.741810 0.125376 0.204968 0
M  V30 13 Cl 4.166357 -0.028367 -0.786151 0
M  V30 14 C 1.330003 1.312572 3.429839 0
M  V30 15 C 2.214590 1.930198 4.410097 0
M  V30 16 O 2.529049 3.164319 4.474532 0
M  V30 17 N 2.746961 0.995534 5.364324 0
M  V30 18 C 2.440971 -0.442221 5.386063 0
M  V30 19 C 3.662846 1.222897 6.483019 0
M  V30 20 C -0.013810 1.158101 3.692581 0
M  V30 21 N -0.593157 0.542781 2.624457 0
M  V30 22 C -2.004770 0.185642 2.478044 0
M  V30 23 N 0.259808 -2.850580 -1.998224 0
M  V30 24 C -0.766245 -3.643397 -2.355197 0
M  V30 25 C -1.933226 -3.079110 -2.840522 0
M  V30 26 C -3.112229 -3.895428 -3.252864 0
M  V30 27 F -2.811171 -5.231375 -3.075277 0
M  V30 28 F -3.461785 -3.652693 -4.555986 0
M  V30 29 F -4.228868 -3.616057 -2.449793 0
M  V30 30 H -3.034449 0.831245 -2.448846 0
M  V30 31 H -4.100369 0.789278 -3.925877 0
M  V30 32 H -2.242289 0.775568 -4.024573 0
M  V30 33 H -3.924775 -1.564789 -3.686783 0
M  V30 34 H 2.290213 -0.990549 -2.258501 0
M  V30 35 H -0.574131 -0.660640 0.006189 0
M  V30 36 H 3.626011 1.062672 1.860528 0
M  V30 37 H 1.872452 -0.755642 4.470871 0
M  V30 38 H 1.884980 -0.697840 6.328859 0
M  V30 39 H 3.351039 -1.071631 5.417329 0
M  V30 40 H 4.559780 0.587693 6.303075 0
M  V30 41 H 4.051637 2.262328 6.509746 0
M  V30 42 H 3.230367 0.884019 7.450091 0
M  V30 43 H -0.629811 1.430110 4.555541 0
M  V30 44 H -2.567474 0.408365 3.397649 0
M  V30 45 H -2.480516 0.749229 1.647354 0
M  V30 46 H -2.118382 -0.916192 2.284765 0
M  V30 47 H -0.746838 -4.728691 -2.287348 0
M  V30 END ATOM
M  V30 BEGIN BOND
M  V30 1 1 1 2
M  V30 2 1 2 3
M  V30 3 2 3 4
M  V30 4 1 4 5
M  V30 5 1 5 6
M  V30 6 1 6 7
M  V30 7 2 7 8
M  V30 8 1 8 9
M  V30 9 2 9 10
M  V30 10 1 10 11
M  V30 11 2 11 12
M  V30 12 1 12 13
M  V30 13 1 10 14
M  V30 14 1 14 15
M  V30 15 2 15 16
M  V30 16 1 15 17
M  V30 17 1 17 18
M  V30 18 1 17 19
M  V30 19 2 14 20
M  V30 20 1 20 21
M  V30 21 1 21 22
M  V30 22 2 5 23
M  V30 23 1 23 24
M  V30 24 2 24 25
M  V30 25 1 25 26
M  V30 26 1 26 27
M  V30 27 1 26 28
M  V30 28 1 26 29
M  V30 29 1 25 3
M  V30 30 1 12 7
M  V30 31 1 21 9
M  V30 32 1 1 30
M  V30 33 1 1 31
M  V30 34 1 1 32
M  V30 35 1 2 33
M  V30 36 1 6 34
M  V30 37 1 8 35
M  V30 38 1 11 36
M  V30 39 1 18 37
M  V30 40 1 18 38
M  V30 41 1 18 39
M  V30 42 1 19 40
M  V30 43 1 19 41
M  V30 44 1 19 42
M  V30 45 1 20 43
M  V30 46 1 22 44
M  V30 47 1 22 45
M  V30 48 1 22 46
M  V30 49 1 24 47
M  V30 END BOND
M  V30 END CTAB
M  END
>  <Dataset>  (346) 
ChEMBL_Kinases

>  <Ligand_Instance>  (346) 
nan

>  <PDB_ID>  (346) 
nan

>  <Standardized_SMILES>  (346) 
CNc1nc(Nc2cc3c(cc2Cl)c(C(=O)N(C)C)cn3C)ncc1C(F)(F)F

>  <Name>  (346) 
nan

>  <Pocket>  (346) 
nan

>  <ATP_Site>  (346) 
nan

>  <Peripheral>  (346) 
nan

>  <Num_H_Atoms_ProtBoundConf>  (346) 
nan

>  <Num_Resolved_Atoms>  (346) 
nan

>  <Num_Not_Resolved_Atoms>  (346) 
nan

$$$$
CHEMBL3694819
     RDKit          3D

  0  0  0  0  0  0  0  0  0  0999 V3000
M  V30 BEGIN CTAB
M  V30 COUNTS 53 56 0 0 0
M  V30 BEGIN ATOM
M  V30 1 C 5.356657 -4.474525 2.086288 0
M  V30 2 N 4.096001 -5.109740 2.417970 0
M  V30 3 C 2.819649 -4.609698 2.799799 0
M  V30 4 N 2.681798 -3.261490 2.893225 0
M  V30 5 C 1.498889 -2.707191 3.251074 0
M  V30 6 N 1.245211 -1.313765 3.378429 0
M  V30 7 C 0.772635 -0.522875 2.290070 0
M  V30 8 C 0.559059 -1.145748 1.080463 0
M  V30 9 C 0.100821 -0.451124 -0.024793 0
M  V30 10 C -0.164355 0.916642 0.044207 0
M  V30 11 C 0.061787 1.497721 1.267353 0
M  V30 12 C 0.512685 0.847318 2.379144 0
M  V30 13 Cl 0.783756 1.636345 3.912726 0
M  V30 14 C -0.602795 1.323262 -1.201953 0
M  V30 15 C -0.965828 2.716695 -1.457577 0
M  V30 16 O -0.008873 3.455984 -1.860961 0
M  V30 17 N -2.302009 3.202080 -1.264875 0
M  V30 18 C -3.301901 2.256299 -0.801083 0
M  V30 19 C -4.686628 2.800106 -0.913533 0
M  V30 20 N -4.751062 3.703976 -2.028799 0
M  V30 21 C -3.994788 4.902471 -1.696386 0
M  V30 22 C -2.523014 4.608939 -1.556896 0
M  V30 23 C -0.599576 0.202312 -2.012707 0
M  V30 24 N -0.173689 -0.865196 -1.295407 0
M  V30 25 C -0.029864 -2.223744 -1.785466 0
M  V30 26 N 0.438480 -3.512599 3.519413 0
M  V30 27 C 0.596046 -4.845609 3.421010 0
M  V30 28 C 1.765092 -5.461535 3.064610 0
M  V30 29 C 1.955855 -6.924653 2.951228 0
M  V30 30 F 2.951120 -7.359816 3.828150 0
M  V30 31 F 2.344725 -7.304938 1.689572 0
M  V30 32 F 0.776724 -7.578273 3.266284 0
M  V30 33 H 5.303558 -3.364085 2.215505 0
M  V30 34 H 5.639679 -4.639243 1.019758 0
M  V30 35 H 6.178940 -4.917928 2.709429 0
M  V30 36 H 4.218361 -6.151231 2.341269 0
M  V30 37 H 1.389619 -0.790066 4.273136 0
M  V30 38 H 0.753750 -2.219814 0.978304 0
M  V30 39 H -0.147722 2.573571 1.318339 0
M  V30 40 H -3.170925 1.270909 -1.315745 0
M  V30 41 H -3.091640 2.110561 0.295166 0
M  V30 42 H -5.414156 1.966729 -1.043195 0
M  V30 43 H -4.955052 3.364401 0.008480 0
M  V30 44 H -4.359701 3.253967 -2.880827 0
M  V30 45 H -4.202117 5.632568 -2.511620 0
M  V30 46 H -4.457876 5.327053 -0.782293 0
M  V30 47 H -2.173083 5.216794 -0.671949 0
M  V30 48 H -1.929291 4.959072 -2.411720 0
M  V30 49 H -0.899959 0.239039 -3.044018 0
M  V30 50 H 0.150730 -2.238401 -2.874860 0
M  V30 51 H 0.792449 -2.750766 -1.242950 0
M  V30 52 H -0.986406 -2.772315 -1.592991 0
M  V30 53 H -0.265701 -5.482433 3.639807 0
M  V30 END ATOM
M  V30 BEGIN BOND
M  V30 1 1 1 2
M  V30 2 1 2 3
M  V30 3 2 3 4
M  V30 4 1 4 5
M  V30 5 1 5 6
M  V30 6 1 6 7
M  V30 7 2 7 8
M  V30 8 1 8 9
M  V30 9 2 9 10
M  V30 10 1 10 11
M  V30 11 2 11 12
M  V30 12 1 12 13
M  V30 13 1 10 14
M  V30 14 1 14 15
M  V30 15 2 15 16
M  V30 16 1 15 17
M  V30 17 1 17 18
M  V30 18 1 18 19
M  V30 19 1 19 20
M  V30 20 1 20 21
M  V30 21 1 21 22
M  V30 22 2 14 23
M  V30 23 1 23 24
M  V30 24 1 24 25
M  V30 25 2 5 26
M  V30 26 1 26 27
M  V30 27 2 27 28
M  V30 28 1 28 29
M  V30 29 1 29 30
M  V30 30 1 29 31
M  V30 31 1 29 32
M  V30 32 1 28 3
M  V30 33 1 12 7
M  V30 34 1 22 17
M  V30 35 1 24 9
M  V30 36 1 1 33
M  V30 37 1 1 34
M  V30 38 1 1 35
M  V30 39 1 2 36
M  V30 40 1 6 37
M  V30 41 1 8 38
M  V30 42 1 11 39
M  V30 43 1 18 40
M  V30 44 1 18 41
M  V30 45 1 19 42
M  V30 46 1 19 43
M  V30 47 1 20 44
M  V30 48 1 21 45
M  V30 49 1 21 46
M  V30 50 1 22 47
M  V30 51 1 22 48
M  V30 52 1 23 49
M  V30 53 1 25 50
M  V30 54 1 25 51
M  V30 55 1 25 52
M  V30 56 1 27 53
M  V30 END BOND
M  V30 END CTAB
M  END
>  <Dataset>  (347) 
ChEMBL_Kinases

>  <Ligand_Instance>  (347) 
nan

>  <PDB_ID>  (347) 
nan

>  <Standardized_SMILES>  (347) 
CNc1nc(Nc2cc3c(cc2Cl)c(C(=O)N2CCNCC2)cn3C)ncc1C(F)(F)F

>  <Name>  (347) 
nan

>  <Pocket>  (347) 
nan

>  <ATP_Site>  (347) 
nan

>  <Peripheral>  (347) 
nan

>  <Num_H_Atoms_ProtBoundConf>  (347) 
nan

>  <Num_Resolved_Atoms>  (347) 
nan

>  <Num_Not_Resolved_Atoms>  (347) 
nan

$$$$
CHEMBL3696235
     RDKit          3D

  0  0  0  0  0  0  0  0  0  0999 V3000
M  V30 BEGIN CTAB
M  V30 COUNTS 49 51 0 0 0
M  V30 BEGIN ATOM
M  V30 1 C 3.192926 -6.033342 -0.521643 0
M  V30 2 N 2.438607 -4.816686 -0.473963 0
M  V30 3 C 1.083093 -4.861208 0.061563 0
M  V30 4 C 3.000342 -3.599984 -0.937554 0
M  V30 5 C 4.285751 -3.616934 -1.433567 0
M  V30 6 C 4.804574 -2.418756 -1.876759 0
M  V30 7 C 4.072171 -1.254988 -1.826855 0
M  V30 8 C 2.786064 -1.210149 -1.336190 0
M  V30 9 N 2.119449 0.030648 -1.327373 0
M  V30 10 C 0.815258 0.328298 -0.880617 0
M  V30 11 O 0.089727 -0.581207 -0.415298 0
M  V30 12 C 0.200026 1.676834 -0.913476 0
M  V30 13 C -1.183063 1.653026 -0.371238 0
M  V30 14 N -1.387372 1.861477 0.963699 0
M  V30 15 C -2.630869 1.844437 1.476682 0
M  V30 16 N -2.717271 2.073729 2.877431 0
M  V30 17 C -1.503952 2.300157 3.644723 0
M  V30 18 C -1.528507 1.276270 4.761247 0
M  V30 19 O -2.722734 1.191614 5.428840 0
M  V30 20 C -3.792994 0.879118 4.577906 0
M  V30 21 C -3.931223 2.111219 3.675059 0
M  V30 22 C -3.747154 1.620106 0.699700 0
M  V30 23 C -3.495665 1.414483 -0.641762 0
M  V30 24 O -4.457657 1.199343 -1.440502 0
M  V30 25 N -2.255788 1.428222 -1.172547 0
M  V30 26 C 2.303648 -2.411960 -0.906418 0
M  V30 27 H 2.492832 -6.918645 -0.490594 0
M  V30 28 H 3.805573 -6.189702 -1.407910 0
M  V30 29 H 3.757004 -6.097785 0.450168 0
M  V30 30 H 1.021153 -4.014823 0.801795 0
M  V30 31 H 0.303138 -4.835531 -0.700846 0
M  V30 32 H 0.962677 -5.782242 0.696977 0
M  V30 33 H 4.920245 -4.484136 -1.505199 0
M  V30 34 H 5.805428 -2.354680 -2.278553 0
M  V30 35 H 4.533047 -0.326611 -2.193143 0
M  V30 36 H 2.594958 0.885561 -1.684550 0
M  V30 37 H 0.789692 2.336581 -0.238714 0
M  V30 38 H 0.216745 2.115818 -1.931752 0
M  V30 39 H -1.540615 3.310175 4.090561 0
M  V30 40 H -0.601251 2.116885 3.038281 0
M  V30 41 H -0.760540 1.564832 5.516040 0
M  V30 42 H -1.233772 0.267923 4.406080 0
M  V30 43 H -4.691340 0.662253 5.154615 0
M  V30 44 H -3.452176 0.057855 3.930934 0
M  V30 45 H -4.843111 2.114037 3.084448 0
M  V30 46 H -3.875199 2.978136 4.392738 0
M  V30 47 H -4.728307 1.608677 1.116893 0
M  V30 48 H -2.044152 1.275341 -2.182146 0
M  V30 49 H 1.323487 -2.481137 -0.511612 0
M  V30 END ATOM
M  V30 BEGIN BOND
M  V30 1 1 1 2
M  V30 2 1 2 3
M  V30 3 1 2 4
M  V30 4 2 4 5
M  V30 5 1 5 6
M  V30 6 2 6 7
M  V30 7 1 7 8
M  V30 8 1 8 9
M  V30 9 1 9 10
M  V30 10 2 10 11
M  V30 11 1 10 12
M  V30 12 1 12 13
M  V30 13 2 13 14
M  V30 14 1 14 15
M  V30 15 1 15 16
M  V30 16 1 16 17
M  V30 17 1 17 18
M  V30 18 1 18 19
M  V30 19 1 19 20
M  V30 20 1 20 21
M  V30 21 2 15 22
M  V30 22 1 22 23
M  V30 23 2 23 24
M  V30 24 1 23 25
M  V30 25 2 8 26
M  V30 26 1 26 4
M  V30 27 1 25 13
M  V30 28 1 21 16
M  V30 29 1 1 27
M  V30 30 1 1 28
M  V30 31 1 1 29
M  V30 32 1 3 30
M  V30 33 1 3 31
M  V30 34 1 3 32
M  V30 35 1 5 33
M  V30 36 1 6 34
M  V30 37 1 7 35
M  V30 38 1 9 36
M  V30 39 1 12 37
M  V30 40 1 12 38
M  V30 41 1 17 39
M  V30 42 1 17 40
M  V30 43 1 18 41
M  V30 44 1 18 42
M  V30 45 1 20 43
M  V30 46 1 20 44
M  V30 47 1 21 45
M  V30 48 1 21 46
M  V30 49 1 22 47
M  V30 50 1 25 48
M  V30 51 1 26 49
M  V30 END BOND
M  V30 END CTAB
M  END
>  <Dataset>  (348) 
ChEMBL_Kinases

>  <Ligand_Instance>  (348) 
nan

>  <PDB_ID>  (348) 
nan

>  <Standardized_SMILES>  (348) 
CN(C)c1cccc(NC(=O)Cc2nc(N3CCOCC3)cc(=O)[nH]2)c1

>  <Name>  (348) 
nan

>  <Pocket>  (348) 
nan

>  <ATP_Site>  (348) 
nan

>  <Peripheral>  (348) 
nan

>  <Num_H_Atoms_ProtBoundConf>  (348) 
nan

>  <Num_Resolved_Atoms>  (348) 
nan

>  <Num_Not_Resolved_Atoms>  (348) 
nan

$$$$
CHEMBL3694821
     RDKit          3D

  0  0  0  0  0  0  0  0  0  0999 V3000
M  V30 BEGIN CTAB
M  V30 COUNTS 56 59 0 0 0
M  V30 BEGIN ATOM
M  V30 1 C 2.301348 4.122616 5.398423 0
M  V30 2 N 1.772909 2.812437 5.633559 0
M  V30 3 C 1.621058 1.572584 4.992077 0
M  V30 4 N 2.116215 1.517727 3.717283 0
M  V30 5 C 2.019554 0.380634 3.040934 0
M  V30 6 N 2.392546 -0.057130 1.718363 0
M  V30 7 C 1.475073 -0.237840 0.616214 0
M  V30 8 C 0.124304 0.021881 0.868749 0
M  V30 9 C -0.849295 -0.148059 -0.122084 0
M  V30 10 C -0.365477 -0.591222 -1.363738 0
M  V30 11 C 0.964493 -0.849592 -1.625524 0
M  V30 12 C 1.907277 -0.672051 -0.622513 0
M  V30 13 O 3.257210 -0.916500 -0.821162 0
M  V30 14 C 3.728998 -1.355858 -2.090903 0
M  V30 15 C -1.524035 -0.684229 -2.148204 0
M  V30 16 C -1.578118 -1.134284 -3.561691 0
M  V30 17 O -1.476058 -0.426714 -4.611785 0
M  V30 18 N -1.771464 -2.554776 -3.672758 0
M  V30 19 C -1.901128 -3.464458 -2.527518 0
M  V30 20 C -2.268238 -4.846500 -2.898863 0
M  V30 21 O -3.127183 -4.994871 -3.945038 0
M  V30 22 C -3.184959 -3.996092 -4.872098 0
M  V30 23 C -1.863770 -3.245169 -4.944278 0
M  V30 24 C -2.629274 -0.313123 -1.409587 0
M  V30 25 N -2.185871 0.009997 -0.173170 0
M  V30 26 C -3.028433 0.463281 0.936036 0
M  V30 27 N 1.434638 -0.683559 3.635749 0
M  V30 28 C 0.937011 -0.662036 4.888261 0
M  V30 29 C 1.026952 0.490061 5.595357 0
M  V30 30 C 0.503563 0.584850 6.983096 0
M  V30 31 F 1.512042 0.903760 7.902092 0
M  V30 32 F -0.531942 1.472944 7.124663 0
M  V30 33 F 0.018962 -0.649916 7.346983 0
M  V30 34 H 2.759443 4.231225 4.391158 0
M  V30 35 H 1.492477 4.903770 5.508504 0
M  V30 36 H 3.141638 4.297074 6.122685 0
M  V30 37 H 1.393720 2.857711 6.609991 0
M  V30 38 H 3.407060 -0.251607 1.567860 0
M  V30 39 H -0.253133 0.366040 1.830720 0
M  V30 40 H 1.267447 -1.188692 -2.605709 0
M  V30 41 H 3.269870 -0.723353 -2.908277 0
M  V30 42 H 3.411257 -2.390728 -2.316334 0
M  V30 43 H 4.815674 -1.298303 -2.194659 0
M  V30 44 H -0.891396 -3.480632 -2.052334 0
M  V30 45 H -2.623341 -3.054379 -1.788189 0
M  V30 46 H -2.795153 -5.292201 -2.001895 0
M  V30 47 H -1.388173 -5.524175 -3.043652 0
M  V30 48 H -3.440384 -4.455551 -5.857685 0
M  V30 49 H -3.951213 -3.262385 -4.549881 0
M  V30 50 H -1.829566 -2.553712 -5.800127 0
M  V30 51 H -1.074355 -3.994244 -5.065780 0
M  V30 52 H -3.677318 -0.265839 -1.696995 0
M  V30 53 H -4.042474 0.037549 0.868134 0
M  V30 54 H -3.095387 1.582402 0.821986 0
M  V30 55 H -2.563473 0.282440 1.903400 0
M  V30 56 H 0.461377 -1.497066 5.392997 0
M  V30 END ATOM
M  V30 BEGIN BOND
M  V30 1 1 1 2
M  V30 2 1 2 3
M  V30 3 2 3 4
M  V30 4 1 4 5
M  V30 5 1 5 6
M  V30 6 1 6 7
M  V30 7 2 7 8
M  V30 8 1 8 9
M  V30 9 2 9 10
M  V30 10 1 10 11
M  V30 11 2 11 12
M  V30 12 1 12 13
M  V30 13 1 13 14
M  V30 14 1 10 15
M  V30 15 1 15 16
M  V30 16 2 16 17
M  V30 17 1 16 18
M  V30 18 1 18 19
M  V30 19 1 19 20
M  V30 20 1 20 21
M  V30 21 1 21 22
M  V30 22 1 22 23
M  V30 23 2 15 24
M  V30 24 1 24 25
M  V30 25 1 25 26
M  V30 26 2 5 27
M  V30 27 1 27 28
M  V30 28 2 28 29
M  V30 29 1 29 30
M  V30 30 1 30 31
M  V30 31 1 30 32
M  V30 32 1 30 33
M  V30 33 1 29 3
M  V30 34 1 12 7
M  V30 35 1 23 18
M  V30 36 1 25 9
M  V30 37 1 1 34
M  V30 38 1 1 35
M  V30 39 1 1 36
M  V30 40 1 2 37
M  V30 41 1 6 38
M  V30 42 1 8 39
M  V30 43 1 11 40
M  V30 44 1 14 41
M  V30 45 1 14 42
M  V30 46 1 14 43
M  V30 47 1 19 44
M  V30 48 1 19 45
M  V30 49 1 20 46
M  V30 50 1 20 47
M  V30 51 1 22 48
M  V30 52 1 22 49
M  V30 53 1 23 50
M  V30 54 1 23 51
M  V30 55 1 24 52
M  V30 56 1 26 53
M  V30 57 1 26 54
M  V30 58 1 26 55
M  V30 59 1 28 56
M  V30 END BOND
M  V30 END CTAB
M  END
>  <Dataset>  (349) 
ChEMBL_Kinases

>  <Ligand_Instance>  (349) 
nan

>  <PDB_ID>  (349) 
nan

>  <Standardized_SMILES>  (349) 
CNc1nc(Nc2cc3c(cc2OC)c(C(=O)N2CCOCC2)cn3C)ncc1C(F)(F)F

>  <Name>  (349) 
nan

>  <Pocket>  (349) 
nan

>  <ATP_Site>  (349) 
nan

>  <Peripheral>  (349) 
nan

>  <Num_H_Atoms_ProtBoundConf>  (349) 
nan

>  <Num_Resolved_Atoms>  (349) 
nan

>  <Num_Not_Resolved_Atoms>  (349) 
nan

$$$$
CHEMBL3694822
     RDKit          3D

  0  0  0  0  0  0  0  0  0  0999 V3000
M  V30 BEGIN CTAB
M  V30 COUNTS 56 59 0 0 0
M  V30 BEGIN ATOM
M  V30 1 C 4.358708 2.364625 5.620186 0
M  V30 2 N 3.564573 1.207337 5.972852 0
M  V30 3 C 3.143182 0.165773 5.109346 0
M  V30 4 N 3.495217 0.211845 3.809495 0
M  V30 5 C 3.131197 -0.742215 2.960328 0
M  V30 6 N 3.385236 -0.861670 1.553006 0
M  V30 7 C 2.355739 -0.584372 0.616480 0
M  V30 8 C 1.096668 -0.215430 1.033318 0
M  V30 9 C 0.023797 0.054028 0.181428 0
M  V30 10 C 0.357864 -0.088311 -1.145769 0
M  V30 11 C 1.553855 -0.442658 -1.692369 0
M  V30 12 C 2.569710 -0.693707 -0.764230 0
M  V30 13 Cl 4.152833 -1.151885 -1.320038 0
M  V30 14 C -0.820039 0.208797 -1.842357 0
M  V30 15 C -1.209973 0.227385 -3.241009 0
M  V30 16 O -1.223613 1.012489 -4.235428 0
M  V30 17 N -1.764659 -1.052937 -3.634857 0
M  V30 18 C -1.904701 -2.205427 -2.726301 0
M  V30 19 C -3.404767 -2.313941 -2.520707 0
M  V30 20 N -3.960737 -2.839773 -3.722974 0
M  V30 21 C -5.385967 -2.584293 -3.740778 0
M  V30 22 C -3.311997 -2.496409 -4.926409 0
M  V30 23 C -2.280679 -1.435344 -4.921768 0
M  V30 24 C -1.804731 0.516665 -0.892803 0
M  V30 25 N -1.261719 0.413911 0.329721 0
M  V30 26 C -1.888446 0.630961 1.626464 0
M  V30 27 N 2.382196 -1.801970 3.394641 0
M  V30 28 C 2.000586 -1.902235 4.676942 0
M  V30 29 C 2.380873 -0.921619 5.529831 0
M  V30 30 C 1.994225 -0.954967 6.964932 0
M  V30 31 F 1.233031 -2.089227 7.227341 0
M  V30 32 F 1.174177 0.130829 7.273583 0
M  V30 33 F 3.090638 -1.037750 7.812973 0
M  V30 34 H 3.739754 3.061971 5.038251 0
M  V30 35 H 4.690272 2.915928 6.540014 0
M  V30 36 H 5.250671 2.078579 5.023798 0
M  V30 37 H 3.255623 1.108177 6.981602 0
M  V30 38 H 4.344959 -1.153921 1.197437 0
M  V30 39 H 0.893583 -0.118357 2.104533 0
M  V30 40 H 1.702361 -0.520687 -2.757038 0
M  V30 41 H -1.355648 -2.010417 -1.779364 0
M  V30 42 H -1.553744 -3.109464 -3.209579 0
M  V30 43 H -3.881757 -1.312233 -2.365137 0
M  V30 44 H -3.668601 -2.933924 -1.637494 0
M  V30 45 H -5.722928 -2.247613 -2.755338 0
M  V30 46 H -5.871941 -3.550173 -4.035408 0
M  V30 47 H -5.651031 -1.870833 -4.563975 0
M  V30 48 H -4.104019 -2.170643 -5.676932 0
M  V30 49 H -2.940645 -3.456472 -5.387483 0
M  V30 50 H -2.655039 -0.505634 -5.401290 0
M  V30 51 H -1.399667 -1.831580 -5.502509 0
M  V30 52 H -2.841823 0.798459 -0.980378 0
M  V30 53 H -1.156097 0.891381 2.387254 0
M  V30 54 H -2.419346 -0.314105 1.884280 0
M  V30 55 H -2.667052 1.427943 1.584405 0
M  V30 56 H 1.413342 -2.710750 5.068126 0
M  V30 END ATOM
M  V30 BEGIN BOND
M  V30 1 1 1 2
M  V30 2 1 2 3
M  V30 3 2 3 4
M  V30 4 1 4 5
M  V30 5 1 5 6
M  V30 6 1 6 7
M  V30 7 2 7 8
M  V30 8 1 8 9
M  V30 9 2 9 10
M  V30 10 1 10 11
M  V30 11 2 11 12
M  V30 12 1 12 13
M  V30 13 1 10 14
M  V30 14 1 14 15
M  V30 15 2 15 16
M  V30 16 1 15 17
M  V30 17 1 17 18
M  V30 18 1 18 19
M  V30 19 1 19 20
M  V30 20 1 20 21
M  V30 21 1 20 22
M  V30 22 1 22 23
M  V30 23 2 14 24
M  V30 24 1 24 25
M  V30 25 1 25 26
M  V30 26 2 5 27
M  V30 27 1 27 28
M  V30 28 2 28 29
M  V30 29 1 29 30
M  V30 30 1 30 31
M  V30 31 1 30 32
M  V30 32 1 30 33
M  V30 33 1 29 3
M  V30 34 1 12 7
M  V30 35 1 23 17
M  V30 36 1 25 9
M  V30 37 1 1 34
M  V30 38 1 1 35
M  V30 39 1 1 36
M  V30 40 1 2 37
M  V30 41 1 6 38
M  V30 42 1 8 39
M  V30 43 1 11 40
M  V30 44 1 18 41
M  V30 45 1 18 42
M  V30 46 1 19 43
M  V30 47 1 19 44
M  V30 48 1 21 45
M  V30 49 1 21 46
M  V30 50 1 21 47
M  V30 51 1 22 48
M  V30 52 1 22 49
M  V30 53 1 23 50
M  V30 54 1 23 51
M  V30 55 1 24 52
M  V30 56 1 26 53
M  V30 57 1 26 54
M  V30 58 1 26 55
M  V30 59 1 28 56
M  V30 END BOND
M  V30 END CTAB
M  END
>  <Dataset>  (350) 
ChEMBL_Kinases

>  <Ligand_Instance>  (350) 
nan

>  <PDB_ID>  (350) 
nan

>  <Standardized_SMILES>  (350) 
CNc1nc(Nc2cc3c(cc2Cl)c(C(=O)N2CCN(C)CC2)cn3C)ncc1C(F)(F)F

>  <Name>  (350) 
nan

>  <Pocket>  (350) 
nan

>  <ATP_Site>  (350) 
nan

>  <Peripheral>  (350) 
nan

>  <Num_H_Atoms_ProtBoundConf>  (350) 
nan

>  <Num_Resolved_Atoms>  (350) 
nan

>  <Num_Not_Resolved_Atoms>  (350) 
nan

$$$$
CHEMBL3694823
     RDKit          3D

  0  0  0  0  0  0  0  0  0  0999 V3000
M  V30 BEGIN CTAB
M  V30 COUNTS 59 62 0 0 0
M  V30 BEGIN ATOM
M  V30 1 C 5.895742 -0.718838 4.205042 0
M  V30 2 C 4.649399 -0.500184 3.339678 0
M  V30 3 N 5.052001 -0.320835 1.987293 0
M  V30 4 C 5.758921 0.859021 1.669312 0
M  V30 5 C 5.051305 1.882667 0.855032 0
M  V30 6 N 3.787826 1.418052 0.381647 0
M  V30 7 C 2.596261 2.189497 0.361508 0
M  V30 8 O 2.997939 3.262006 0.842347 0
M  V30 9 C 1.359354 1.610824 -0.149335 0
M  V30 10 C 0.961058 1.698995 -1.477306 0
M  V30 11 N -0.217455 1.052428 -1.542058 0
M  V30 12 C -1.058663 0.860136 -2.731902 0
M  V30 13 C -0.571530 0.565963 -0.318102 0
M  V30 14 C -1.650236 -0.154912 0.163452 0
M  V30 15 C -1.715056 -0.506834 1.496280 0
M  V30 16 N -2.858360 -1.250694 1.901093 0
M  V30 17 C -3.948199 -1.653816 1.085602 0
M  V30 18 N -5.069837 -0.960209 0.895066 0
M  V30 19 C -6.108231 -1.314803 0.134445 0
M  V30 20 C -5.963999 -2.547720 -0.511614 0
M  V30 21 C -7.126267 -2.956048 -1.365093 0
M  V30 22 F -7.630528 -4.144947 -0.878155 0
M  V30 23 F -6.748366 -3.036176 -2.697910 0
M  V30 24 F -8.125809 -2.020162 -1.272616 0
M  V30 25 C -4.783068 -3.289178 -0.317736 0
M  V30 26 N -4.922154 -4.462289 -1.085174 0
M  V30 27 C -5.061655 -5.639833 -1.855453 0
M  V30 28 N -3.817779 -2.812311 0.475764 0
M  V30 29 C -0.725628 -0.167130 2.414016 0
M  V30 30 Cl -0.834744 -0.623448 4.082761 0
M  V30 31 C 0.341543 0.551215 1.917861 0
M  V30 32 C 0.426425 0.913176 0.589605 0
M  V30 33 C 3.803587 0.050746 -0.090889 0
M  V30 34 C 4.235373 -0.906707 0.984542 0
M  V30 35 H 6.494606 0.196377 4.296875 0
M  V30 36 H 6.515512 -1.514275 3.726182 0
M  V30 37 H 5.595402 -1.106479 5.193216 0
M  V30 38 H 3.974750 -1.338094 3.515230 0
M  V30 39 H 4.237717 0.481111 3.699948 0
M  V30 40 H 6.739364 0.577263 1.227953 0
M  V30 41 H 6.023283 1.359690 2.645122 0
M  V30 42 H 5.670931 2.069241 -0.071818 0
M  V30 43 H 5.005797 2.879079 1.338968 0
M  V30 44 H 1.416663 2.156777 -2.339890 0
M  V30 45 H -0.475031 0.719755 -3.644701 0
M  V30 46 H -1.687009 -0.059344 -2.597648 0
M  V30 47 H -1.715024 1.742270 -2.875008 0
M  V30 48 H -2.452097 -0.440756 -0.534982 0
M  V30 49 H -3.002779 -1.585730 2.899277 0
M  V30 50 H -6.950093 -0.643492 0.080659 0
M  V30 51 H -3.961036 -4.852672 -0.797405 0
M  V30 52 H -5.084265 -6.595848 -1.253097 0
M  V30 53 H -6.036622 -5.623278 -2.452424 0
M  V30 54 H -4.306505 -5.758877 -2.675258 0
M  V30 55 H 1.167904 0.861984 2.570552 0
M  V30 56 H 2.808894 -0.291026 -0.451533 0
M  V30 57 H 4.542779 -0.004813 -0.912931 0
M  V30 58 H 4.820080 -1.719853 0.508748 0
M  V30 59 H 3.346480 -1.451600 1.424512 0
M  V30 END ATOM
M  V30 BEGIN BOND
M  V30 1 1 1 2
M  V30 2 1 2 3
M  V30 3 1 3 4
M  V30 4 1 4 5
M  V30 5 1 5 6
M  V30 6 1 6 7
M  V30 7 2 7 8
M  V30 8 1 7 9
M  V30 9 2 9 10
M  V30 10 1 10 11
M  V30 11 1 11 12
M  V30 12 1 11 13
M  V30 13 2 13 14
M  V30 14 1 14 15
M  V30 15 1 15 16
M  V30 16 1 16 17
M  V30 17 2 17 18
M  V30 18 1 18 19
M  V30 19 2 19 20
M  V30 20 1 20 21
M  V30 21 1 21 22
M  V30 22 1 21 23
M  V30 23 1 21 24
M  V30 24 1 20 25
M  V30 25 1 25 26
M  V30 26 1 26 27
M  V30 27 2 25 28
M  V30 28 2 15 29
M  V30 29 1 29 30
M  V30 30 1 29 31
M  V30 31 2 31 32
M  V30 32 1 6 33
M  V30 33 1 33 34
M  V30 34 1 34 3
M  V30 35 1 32 9
M  V30 36 1 32 13
M  V30 37 1 28 17
M  V30 38 1 1 35
M  V30 39 1 1 36
M  V30 40 1 1 37
M  V30 41 1 2 38
M  V30 42 1 2 39
M  V30 43 1 4 40
M  V30 44 1 4 41
M  V30 45 1 5 42
M  V30 46 1 5 43
M  V30 47 1 10 44
M  V30 48 1 12 45
M  V30 49 1 12 46
M  V30 50 1 12 47
M  V30 51 1 14 48
M  V30 52 1 16 49
M  V30 53 1 19 50
M  V30 54 1 26 51
M  V30 55 1 27 52
M  V30 56 1 27 53
M  V30 57 1 27 54
M  V30 58 1 31 55
M  V30 59 1 33 56
M  V30 60 1 33 57
M  V30 61 1 34 58
M  V30 62 1 34 59
M  V30 END BOND
M  V30 END CTAB
M  END
>  <Dataset>  (351) 
ChEMBL_Kinases

>  <Ligand_Instance>  (351) 
nan

>  <PDB_ID>  (351) 
nan

>  <Standardized_SMILES>  (351) 
CCN1CCN(C(=O)c2cn(C)c3cc(Nc4ncc(C(F)(F)F)c(NC)n4)c(Cl)cc23)CC1

>  <Name>  (351) 
nan

>  <Pocket>  (351) 
nan

>  <ATP_Site>  (351) 
nan

>  <Peripheral>  (351) 
nan

>  <Num_H_Atoms_ProtBoundConf>  (351) 
nan

>  <Num_Resolved_Atoms>  (351) 
nan

>  <Num_Not_Resolved_Atoms>  (351) 
nan

$$$$
CHEMBL3694824
     RDKit          3D

  0  0  0  0  0  0  0  0  0  0999 V3000
M  V30 BEGIN CTAB
M  V30 COUNTS 53 57 0 0 0
M  V30 BEGIN ATOM
M  V30 1 C 5.056068 -3.567716 4.189492 0
M  V30 2 N 3.880880 -3.393563 5.023831 0
M  V30 3 C 2.775589 -2.505963 4.969524 0
M  V30 4 N 2.775702 -1.635045 3.958798 0
M  V30 5 C 1.809010 -0.726487 3.755735 0
M  V30 6 N 1.652730 0.264175 2.753741 0
M  V30 7 C 1.070122 0.171679 1.465668 0
M  V30 8 C 0.573929 -1.041157 1.032471 0
M  V30 9 C 0.006327 -1.159960 -0.222238 0
M  V30 10 C -0.018965 0.000140 -0.975221 0
M  V30 11 C 0.464961 1.221579 -0.574933 0
M  V30 12 C 1.028498 1.310362 0.687878 0
M  V30 13 Cl 1.682398 2.821679 1.318916 0
M  V30 14 C -0.616771 -0.319760 -2.178868 0
M  V30 15 C -0.936292 0.475873 -3.384335 0
M  V30 16 O -0.182343 0.639920 -4.375686 0
M  V30 17 N -2.234610 1.108415 -3.395901 0
M  V30 18 C -3.246126 1.028053 -2.324718 0
M  V30 19 C -4.422466 1.770787 -2.891774 0 CFG=2
M  V30 20 C -4.264180 1.412644 -4.379602 0
M  V30 21 C -2.819580 1.931122 -4.423078 0 CFG=1
M  V30 22 C -3.077126 3.289893 -3.855235 0
M  V30 23 O -4.088134 3.120861 -2.888584 0
M  V30 24 C -0.936230 -1.678297 -2.112862 0
M  V30 25 N -0.553860 -2.176653 -0.922393 0
M  V30 26 C -0.661332 -3.508048 -0.375923 0
M  V30 27 N 0.787567 -0.724910 4.654178 0
M  V30 28 C 0.759268 -1.598404 5.693286 0
M  V30 29 C 1.758994 -2.522116 5.884155 0
M  V30 30 C 1.788672 -3.503647 6.995530 0
M  V30 31 F 2.947906 -3.291206 7.748742 0
M  V30 32 F 1.738495 -4.796103 6.504693 0
M  V30 33 F 0.732900 -3.271516 7.875808 0
M  V30 34 H 5.200206 -2.699303 3.487497 0
M  V30 35 H 4.940524 -4.459036 3.518641 0
M  V30 36 H 5.981286 -3.634323 4.807164 0
M  V30 37 H 3.897521 -4.086243 5.814709 0
M  V30 38 H 2.063885 1.151354 3.131370 0
M  V30 39 H 0.606657 -1.947510 1.651042 0
M  V30 40 H 0.420118 2.098010 -1.202286 0
M  V30 41 H -2.859171 1.495884 -1.397250 0
M  V30 42 H -3.503586 -0.040000 -2.170807 0
M  V30 43 H -5.388409 1.538565 -2.503935 0
M  V30 44 H -4.933934 2.030417 -5.015263 0
M  V30 45 H -4.287398 0.340928 -4.566800 0
M  V30 46 H -2.384307 1.891073 -5.406670 0
M  V30 47 H -2.186675 3.798357 -3.472691 0
M  V30 48 H -3.594468 3.876203 -4.673249 0
M  V30 49 H -1.422229 -2.266466 -2.898621 0
M  V30 50 H 0.217375 -4.139964 -0.638157 0
M  V30 51 H -0.788104 -3.467635 0.741743 0
M  V30 52 H -1.556356 -4.072435 -0.758398 0
M  V30 53 H -0.068874 -1.568491 6.388468 0
M  V30 END ATOM
M  V30 BEGIN BOND
M  V30 1 1 1 2
M  V30 2 1 2 3
M  V30 3 2 3 4
M  V30 4 1 4 5
M  V30 5 1 5 6
M  V30 6 1 6 7
M  V30 7 1 7 8
M  V30 8 2 8 9
M  V30 9 1 9 10
M  V30 10 2 10 11
M  V30 11 1 11 12
M  V30 12 1 12 13
M  V30 13 1 10 14
M  V30 14 1 14 15
M  V30 15 2 15 16
M  V30 16 1 15 17
M  V30 17 1 17 18
M  V30 18 1 18 19
M  V30 19 1 19 20
M  V30 20 1 20 21
M  V30 21 1 21 22
M  V30 22 1 22 23
M  V30 23 2 14 24
M  V30 24 1 24 25
M  V30 25 1 25 26
M  V30 26 2 5 27
M  V30 27 1 27 28
M  V30 28 2 28 29
M  V30 29 1 29 30
M  V30 30 1 30 31
M  V30 31 1 30 32
M  V30 32 1 30 33
M  V30 33 1 29 3
M  V30 34 2 12 7
M  V30 35 1 21 17
M  V30 36 1 25 9
M  V30 37 1 23 19
M  V30 38 1 1 34
M  V30 39 1 1 35
M  V30 40 1 1 36
M  V30 41 1 2 37
M  V30 42 1 6 38
M  V30 43 1 8 39
M  V30 44 1 11 40
M  V30 45 1 18 41
M  V30 46 1 18 42
M  V30 47 1 19 43 CFG=1
M  V30 48 1 20 44
M  V30 49 1 20 45
M  V30 50 1 21 46 CFG=3
M  V30 51 1 22 47
M  V30 52 1 22 48
M  V30 53 1 24 49
M  V30 54 1 26 50
M  V30 55 1 26 51
M  V30 56 1 26 52
M  V30 57 1 28 53
M  V30 END BOND
M  V30 END CTAB
M  END
>  <Dataset>  (352) 
ChEMBL_Kinases

>  <Ligand_Instance>  (352) 
nan

>  <PDB_ID>  (352) 
nan

>  <Standardized_SMILES>  (352) 
CNc1nc(Nc2cc3c(cc2Cl)c(C(=O)N2C[C@@H]4C[C@H]2CO4)cn3C)ncc1C(F)(F)F

>  <Name>  (352) 
nan

>  <Pocket>  (352) 
nan

>  <ATP_Site>  (352) 
nan

>  <Peripheral>  (352) 
nan

>  <Num_H_Atoms_ProtBoundConf>  (352) 
nan

>  <Num_Resolved_Atoms>  (352) 
nan

>  <Num_Not_Resolved_Atoms>  (352) 
nan

$$$$
CHEMBL369532
     RDKit          3D

  0  0  0  0  0  0  0  0  0  0999 V3000
M  V30 BEGIN CTAB
M  V30 COUNTS 70 76 0 0 0
M  V30 BEGIN ATOM
M  V30 1 C 7.138707 1.222187 -0.018597 0
M  V30 2 C 6.382830 1.368127 1.254764 0
M  V30 3 N 6.949743 1.443081 2.470819 0
M  V30 4 C 5.977468 1.569755 3.392796 0
M  V30 5 C 6.001236 1.685155 4.766720 0
M  V30 6 C 4.831972 1.805680 5.497910 0
M  V30 7 C 3.627276 1.805744 4.788844 0
M  V30 8 C 3.657560 1.688354 3.426741 0
M  V30 9 C 4.798895 1.567536 2.674669 0
M  V30 10 N 5.016687 1.443421 1.341601 0
M  V30 11 C 4.019442 1.400004 0.272126 0
M  V30 12 C 3.360026 0.085917 0.130101 0
M  V30 13 C 1.907769 0.198218 -0.350363 0
M  V30 14 N 1.177960 1.198157 0.315228 0
M  V30 15 C 0.302101 0.821602 1.370658 0
M  V30 16 C -0.773391 -0.093143 1.035627 0
M  V30 17 C -1.956396 0.480487 0.600394 0
M  V30 18 C -3.068682 -0.264877 0.251864 0
M  V30 19 C -3.041401 -1.632660 0.325856 0
M  V30 20 C -4.107176 -2.580893 0.004702 0
M  V30 21 N -4.458879 -3.295352 1.114148 0
M  V30 22 C -5.440183 -4.247423 1.054703 0
M  V30 23 C -6.045511 -4.442550 -0.170589 0
M  V30 24 C -7.112727 -5.449210 -0.326414 0
M  V30 25 N -8.408221 -5.627830 -0.650071 0
M  V30 26 N -8.670398 -6.926967 -0.554618 0
M  V30 27 N -7.601319 -7.590134 -0.184128 0
M  V30 28 N -6.648387 -6.691108 -0.043990 0
M  V30 29 C -5.703690 -3.728487 -1.309283 0
M  V30 30 C -4.712668 -2.772981 -1.230845 0
M  V30 31 C -4.206077 -1.922311 -2.286181 0
M  V30 32 C -5.019894 -1.004579 -2.962938 0
M  V30 33 C -4.455675 -0.228616 -3.958883 0
M  V30 34 C -3.109898 -0.337027 -4.301798 0
M  V30 35 C -2.311393 -1.249805 -3.625165 0
M  V30 36 C -2.871433 -2.040552 -2.615335 0
M  V30 37 C -1.872066 -2.235734 0.757558 0
M  V30 38 C -0.769054 -1.469401 1.101965 0
M  V30 39 C 1.714340 2.485697 0.389880 0
M  V30 40 C 3.158699 2.617516 0.201899 0
M  V30 41 H 6.576274 0.775317 -0.837796 0
M  V30 42 H 8.045444 0.593747 0.222778 0
M  V30 43 H 7.588792 2.215607 -0.291879 0
M  V30 44 H 6.935266 1.684779 5.317158 0
M  V30 45 H 4.882168 1.894393 6.573655 0
M  V30 46 H 2.710886 1.900600 5.369225 0
M  V30 47 H 2.704946 1.695566 2.965531 0
M  V30 48 H 4.674463 1.483148 -0.660515 0
M  V30 49 H 3.404261 -0.571652 1.048588 0
M  V30 50 H 3.820601 -0.585918 -0.629325 0
M  V30 51 H 1.868684 0.391167 -1.441773 0
M  V30 52 H 1.463081 -0.798240 -0.183143 0
M  V30 53 H -0.061035 1.751747 1.848747 0
M  V30 54 H 0.936233 0.302960 2.149491 0
M  V30 55 H -2.120024 1.546514 0.492369 0
M  V30 56 H -4.006788 0.148994 -0.091880 0
M  V30 57 H -5.716459 -4.812577 1.933119 0
M  V30 58 H -7.560225 -8.632642 -0.040345 0
M  V30 59 H -6.144010 -3.845598 -2.273614 0
M  V30 60 H -6.065911 -0.923816 -2.693788 0
M  V30 61 H -5.078882 0.486813 -4.489657 0
M  V30 62 H -2.734465 0.310657 -5.100756 0
M  V30 63 H -1.266055 -1.329579 -3.895846 0
M  V30 64 H -2.178789 -2.733573 -2.130110 0
M  V30 65 H -1.741648 -3.323508 0.853841 0
M  V30 66 H 0.139913 -1.932536 1.440965 0
M  V30 67 H 1.431434 2.962224 1.375136 0
M  V30 68 H 1.167644 3.128420 -0.352842 0
M  V30 69 H 3.621359 3.342533 0.955620 0
M  V30 70 H 3.326423 3.185134 -0.766826 0
M  V30 END ATOM
M  V30 BEGIN BOND
M  V30 1 1 1 2
M  V30 2 2 2 3
M  V30 3 1 3 4
M  V30 4 2 4 5
M  V30 5 1 5 6
M  V30 6 2 6 7
M  V30 7 1 7 8
M  V30 8 2 8 9
M  V30 9 1 9 10
M  V30 10 1 10 11
M  V30 11 1 11 12
M  V30 12 1 12 13
M  V30 13 1 13 14
M  V30 14 1 14 15
M  V30 15 1 15 16
M  V30 16 2 16 17
M  V30 17 1 17 18
M  V30 18 2 18 19
M  V30 19 1 19 20
M  V30 20 2 20 21
M  V30 21 1 21 22
M  V30 22 2 22 23
M  V30 23 1 23 24
M  V30 24 1 24 25
M  V30 25 2 25 26
M  V30 26 1 26 27
M  V30 27 1 27 28
M  V30 28 1 23 29
M  V30 29 2 29 30
M  V30 30 1 30 31
M  V30 31 2 31 32
M  V30 32 1 32 33
M  V30 33 2 33 34
M  V30 34 1 34 35
M  V30 35 2 35 36
M  V30 36 1 19 37
M  V30 37 2 37 38
M  V30 38 1 14 39
M  V30 39 1 39 40
M  V30 40 1 10 2
M  V30 41 1 40 11
M  V30 42 1 9 4
M  V30 43 1 38 16
M  V30 44 1 30 20
M  V30 45 1 36 31
M  V30 46 2 28 24
M  V30 47 1 1 41
M  V30 48 1 1 42
M  V30 49 1 1 43
M  V30 50 1 5 44
M  V30 51 1 6 45
M  V30 52 1 7 46
M  V30 53 1 8 47
M  V30 54 1 11 48
M  V30 55 1 12 49
M  V30 56 1 12 50
M  V30 57 1 13 51
M  V30 58 1 13 52
M  V30 59 1 15 53
M  V30 60 1 15 54
M  V30 61 1 17 55
M  V30 62 1 18 56
M  V30 63 1 22 57
M  V30 64 1 27 58
M  V30 65 1 29 59
M  V30 66 1 32 60
M  V30 67 1 33 61
M  V30 68 1 34 62
M  V30 69 1 35 63
M  V30 70 1 36 64
M  V30 71 1 37 65
M  V30 72 1 38 66
M  V30 73 1 39 67
M  V30 74 1 39 68
M  V30 75 1 40 69
M  V30 76 1 40 70
M  V30 END BOND
M  V30 END CTAB
M  END
>  <Dataset>  (353) 
ChEMBL_Kinases

>  <Ligand_Instance>  (353) 
nan

>  <PDB_ID>  (353) 
nan

>  <Standardized_SMILES>  (353) 
Cc1nc2ccccc2n1C1CCN(Cc2ccc(-c3ncc(-c4nn[nH]n4)cc3-c3ccccc3)cc2)CC1

>  <Name>  (353) 
nan

>  <Pocket>  (353) 
nan

>  <ATP_Site>  (353) 
nan

>  <Peripheral>  (353) 
nan

>  <Num_H_Atoms_ProtBoundConf>  (353) 
nan

>  <Num_Resolved_Atoms>  (353) 
nan

>  <Num_Not_Resolved_Atoms>  (353) 
nan

$$$$
CHEMBL3695576
     RDKit          3D

  0  0  0  0  0  0  0  0  0  0999 V3000
M  V30 BEGIN CTAB
M  V30 COUNTS 66 72 0 0 0
M  V30 BEGIN ATOM
M  V30 1 C 4.037723 -0.516480 4.310751 0
M  V30 2 C 3.796810 0.016258 2.949443 0
M  V30 3 C 2.957922 -0.662833 2.089044 0
M  V30 4 C 2.748820 -0.138632 0.812860 0
M  V30 5 C 3.371497 1.044835 0.411328 0
M  V30 6 N 2.994282 1.360435 -0.926270 0
M  V30 7 N 3.621383 1.004649 -2.029975 0
M  V30 8 C 2.949313 1.500264 -3.099538 0
M  V30 9 C 3.384213 1.286445 -4.513546 0
M  V30 10 C 3.799293 -0.185915 -4.788101 0
M  V30 11 C 4.763299 0.942912 -4.861566 0
M  V30 12 C 1.841942 2.206303 -2.682911 0
M  V30 13 C 1.918948 2.085787 -1.304723 0
M  V30 14 N 0.995728 2.643455 -0.347597 0
M  V30 15 C -0.097602 1.796666 -0.003408 0
M  V30 16 O -0.232240 0.640023 -0.512102 0
M  V30 17 N -1.151241 2.122173 0.926071 0
M  V30 18 C -2.159465 1.141142 1.138685 0
M  V30 19 C -3.338184 1.001964 0.439248 0
M  V30 20 C -4.226131 -0.018889 0.773667 0
M  V30 21 C -3.951911 -0.917373 1.811551 0
M  V30 22 O -4.987145 -1.815115 1.925807 0
M  V30 23 C -4.876480 -3.180454 1.761570 0
M  V30 24 C -5.144149 -4.262883 2.595216 0
M  V30 25 C -4.947403 -5.557590 2.190511 0
M  V30 26 N -4.487462 -5.824733 0.969750 0
M  V30 27 C -4.206936 -4.806903 0.107668 0
M  V30 28 N -3.751993 -5.229253 -1.084096 0
M  V30 29 C -3.450676 -4.287493 -1.995008 0
M  V30 30 O -3.020341 -4.616981 -3.129288 0
M  V30 31 C -3.621327 -2.962178 -1.664115 0
M  V30 32 N -4.078361 -2.572609 -0.463415 0
M  V30 33 C -4.393952 -3.471659 0.481955 0
M  V30 34 C -2.766127 -0.744297 2.484787 0
M  V30 35 C -2.592634 -1.671686 3.485485 0
M  V30 36 C -1.447643 -1.616251 4.245698 0
M  V30 37 C -0.522372 -0.619845 3.959855 0
M  V30 38 C -0.734381 0.296644 2.942746 0
M  V30 39 C -1.884301 0.259988 2.161462 0
M  V30 40 C 4.198219 1.700405 1.280180 0
M  V30 41 C 4.404173 1.179964 2.543478 0
M  V30 42 H 3.140507 -1.078491 4.695904 0
M  V30 43 H 4.351891 0.277014 5.023617 0
M  V30 44 H 4.858800 -1.276365 4.215985 0
M  V30 45 H 2.501428 -1.570575 2.444850 0
M  V30 46 H 2.065762 -0.764410 0.223798 0
M  V30 47 H 2.724442 1.759144 -5.289555 0
M  V30 48 H 3.318598 -0.631658 -5.659254 0
M  V30 49 H 3.875155 -0.867927 -3.927504 0
M  V30 50 H 5.074814 1.222151 -5.902345 0
M  V30 51 H 5.581375 1.003106 -4.131447 0
M  V30 52 H 1.107542 2.717950 -3.261924 0
M  V30 53 H 1.016612 3.588176 0.132074 0
M  V30 54 H -1.081333 3.077096 1.375742 0
M  V30 55 H -3.486624 1.718909 -0.339451 0
M  V30 56 H -5.104782 0.010560 0.127138 0
M  V30 57 H -5.513469 -3.888051 3.559489 0
M  V30 58 H -5.202088 -6.283893 2.953490 0
M  V30 59 H -3.624362 -6.213925 -1.332220 0
M  V30 60 H -3.383739 -2.176278 -2.386679 0
M  V30 61 H -3.293169 -2.441818 3.723925 0
M  V30 62 H -1.163664 -2.265891 5.061776 0
M  V30 63 H 0.412166 -0.477680 4.488422 0
M  V30 64 H -0.017137 1.087494 2.703817 0
M  V30 65 H 4.613532 2.597312 0.847696 0
M  V30 66 H 5.071417 1.753486 3.176734 0
M  V30 END ATOM
M  V30 BEGIN BOND
M  V30 1 1 1 2
M  V30 2 2 2 3
M  V30 3 1 3 4
M  V30 4 2 4 5
M  V30 5 1 5 6
M  V30 6 1 6 7
M  V30 7 2 7 8
M  V30 8 1 8 9
M  V30 9 1 9 10
M  V30 10 1 10 11
M  V30 11 1 8 12
M  V30 12 2 12 13
M  V30 13 1 13 14
M  V30 14 1 14 15
M  V30 15 2 15 16
M  V30 16 1 15 17
M  V30 17 1 17 18
M  V30 18 2 18 19
M  V30 19 1 19 20
M  V30 20 2 20 21
M  V30 21 1 21 22
M  V30 22 1 22 23
M  V30 23 2 23 24
M  V30 24 1 24 25
M  V30 25 2 25 26
M  V30 26 1 26 27
M  V30 27 1 27 28
M  V30 28 1 28 29
M  V30 29 2 29 30
M  V30 30 1 29 31
M  V30 31 2 31 32
M  V30 32 1 32 33
M  V30 33 1 21 34
M  V30 34 2 34 35
M  V30 35 1 35 36
M  V30 36 2 36 37
M  V30 37 1 37 38
M  V30 38 2 38 39
M  V30 39 1 5 40
M  V30 40 2 40 41
M  V30 41 1 41 2
M  V30 42 1 13 6
M  V30 43 1 39 18
M  V30 44 1 11 9
M  V30 45 1 33 23
M  V30 46 1 39 34
M  V30 47 2 33 27
M  V30 48 1 1 42
M  V30 49 1 1 43
M  V30 50 1 1 44
M  V30 51 1 3 45
M  V30 52 1 4 46
M  V30 53 1 9 47
M  V30 54 1 10 48
M  V30 55 1 10 49
M  V30 56 1 11 50
M  V30 57 1 11 51
M  V30 58 1 12 52
M  V30 59 1 14 53
M  V30 60 1 17 54
M  V30 61 1 19 55
M  V30 62 1 20 56
M  V30 63 1 24 57
M  V30 64 1 25 58
M  V30 65 1 28 59
M  V30 66 1 31 60
M  V30 67 1 35 61
M  V30 68 1 36 62
M  V30 69 1 37 63
M  V30 70 1 38 64
M  V30 71 1 40 65
M  V30 72 1 41 66
M  V30 END BOND
M  V30 END CTAB
M  END
>  <Dataset>  (354) 
ChEMBL_Kinases

>  <Ligand_Instance>  (354) 
nan

>  <PDB_ID>  (354) 
nan

>  <Standardized_SMILES>  (354) 
Cc1ccc(-n2nc(C3CC3)cc2NC(=O)Nc2ccc(Oc3ccnc4[nH]c(=O)cnc34)c3ccccc23)cc1

>  <Name>  (354) 
nan

>  <Pocket>  (354) 
nan

>  <ATP_Site>  (354) 
nan

>  <Peripheral>  (354) 
nan

>  <Num_H_Atoms_ProtBoundConf>  (354) 
nan

>  <Num_Resolved_Atoms>  (354) 
nan

>  <Num_Not_Resolved_Atoms>  (354) 
nan

$$$$
CHEMBL369572
     RDKit          3D

  0  0  0  0  0  0  0  0  0  0999 V3000
M  V30 BEGIN CTAB
M  V30 COUNTS 62 68 0 0 0
M  V30 BEGIN ATOM
M  V30 1 O -1.337665 -0.285614 6.363987 0
M  V30 2 C -0.168312 0.039440 6.033662 0
M  V30 3 N 0.786137 0.593593 6.929928 0
M  V30 4 C 1.963004 0.808363 6.138204 0
M  V30 5 O 2.966258 1.299152 6.712534 0
M  V30 6 C 1.664648 0.368759 4.779716 0
M  V30 7 C 2.669552 0.424387 3.707110 0
M  V30 8 C 2.987411 -0.594091 2.800497 0
M  V30 9 N 3.949852 -0.153111 1.968194 0
M  V30 10 C 4.252227 1.119072 2.321667 0
M  V30 11 N 5.155970 1.984952 1.776077 0
M  V30 12 C 5.306963 3.226082 2.268060 0
M  V30 13 C 4.526950 3.631877 3.352596 0
M  V30 14 C 3.641985 2.683357 3.834958 0
M  V30 15 N 3.456670 1.446821 3.384618 0
M  V30 16 C 0.403716 -0.090921 4.702014 0
M  V30 17 C -0.152612 -0.581664 3.458008 0
M  V30 18 C 0.097104 0.061198 2.239151 0
M  V30 19 N -0.533694 -0.596227 1.248112 0
M  V30 20 C -1.192910 -1.650272 1.758319 0
M  V30 21 C -1.972952 -2.617418 1.171308 0
M  V30 22 C -2.521438 -3.594366 1.990179 0
M  V30 23 C -2.269697 -3.568239 3.361810 0
M  V30 24 C -1.492878 -2.613730 3.984005 0
M  V30 25 C -0.957769 -1.644562 3.128471 0
M  V30 26 C -2.419899 -2.904226 -0.216895 0
M  V30 27 N -1.629567 -2.181600 -1.198373 0
M  V30 28 C -2.334598 -2.172795 -2.427385 0
M  V30 29 O -3.416190 -2.776708 -2.284768 0
M  V30 30 N -2.158488 -1.681872 -3.735737 0
M  V30 31 C -3.358888 -2.076709 -4.448822 0
M  V30 32 C -3.327201 -1.664473 -5.885903 0
M  V30 33 C -1.925937 -1.484539 -6.405648 0
M  V30 34 C -1.145768 -0.474658 -5.624574 0
M  V30 35 C -0.999332 -0.946009 -4.202749 0
M  V30 36 C -0.322474 -1.575954 -0.913981 0
M  V30 37 C -0.525967 -0.262753 -0.171972 0
M  V30 38 H 0.603740 0.778091 7.937928 0
M  V30 39 H 2.514203 -1.565194 2.802357 0
M  V30 40 H 6.018404 3.949263 1.859118 0
M  V30 41 H 4.631791 4.617454 3.758361 0
M  V30 42 H 3.052505 3.038842 4.666027 0
M  V30 43 H 0.674262 0.940690 1.985859 0
M  V30 44 H -3.162416 -4.424802 1.658668 0
M  V30 45 H -2.689559 -4.325079 4.011053 0
M  V30 46 H -1.315996 -2.629656 5.040885 0
M  V30 47 H -2.316144 -4.022908 -0.346185 0
M  V30 48 H -3.490788 -2.620294 -0.362287 0
M  V30 49 H -4.256441 -1.625903 -3.982524 0
M  V30 50 H -3.415022 -3.181505 -4.434240 0
M  V30 51 H -3.810202 -0.653383 -5.962903 0
M  V30 52 H -3.819392 -2.417739 -6.526903 0
M  V30 53 H -2.001469 -1.099143 -7.442123 0
M  V30 54 H -1.341255 -2.424540 -6.441049 0
M  V30 55 H -1.623092 0.546898 -5.685712 0
M  V30 56 H -0.121351 -0.444467 -6.085079 0
M  V30 57 H -0.817202 -0.078774 -3.506724 0
M  V30 58 H -0.144084 -1.669404 -4.198548 0
M  V30 59 H 0.265609 -2.235686 -0.240182 0
M  V30 60 H 0.226090 -1.444089 -1.857401 0
M  V30 61 H -1.448010 0.261144 -0.449565 0
M  V30 62 H 0.320428 0.413404 -0.411499 0
M  V30 END ATOM
M  V30 BEGIN BOND
M  V30 1 2 1 2
M  V30 2 1 2 3
M  V30 3 1 3 4
M  V30 4 2 4 5
M  V30 5 1 4 6
M  V30 6 1 6 7
M  V30 7 2 7 8
M  V30 8 1 8 9
M  V30 9 2 9 10
M  V30 10 1 10 11
M  V30 11 2 11 12
M  V30 12 1 12 13
M  V30 13 2 13 14
M  V30 14 1 14 15
M  V30 15 2 6 16
M  V30 16 1 16 17
M  V30 17 2 17 18
M  V30 18 1 18 19
M  V30 19 1 19 20
M  V30 20 2 20 21
M  V30 21 1 21 22
M  V30 22 2 22 23
M  V30 23 1 23 24
M  V30 24 2 24 25
M  V30 25 1 21 26
M  V30 26 1 26 27
M  V30 27 1 27 28
M  V30 28 2 28 29
M  V30 29 1 28 30
M  V30 30 1 30 31
M  V30 31 1 31 32
M  V30 32 1 32 33
M  V30 33 1 33 34
M  V30 34 1 34 35
M  V30 35 1 27 36
M  V30 36 1 36 37
M  V30 37 1 16 2
M  V30 38 1 25 17
M  V30 39 1 35 30
M  V30 40 1 15 7
M  V30 41 1 37 19
M  V30 42 1 15 10
M  V30 43 1 25 20
M  V30 44 1 3 38
M  V30 45 1 8 39
M  V30 46 1 12 40
M  V30 47 1 13 41
M  V30 48 1 14 42
M  V30 49 1 18 43
M  V30 50 1 22 44
M  V30 51 1 23 45
M  V30 52 1 24 46
M  V30 53 1 26 47
M  V30 54 1 26 48
M  V30 55 1 31 49
M  V30 56 1 31 50
M  V30 57 1 32 51
M  V30 58 1 32 52
M  V30 59 1 33 53
M  V30 60 1 33 54
M  V30 61 1 34 55
M  V30 62 1 34 56
M  V30 63 1 35 57
M  V30 64 1 35 58
M  V30 65 1 36 59
M  V30 66 1 36 60
M  V30 67 1 37 61
M  V30 68 1 37 62
M  V30 END BOND
M  V30 END CTAB
M  END
>  <Dataset>  (355) 
ChEMBL_Kinases

>  <Ligand_Instance>  (355) 
nan

>  <PDB_ID>  (355) 
nan

>  <Standardized_SMILES>  (355) 
O=C1NC(=O)C(c2cnc3ncccn23)=C1c1cn2c3c(cccc13)CN(C(=O)N1CCCCC1)CC2

>  <Name>  (355) 
nan

>  <Pocket>  (355) 
nan

>  <ATP_Site>  (355) 
nan

>  <Peripheral>  (355) 
nan

>  <Num_H_Atoms_ProtBoundConf>  (355) 
nan

>  <Num_Resolved_Atoms>  (355) 
nan

>  <Num_Not_Resolved_Atoms>  (355) 
nan

$$$$
CHEMBL3696234
     RDKit          3D

  0  0  0  0  0  0  0  0  0  0999 V3000
M  V30 BEGIN CTAB
M  V30 COUNTS 36 37 0 0 0
M  V30 BEGIN ATOM
M  V30 1 C -1.122842 -1.352437 3.818296 0
M  V30 2 C -0.229831 -2.503410 3.384404 0
M  V30 3 O -0.438327 -2.712467 2.012103 0
M  V30 4 C 0.197433 -3.617177 1.191507 0
M  V30 5 O 0.915763 -4.074587 2.100038 0
M  V30 6 C -0.372821 -3.444142 -0.196253 0
M  V30 7 C 0.581451 -2.562132 -0.910680 0
M  V30 8 N 0.291158 -1.295429 -0.526099 0
M  V30 9 C 0.961156 -0.202198 -0.974407 0
M  V30 10 N 0.620583 1.110024 -0.532192 0
M  V30 11 C 1.351803 1.945598 0.409252 0
M  V30 12 C 0.352895 2.123198 1.557159 0
M  V30 13 O -0.546869 3.068915 1.124024 0
M  V30 14 C -1.132138 2.803457 -0.069787 0
M  V30 15 C -0.544125 1.804259 -0.969583 0
M  V30 16 C 1.970634 -0.527881 -1.869356 0
M  V30 17 C 2.334584 -1.779352 -2.315675 0
M  V30 18 O 3.243914 -2.037466 -3.113484 0
M  V30 19 N 1.570463 -2.723004 -1.766606 0
M  V30 20 H -0.439193 -0.500228 4.094194 0
M  V30 21 H -1.773381 -1.048756 2.968977 0
M  V30 22 H -1.764025 -1.605275 4.674695 0
M  V30 23 H 0.817508 -2.309311 3.650916 0
M  V30 24 H -0.621012 -3.400548 3.930313 0
M  V30 25 H -1.407511 -3.110411 -0.206096 0
M  V30 26 H -0.313770 -4.475091 -0.660983 0
M  V30 27 H 2.269425 1.446326 0.774967 0
M  V30 28 H 1.575297 2.902107 -0.100840 0
M  V30 29 H 0.862530 2.445682 2.489014 0
M  V30 30 H -0.208331 1.168211 1.702126 0
M  V30 31 H -1.244752 3.805470 -0.585246 0
M  V30 32 H -2.207232 2.532010 0.152936 0
M  V30 33 H -1.304008 1.066341 -1.312638 0
M  V30 34 H -0.239545 2.326516 -1.926589 0
M  V30 35 H 2.522905 0.348962 -2.242044 0
M  V30 36 H 1.683880 -3.742642 -1.961376 0
M  V30 END ATOM
M  V30 BEGIN BOND
M  V30 1 1 1 2
M  V30 2 1 2 3
M  V30 3 1 3 4
M  V30 4 2 4 5
M  V30 5 1 4 6
M  V30 6 1 6 7
M  V30 7 2 7 8
M  V30 8 1 8 9
M  V30 9 1 9 10
M  V30 10 1 10 11
M  V30 11 1 11 12
M  V30 12 1 12 13
M  V30 13 1 13 14
M  V30 14 1 14 15
M  V30 15 2 9 16
M  V30 16 1 16 17
M  V30 17 2 17 18
M  V30 18 1 17 19
M  V30 19 1 19 7
M  V30 20 1 15 10
M  V30 21 1 1 20
M  V30 22 1 1 21
M  V30 23 1 1 22
M  V30 24 1 2 23
M  V30 25 1 2 24
M  V30 26 1 6 25
M  V30 27 1 6 26
M  V30 28 1 11 27
M  V30 29 1 11 28
M  V30 30 1 12 29
M  V30 31 1 12 30
M  V30 32 1 14 31
M  V30 33 1 14 32
M  V30 34 1 15 33
M  V30 35 1 15 34
M  V30 36 1 16 35
M  V30 37 1 19 36
M  V30 END BOND
M  V30 END CTAB
M  END
>  <Dataset>  (356) 
ChEMBL_Kinases

>  <Ligand_Instance>  (356) 
nan

>  <PDB_ID>  (356) 
nan

>  <Standardized_SMILES>  (356) 
CCOC(=O)Cc1nc(N2CCOCC2)cc(=O)[nH]1

>  <Name>  (356) 
nan

>  <Pocket>  (356) 
nan

>  <ATP_Site>  (356) 
nan

>  <Peripheral>  (356) 
nan

>  <Num_H_Atoms_ProtBoundConf>  (356) 
nan

>  <Num_Resolved_Atoms>  (356) 
nan

>  <Num_Not_Resolved_Atoms>  (356) 
nan

$$$$
CHEMBL3694820
     RDKit          3D

  0  0  0  0  0  0  0  0  0  0999 V3000
M  V30 BEGIN CTAB
M  V30 COUNTS 55 58 0 0 0
M  V30 BEGIN ATOM
M  V30 1 C 5.657530 -1.271337 3.338012 0
M  V30 2 C 4.695356 -2.148123 4.094139 0
M  V30 3 N 3.877895 -1.328842 4.966382 0
M  V30 4 C 2.975529 -0.287293 4.666391 0
M  V30 5 N 2.896232 -0.067690 3.362374 0
M  V30 6 C 2.091550 0.873566 2.818727 0
M  V30 7 N 1.718947 1.438573 1.569656 0
M  V30 8 C 0.852483 0.772317 0.659335 0
M  V30 9 C 0.410472 -0.512520 0.894978 0
M  V30 10 C -0.413554 -1.253302 0.073956 0
M  V30 11 C -0.824721 -0.638504 -1.086373 0
M  V30 12 C -0.408425 0.640862 -1.363953 0
M  V30 13 C 0.416157 1.376559 -0.536797 0
M  V30 14 Cl 0.996231 2.989778 -0.786197 0
M  V30 15 C -1.636612 -1.506137 -1.788118 0
M  V30 16 C -2.315367 -1.295768 -3.087256 0
M  V30 17 O -3.402596 -0.797603 -2.618759 0
M  V30 18 N -3.448478 -0.844354 -3.753914 0
M  V30 19 C -4.760217 -0.277159 -3.394092 0
M  V30 20 C -5.709434 -0.684090 -4.502264 0
M  V30 21 O -5.420155 -0.108192 -5.711217 0
M  V30 22 C -4.065225 0.180820 -5.817848 0
M  V30 23 C -3.264259 -0.962668 -5.221893 0
M  V30 24 C -1.702750 -2.662321 -1.018132 0
M  V30 25 N -0.964216 -2.476821 0.080506 0
M  V30 26 C -0.789176 -3.471245 1.122526 0
M  V30 27 N 1.364204 1.582632 3.720965 0
M  V30 28 C 1.412336 1.395913 5.052764 0
M  V30 29 C 2.234166 0.438675 5.570986 0
M  V30 30 C 2.408187 0.104120 7.010033 0
M  V30 31 F 1.591947 0.938621 7.767450 0
M  V30 32 F 3.720309 0.373449 7.356999 0
M  V30 33 F 2.076196 -1.195922 7.278939 0
M  V30 34 H 5.551637 -0.198631 3.605183 0
M  V30 35 H 6.710811 -1.631757 3.515885 0
M  V30 36 H 5.419310 -1.359281 2.251504 0
M  V30 37 H 3.999095 -2.653978 3.387158 0
M  V30 38 H 5.258860 -2.915513 4.658136 0
M  V30 39 H 3.955264 -1.523240 6.001610 0
M  V30 40 H 2.079438 2.361193 1.306930 0
M  V30 41 H 0.711078 -1.048838 1.809024 0
M  V30 42 H -0.712347 1.169889 -2.278504 0
M  V30 43 H -5.189391 -0.778796 -2.474171 0
M  V30 44 H -4.727168 0.787845 -3.180334 0
M  V30 45 H -5.606702 -1.808320 -4.564422 0
M  V30 46 H -6.737468 -0.508417 -4.151525 0
M  V30 47 H -3.866714 1.087134 -5.212498 0
M  V30 48 H -3.785119 0.431614 -6.849057 0
M  V30 49 H -3.655021 -1.949699 -5.497562 0
M  V30 50 H -2.207864 -0.822283 -5.500903 0
M  V30 51 H -2.269280 -3.538131 -1.300693 0
M  V30 52 H -0.225174 -4.308220 0.616372 0
M  V30 53 H -1.719574 -3.896856 1.502937 0
M  V30 54 H -0.156009 -3.091766 1.919632 0
M  V30 55 H 0.846879 1.939120 5.824243 0
M  V30 END ATOM
M  V30 BEGIN BOND
M  V30 1 1 1 2
M  V30 2 1 2 3
M  V30 3 1 3 4
M  V30 4 2 4 5
M  V30 5 1 5 6
M  V30 6 1 6 7
M  V30 7 1 7 8
M  V30 8 2 8 9
M  V30 9 1 9 10
M  V30 10 2 10 11
M  V30 11 1 11 12
M  V30 12 2 12 13
M  V30 13 1 13 14
M  V30 14 1 11 15
M  V30 15 1 15 16
M  V30 16 2 16 17
M  V30 17 1 16 18
M  V30 18 1 18 19
M  V30 19 1 19 20
M  V30 20 1 20 21
M  V30 21 1 21 22
M  V30 22 1 22 23
M  V30 23 2 15 24
M  V30 24 1 24 25
M  V30 25 1 25 26
M  V30 26 2 6 27
M  V30 27 1 27 28
M  V30 28 2 28 29
M  V30 29 1 29 30
M  V30 30 1 30 31
M  V30 31 1 30 32
M  V30 32 1 30 33
M  V30 33 1 29 4
M  V30 34 1 13 8
M  V30 35 1 23 18
M  V30 36 1 25 10
M  V30 37 1 1 34
M  V30 38 1 1 35
M  V30 39 1 1 36
M  V30 40 1 2 37
M  V30 41 1 2 38
M  V30 42 1 3 39
M  V30 43 1 7 40
M  V30 44 1 9 41
M  V30 45 1 12 42
M  V30 46 1 19 43
M  V30 47 1 19 44
M  V30 48 1 20 45
M  V30 49 1 20 46
M  V30 50 1 22 47
M  V30 51 1 22 48
M  V30 52 1 23 49
M  V30 53 1 23 50
M  V30 54 1 24 51
M  V30 55 1 26 52
M  V30 56 1 26 53
M  V30 57 1 26 54
M  V30 58 1 28 55
M  V30 END BOND
M  V30 END CTAB
M  END
>  <Dataset>  (357) 
ChEMBL_Kinases

>  <Ligand_Instance>  (357) 
nan

>  <PDB_ID>  (357) 
nan

>  <Standardized_SMILES>  (357) 
CCNc1nc(Nc2cc3c(cc2Cl)c(C(=O)N2CCOCC2)cn3C)ncc1C(F)(F)F

>  <Name>  (357) 
nan

>  <Pocket>  (357) 
nan

>  <ATP_Site>  (357) 
nan

>  <Peripheral>  (357) 
nan

>  <Num_H_Atoms_ProtBoundConf>  (357) 
nan

>  <Num_Resolved_Atoms>  (357) 
nan

>  <Num_Not_Resolved_Atoms>  (357) 
nan

$$$$
CHEMBL3698960
     RDKit          3D

  0  0  0  0  0  0  0  0  0  0999 V3000
M  V30 BEGIN CTAB
M  V30 COUNTS 56 58 0 0 0
M  V30 BEGIN ATOM
M  V30 1 C -0.043963 -0.381000 0.945115 0
M  V30 2 C 0.089522 0.633865 2.098301 0
M  V30 3 C 1.216643 1.134345 3.014886 0
M  V30 4 C 2.067168 0.012636 2.459343 0
M  V30 5 O 2.969493 0.893713 2.802313 0
M  V30 6 N 2.653263 -1.089034 1.927786 0
M  V30 7 C 4.058514 -1.292340 1.682233 0
M  V30 8 C 4.588167 -0.290857 0.697817 0
M  V30 9 N 5.987319 -0.437239 0.349862 0
M  V30 10 C 6.240034 -1.623598 -0.427905 0
M  V30 11 C 6.335409 0.739012 -0.421998 0
M  V30 12 S 0.378874 2.291830 3.587472 0
M  V30 13 C -1.227919 2.403676 2.971846 0
M  V30 14 N -2.219409 3.277039 3.259598 0
M  V30 15 C -3.387100 3.148649 2.650262 0
M  V30 16 N -3.433195 2.145452 1.807361 0
M  V30 17 C -2.417532 1.305446 1.557417 0
M  V30 18 N -2.789303 0.333354 0.604119 0
M  V30 19 C -3.350277 -0.930896 0.862755 0
M  V30 20 C -3.628839 -1.191417 2.233931 0
M  V30 21 C -4.202208 -2.458360 2.467893 0
M  V30 22 C -4.479301 -3.377300 1.493372 0
M  V30 23 F -5.042565 -4.561526 1.881330 0
M  V30 24 C -4.202551 -3.117506 0.146972 0
M  V30 25 C -3.650586 -1.887574 -0.047147 0
M  V30 26 O -3.321188 -1.485758 -1.320463 0
M  V30 27 C -3.539120 -2.247307 -2.466490 0
M  V30 28 C -2.221718 -2.995636 -2.822765 0
M  V30 29 F -1.239639 -2.074819 -3.070429 0
M  V30 30 C -3.852872 -1.450939 -3.716365 0
M  V30 31 F -4.973845 -0.691004 -3.583028 0
M  V30 32 C -1.161838 1.324427 2.116601 0
M  V30 33 H -0.485268 -1.294648 1.190796 0
M  V30 34 H -0.592935 0.103767 0.070512 0
M  V30 35 H 0.963490 -0.476339 0.417339 0
M  V30 36 H 1.774390 -1.642480 1.861689 0
M  V30 37 H 4.688471 -1.229708 2.622840 0
M  V30 38 H 4.149912 -2.332661 1.343097 0
M  V30 39 H 3.971060 -0.285436 -0.223719 0
M  V30 40 H 4.492916 0.726252 1.145542 0
M  V30 41 H 5.434913 -2.387713 -0.280620 0
M  V30 42 H 7.255638 -2.022403 -0.260335 0
M  V30 43 H 6.191097 -1.339798 -1.503169 0
M  V30 44 H 7.266046 1.223380 0.001282 0
M  V30 45 H 5.528064 1.524011 -0.398223 0
M  V30 46 H 6.520304 0.555496 -1.490415 0
M  V30 47 H -4.082159 3.892644 2.954710 0
M  V30 48 H -2.684257 0.558511 -0.415044 0
M  V30 49 H -3.452090 -0.546220 3.061989 0
M  V30 50 H -4.448043 -2.718769 3.517666 0
M  V30 51 H -4.440792 -3.865862 -0.567641 0
M  V30 52 H -4.286471 -3.051923 -2.362774 0
M  V30 53 H -1.993330 -3.703455 -1.993172 0
M  V30 54 H -2.403581 -3.544688 -3.760769 0
M  V30 55 H -3.007014 -0.784855 -4.013686 0
M  V30 56 H -3.936297 -2.222300 -4.537047 0
M  V30 END ATOM
M  V30 BEGIN BOND
M  V30 1 1 1 2
M  V30 2 2 2 3
M  V30 3 1 3 4
M  V30 4 2 4 5
M  V30 5 1 4 6
M  V30 6 1 6 7
M  V30 7 1 7 8
M  V30 8 1 8 9
M  V30 9 1 9 10
M  V30 10 1 9 11
M  V30 11 1 3 12
M  V30 12 1 12 13
M  V30 13 2 13 14
M  V30 14 1 14 15
M  V30 15 2 15 16
M  V30 16 1 16 17
M  V30 17 1 17 18
M  V30 18 1 18 19
M  V30 19 2 19 20
M  V30 20 1 20 21
M  V30 21 2 21 22
M  V30 22 1 22 23
M  V30 23 1 22 24
M  V30 24 2 24 25
M  V30 25 1 25 26
M  V30 26 1 26 27
M  V30 27 1 27 28
M  V30 28 1 28 29
M  V30 29 1 27 30
M  V30 30 1 30 31
M  V30 31 2 17 32
M  V30 32 1 32 2
M  V30 33 1 32 13
M  V30 34 1 25 19
M  V30 35 1 1 33
M  V30 36 1 1 34
M  V30 37 1 1 35
M  V30 38 1 6 36
M  V30 39 1 7 37
M  V30 40 1 7 38
M  V30 41 1 8 39
M  V30 42 1 8 40
M  V30 43 1 10 41
M  V30 44 1 10 42
M  V30 45 1 10 43
M  V30 46 1 11 44
M  V30 47 1 11 45
M  V30 48 1 11 46
M  V30 49 1 15 47
M  V30 50 1 18 48
M  V30 51 1 20 49
M  V30 52 1 21 50
M  V30 53 1 24 51
M  V30 54 1 27 52
M  V30 55 1 28 53
M  V30 56 1 28 54
M  V30 57 1 30 55
M  V30 58 1 30 56
M  V30 END BOND
M  V30 END CTAB
M  END
>  <Dataset>  (358) 
ChEMBL_Kinases

>  <Ligand_Instance>  (358) 
nan

>  <PDB_ID>  (358) 
nan

>  <Standardized_SMILES>  (358) 
Cc1c(C(=O)NCCN(C)C)sc2ncnc(Nc3ccc(F)cc3OC(CF)CF)c12

>  <Name>  (358) 
nan

>  <Pocket>  (358) 
nan

>  <ATP_Site>  (358) 
nan

>  <Peripheral>  (358) 
nan

>  <Num_H_Atoms_ProtBoundConf>  (358) 
nan

>  <Num_Resolved_Atoms>  (358) 
nan

>  <Num_Not_Resolved_Atoms>  (358) 
nan

$$$$
CHEMBL3698959
     RDKit          3D

  0  0  0  0  0  0  0  0  0  0999 V3000
M  V30 BEGIN CTAB
M  V30 COUNTS 59 61 0 0 0
M  V30 BEGIN ATOM
M  V30 1 C -0.178598 0.099384 2.077700 0
M  V30 2 C -1.050615 0.728597 1.059027 0
M  V30 3 C -0.351519 1.190018 0.008716 0
M  V30 4 C 0.981632 1.316095 -0.504084 0
M  V30 5 O 1.172996 1.877229 -1.643970 0
M  V30 6 N 2.234497 0.933998 0.000297 0
M  V30 7 C 3.515585 1.120493 -0.636108 0
M  V30 8 C 3.659827 0.430293 -1.963469 0
M  V30 9 C 5.020367 0.657626 -2.582236 0
M  V30 10 N 5.151128 -0.010490 -3.860716 0
M  V30 11 C 6.477238 0.230217 -4.436110 0
M  V30 12 C 4.204207 0.484250 -4.831786 0
M  V30 13 S -1.591263 1.872999 -1.067278 0
M  V30 14 C -3.015682 1.498916 -0.030472 0
M  V30 15 N -4.344553 1.697831 -0.114285 0
M  V30 16 C -5.182898 1.306456 0.857265 0
M  V30 17 N -4.620010 0.714839 1.897101 0
M  V30 18 C -3.312641 0.498605 2.018730 0
M  V30 19 N -3.034911 -0.145070 3.253703 0
M  V30 20 C -3.213682 -1.414043 3.881024 0
M  V30 21 C -3.914835 -1.208329 5.076161 0
M  V30 22 C -4.245387 -2.289079 5.901171 0
M  V30 23 C -3.845920 -3.534965 5.472076 0
M  V30 24 F -4.147796 -4.623090 6.249426 0
M  V30 25 C -3.159127 -3.702158 4.293420 0
M  V30 26 C -2.817605 -2.657609 3.454788 0
M  V30 27 O -2.144418 -2.737081 2.269850 0
M  V30 28 C -1.677702 -3.907339 1.673000 0
M  V30 29 C -0.269788 -3.877523 1.173239 0
M  V30 30 F -0.042003 -2.938842 0.214000 0
M  V30 31 C -2.626224 -4.259332 0.497453 0
M  V30 32 F -2.633569 -3.233597 -0.417382 0
M  V30 33 C -2.409655 0.877878 1.056716 0
M  V30 34 H -0.705336 -0.341937 2.943316 0
M  V30 35 H 0.495756 0.861290 2.567618 0
M  V30 36 H 0.388601 -0.765890 1.660556 0
M  V30 37 H 2.196216 0.473014 0.940123 0
M  V30 38 H 4.308296 0.820946 0.078468 0
M  V30 39 H 3.642045 2.212470 -0.849235 0
M  V30 40 H 3.552187 -0.675125 -1.748881 0
M  V30 41 H 2.843819 0.674415 -2.664417 0
M  V30 42 H 5.140967 1.743741 -2.760248 0
M  V30 43 H 5.822931 0.325263 -1.899339 0
M  V30 44 H 6.679809 -0.572613 -5.191314 0
M  V30 45 H 6.416315 1.179634 -5.010989 0
M  V30 46 H 7.258565 0.245689 -3.647394 0
M  V30 47 H 4.128692 1.598869 -4.853954 0
M  V30 48 H 4.623854 0.218114 -5.846515 0
M  V30 49 H 3.219371 -0.027211 -4.806337 0
M  V30 50 H -6.217671 1.532597 0.651077 0
M  V30 51 H -2.582084 0.665911 3.781035 0
M  V30 52 H -4.269517 -0.275216 5.495471 0
M  V30 53 H -4.778340 -2.211486 6.829120 0
M  V30 54 H -2.890951 -4.694676 4.038126 0
M  V30 55 H -1.781714 -4.745344 2.388974 0
M  V30 56 H 0.447885 -3.674452 1.997136 0
M  V30 57 H -0.066196 -4.884141 0.723569 0
M  V30 58 H -3.597107 -4.530695 0.905123 0
M  V30 59 H -2.194598 -5.165283 -0.008506 0
M  V30 END ATOM
M  V30 BEGIN BOND
M  V30 1 1 1 2
M  V30 2 2 2 3
M  V30 3 1 3 4
M  V30 4 2 4 5
M  V30 5 1 4 6
M  V30 6 1 6 7
M  V30 7 1 7 8
M  V30 8 1 8 9
M  V30 9 1 9 10
M  V30 10 1 10 11
M  V30 11 1 10 12
M  V30 12 1 3 13
M  V30 13 1 13 14
M  V30 14 2 14 15
M  V30 15 1 15 16
M  V30 16 2 16 17
M  V30 17 1 17 18
M  V30 18 1 18 19
M  V30 19 1 19 20
M  V30 20 2 20 21
M  V30 21 1 21 22
M  V30 22 2 22 23
M  V30 23 1 23 24
M  V30 24 1 23 25
M  V30 25 2 25 26
M  V30 26 1 26 27
M  V30 27 1 27 28
M  V30 28 1 28 29
M  V30 29 1 29 30
M  V30 30 1 28 31
M  V30 31 1 31 32
M  V30 32 2 18 33
M  V30 33 1 33 2
M  V30 34 1 33 14
M  V30 35 1 26 20
M  V30 36 1 1 34
M  V30 37 1 1 35
M  V30 38 1 1 36
M  V30 39 1 6 37
M  V30 40 1 7 38
M  V30 41 1 7 39
M  V30 42 1 8 40
M  V30 43 1 8 41
M  V30 44 1 9 42
M  V30 45 1 9 43
M  V30 46 1 11 44
M  V30 47 1 11 45
M  V30 48 1 11 46
M  V30 49 1 12 47
M  V30 50 1 12 48
M  V30 51 1 12 49
M  V30 52 1 16 50
M  V30 53 1 19 51
M  V30 54 1 21 52
M  V30 55 1 22 53
M  V30 56 1 25 54
M  V30 57 1 28 55
M  V30 58 1 29 56
M  V30 59 1 29 57
M  V30 60 1 31 58
M  V30 61 1 31 59
M  V30 END BOND
M  V30 END CTAB
M  END
>  <Dataset>  (359) 
ChEMBL_Kinases

>  <Ligand_Instance>  (359) 
nan

>  <PDB_ID>  (359) 
nan

>  <Standardized_SMILES>  (359) 
Cc1c(C(=O)NCCCN(C)C)sc2ncnc(Nc3ccc(F)cc3OC(CF)CF)c12

>  <Name>  (359) 
nan

>  <Pocket>  (359) 
nan

>  <ATP_Site>  (359) 
nan

>  <Peripheral>  (359) 
nan

>  <Num_H_Atoms_ProtBoundConf>  (359) 
nan

>  <Num_Resolved_Atoms>  (359) 
nan

>  <Num_Not_Resolved_Atoms>  (359) 
nan

$$$$
CHEMBL3698958
     RDKit          3D

  0  0  0  0  0  0  0  0  0  0999 V3000
M  V30 BEGIN CTAB
M  V30 COUNTS 66 69 0 0 0
M  V30 BEGIN ATOM
M  V30 1 C 0.071181 -1.590166 1.051339 0
M  V30 2 C 1.207707 -1.888393 1.979616 0
M  V30 3 C 2.482907 -1.772569 1.470131 0
M  V30 4 C 2.919885 -1.419690 0.161092 0
M  V30 5 O 2.283676 -1.137975 -0.855975 0
M  V30 6 N 4.324617 -1.340446 -0.156864 0
M  V30 7 C 4.592582 -0.988779 -1.525389 0 CFG=2
M  V30 8 C 5.648291 -0.185537 -2.063986 0
M  V30 9 C 4.386590 0.568086 -1.753625 0 CFG=1
M  V30 10 N 3.409882 0.855537 -2.796753 0
M  V30 11 C 2.261850 1.628341 -2.551171 0
M  V30 12 O 2.224587 2.009093 -1.352815 0
M  V30 13 O 1.321085 1.905040 -3.529101 0
M  V30 14 C 0.191362 2.671501 -3.189850 0
M  V30 15 C -0.653649 2.810710 -4.455846 0
M  V30 16 C 0.501046 4.021634 -2.611821 0
M  V30 17 C -0.684958 1.950925 -2.172429 0
M  V30 18 S 3.557195 -2.165089 2.816213 0
M  V30 19 C 2.239155 -2.474290 4.012130 0
M  V30 20 N 2.233005 -2.851937 5.301397 0
M  V30 21 C 1.096592 -3.041157 5.989043 0
M  V30 22 N 0.005210 -2.827121 5.300598 0
M  V30 23 C -0.137689 -2.451573 4.028676 0
M  V30 24 N -1.423364 -2.254537 3.416721 0
M  V30 25 C -2.088135 -3.254835 2.643454 0
M  V30 26 C -1.476074 -4.467647 2.550889 0
M  V30 27 C -2.086392 -5.336049 1.668332 0
M  V30 28 C -3.223548 -4.987203 0.947459 0
M  V30 29 F -3.727889 -5.923517 0.112201 0
M  V30 30 C -3.742309 -3.721758 1.139493 0
M  V30 31 C -3.205308 -2.757340 2.011030 0
M  V30 32 O -3.917885 -1.642166 1.978187 0
M  V30 33 C -4.042453 -0.475151 2.632382 0
M  V30 34 C -5.473458 -0.280340 3.211917 0
M  V30 35 F -6.334890 -0.313257 2.119785 0
M  V30 36 C -3.893936 0.715540 1.687619 0
M  V30 37 F -2.692142 0.758284 1.050145 0
M  V30 38 C 1.053192 -2.252848 3.298848 0
M  V30 39 H -0.314927 -2.478911 0.565374 0
M  V30 40 H 0.375305 -0.908124 0.218796 0
M  V30 41 H -0.760545 -1.036253 1.533577 0
M  V30 42 H 5.082642 -1.528302 0.570235 0
M  V30 43 H 3.919692 -1.539558 -2.261963 0
M  V30 44 H 5.837508 -0.264649 -3.179442 0
M  V30 45 H 6.545556 0.168789 -1.562297 0
M  V30 46 H 4.277046 1.128126 -0.806763 0
M  V30 47 H 3.613620 0.439048 -3.759329 0
M  V30 48 H -0.282894 3.557012 -5.155497 0
M  V30 49 H -1.698553 2.931832 -4.124607 0
M  V30 50 H -0.626180 1.789156 -4.944293 0
M  V30 51 H -0.442872 4.619908 -2.716644 0
M  V30 52 H 1.382853 4.504844 -3.054316 0
M  V30 53 H 0.669384 3.895838 -1.520548 0
M  V30 54 H -0.536475 0.870369 -2.237004 0
M  V30 55 H -0.512169 2.362363 -1.148704 0
M  V30 56 H -1.734505 2.202579 -2.411736 0
M  V30 57 H 1.191177 -3.341300 7.018730 0
M  V30 58 H -1.448712 -1.289058 3.794190 0
M  V30 59 H -0.594844 -4.670650 3.140231 0
M  V30 60 H -1.655690 -6.317860 1.542421 0
M  V30 61 H -4.636278 -3.590861 0.505048 0
M  V30 62 H -3.404363 -0.311917 3.520584 0
M  V30 63 H -5.699162 -1.043033 3.957467 0
M  V30 64 H -5.487124 0.768194 3.576072 0
M  V30 65 H -4.000668 1.635309 2.349571 0
M  V30 66 H -4.709559 0.779484 0.945013 0
M  V30 END ATOM
M  V30 BEGIN BOND
M  V30 1 1 1 2
M  V30 2 2 2 3
M  V30 3 1 3 4
M  V30 4 2 4 5
M  V30 5 1 4 6
M  V30 6 1 6 7
M  V30 7 1 7 8
M  V30 8 1 8 9
M  V30 9 1 9 10
M  V30 10 1 10 11
M  V30 11 2 11 12
M  V30 12 1 11 13
M  V30 13 1 13 14
M  V30 14 1 14 15
M  V30 15 1 14 16
M  V30 16 1 14 17
M  V30 17 1 3 18
M  V30 18 1 18 19
M  V30 19 2 19 20
M  V30 20 1 20 21
M  V30 21 2 21 22
M  V30 22 1 22 23
M  V30 23 1 23 24
M  V30 24 1 24 25
M  V30 25 2 25 26
M  V30 26 1 26 27
M  V30 27 2 27 28
M  V30 28 1 28 29
M  V30 29 1 28 30
M  V30 30 2 30 31
M  V30 31 1 31 32
M  V30 32 1 32 33
M  V30 33 1 33 34
M  V30 34 1 34 35
M  V30 35 1 33 36
M  V30 36 1 36 37
M  V30 37 2 23 38
M  V30 38 1 38 2
M  V30 39 1 9 7
M  V30 40 1 38 19
M  V30 41 1 31 25
M  V30 42 1 1 39
M  V30 43 1 1 40
M  V30 44 1 1 41
M  V30 45 1 6 42
M  V30 46 1 7 43 CFG=3
M  V30 47 1 8 44
M  V30 48 1 8 45
M  V30 49 1 9 46 CFG=1
M  V30 50 1 10 47
M  V30 51 1 15 48
M  V30 52 1 15 49
M  V30 53 1 15 50
M  V30 54 1 16 51
M  V30 55 1 16 52
M  V30 56 1 16 53
M  V30 57 1 17 54
M  V30 58 1 17 55
M  V30 59 1 17 56
M  V30 60 1 21 57
M  V30 61 1 24 58
M  V30 62 1 26 59
M  V30 63 1 27 60
M  V30 64 1 30 61
M  V30 65 1 33 62
M  V30 66 1 34 63
M  V30 67 1 34 64
M  V30 68 1 36 65
M  V30 69 1 36 66
M  V30 END BOND
M  V30 END CTAB
M  END
>  <Dataset>  (360) 
ChEMBL_Kinases

>  <Ligand_Instance>  (360) 
nan

>  <PDB_ID>  (360) 
nan

>  <Standardized_SMILES>  (360) 
Cc1c(C(=O)N[C@@H]2C[C@H]2NC(=O)OC(C)(C)C)sc2ncnc(Nc3ccc(F)cc3OC(CF)CF)c12

>  <Name>  (360) 
nan

>  <Pocket>  (360) 
nan

>  <ATP_Site>  (360) 
nan

>  <Peripheral>  (360) 
nan

>  <Num_H_Atoms_ProtBoundConf>  (360) 
nan

>  <Num_Resolved_Atoms>  (360) 
nan

>  <Num_Not_Resolved_Atoms>  (360) 
nan

$$$$
CHEMBL3698957
     RDKit          3D

  0  0  0  0  0  0  0  0  0  0999 V3000
M  V30 BEGIN CTAB
M  V30 COUNTS 45 47 0 0 0
M  V30 BEGIN ATOM
M  V30 1 C -1.836052 -6.589419 1.570735 0
M  V30 2 N -1.348858 -5.344162 1.025648 0
M  V30 3 C -0.884355 -5.073332 -0.260026 0
M  V30 4 O -0.929035 -6.105579 -0.977143 0
M  V30 5 C -0.388682 -3.838049 -0.841013 0
M  V30 6 S 0.091122 -3.999845 -2.541412 0
M  V30 7 C 0.606888 -2.262145 -2.776583 0
M  V30 8 N 1.091237 -1.618186 -3.839024 0
M  V30 9 C 1.387311 -0.316924 -3.741503 0
M  V30 10 N 1.158581 0.229685 -2.537089 0
M  V30 11 C 0.674439 -0.413692 -1.473353 0
M  V30 12 N 0.561612 0.476361 -0.385795 0
M  V30 13 C 1.538546 0.984667 0.538293 0
M  V30 14 C 2.824111 0.536266 0.334406 0
M  V30 15 C 3.809932 0.988546 1.184751 0
M  V30 16 C 3.455726 1.861180 2.188217 0
M  V30 17 F 4.383353 2.341351 3.054782 0
M  V30 18 C 2.154103 2.282672 2.353720 0
M  V30 19 C 1.131641 1.859707 1.530415 0
M  V30 20 O -0.189039 2.152734 1.530436 0
M  V30 21 C -0.959329 2.955501 2.339355 0
M  V30 22 C -0.651481 4.427808 2.303906 0
M  V30 23 F -0.818602 4.926165 1.018867 0
M  V30 24 C -1.068072 2.474434 3.770216 0
M  V30 25 F -1.641144 1.199335 3.805807 0
M  V30 26 C 0.362822 -1.745439 -1.548300 0
M  V30 27 C -0.140391 -2.491008 -0.528581 0
M  V30 28 C -0.484564 -2.124314 0.863002 0
M  V30 29 H -1.451076 -6.794175 2.589742 0
M  V30 30 H -2.958135 -6.571663 1.660983 0
M  V30 31 H -1.587096 -7.470780 0.945844 0
M  V30 32 H -1.365885 -4.589075 1.711816 0
M  V30 33 H 1.777738 0.187743 -4.609522 0
M  V30 34 H -0.462573 0.729898 -0.369064 0
M  V30 35 H 3.086747 -0.148309 -0.456345 0
M  V30 36 H 4.851457 0.710119 1.128363 0
M  V30 37 H 1.863812 2.967045 3.135352 0
M  V30 38 H -2.024393 2.879724 1.944150 0
M  V30 39 H 0.299445 4.719529 2.753976 0
M  V30 40 H -1.467482 4.910623 2.922264 0
M  V30 41 H -1.762324 3.125753 4.329446 0
M  V30 42 H -0.129359 2.421595 4.315192 0
M  V30 43 H -1.561543 -2.361736 1.019522 0
M  V30 44 H 0.090295 -2.764795 1.588307 0
M  V30 45 H -0.262616 -1.098823 1.147386 0
M  V30 END ATOM
M  V30 BEGIN BOND
M  V30 1 1 1 2
M  V30 2 1 2 3
M  V30 3 2 3 4
M  V30 4 1 3 5
M  V30 5 1 5 6
M  V30 6 1 6 7
M  V30 7 2 7 8
M  V30 8 1 8 9
M  V30 9 2 9 10
M  V30 10 1 10 11
M  V30 11 1 11 12
M  V30 12 1 12 13
M  V30 13 2 13 14
M  V30 14 1 14 15
M  V30 15 2 15 16
M  V30 16 1 16 17
M  V30 17 1 16 18
M  V30 18 2 18 19
M  V30 19 1 19 20
M  V30 20 1 20 21
M  V30 21 1 21 22
M  V30 22 1 22 23
M  V30 23 1 21 24
M  V30 24 1 24 25
M  V30 25 2 11 26
M  V30 26 1 26 27
M  V30 27 1 27 28
M  V30 28 2 27 5
M  V30 29 1 26 7
M  V30 30 1 19 13
M  V30 31 1 1 29
M  V30 32 1 1 30
M  V30 33 1 1 31
M  V30 34 1 2 32
M  V30 35 1 9 33
M  V30 36 1 12 34
M  V30 37 1 14 35
M  V30 38 1 15 36
M  V30 39 1 18 37
M  V30 40 1 21 38
M  V30 41 1 22 39
M  V30 42 1 22 40
M  V30 43 1 24 41
M  V30 44 1 24 42
M  V30 45 1 28 43
M  V30 46 1 28 44
M  V30 47 1 28 45
M  V30 END BOND
M  V30 END CTAB
M  END
>  <Dataset>  (361) 
ChEMBL_Kinases

>  <Ligand_Instance>  (361) 
nan

>  <PDB_ID>  (361) 
nan

>  <Standardized_SMILES>  (361) 
CNC(=O)c1sc2ncnc(Nc3ccc(F)cc3OC(CF)CF)c2c1C

>  <Name>  (361) 
nan

>  <Pocket>  (361) 
nan

>  <ATP_Site>  (361) 
nan

>  <Peripheral>  (361) 
nan

>  <Num_H_Atoms_ProtBoundConf>  (361) 
nan

>  <Num_Resolved_Atoms>  (361) 
nan

>  <Num_Not_Resolved_Atoms>  (361) 
nan

$$$$
CHEMBL3698956
     RDKit          3D

  0  0  0  0  0  0  0  0  0  0999 V3000
M  V30 BEGIN CTAB
M  V30 COUNTS 42 44 0 0 0
M  V30 BEGIN ATOM
M  V30 1 C 1.887644 0.668331 1.586662 0
M  V30 2 C 3.038015 0.275619 0.703221 0
M  V30 3 C 4.307379 0.665707 1.046739 0
M  V30 4 C 4.915115 1.417219 2.130438 0
M  V30 5 N 4.187934 1.966269 3.214854 0
M  V30 6 O 6.113223 1.684572 2.270254 0
M  V30 7 S 5.424419 0.031521 -0.220580 0
M  V30 8 C 4.028878 -0.752615 -1.167082 0
M  V30 9 N 4.056499 -1.474055 -2.320329 0
M  V30 10 C 2.929011 -1.968721 -2.851168 0
M  V30 11 N 1.847478 -1.681468 -2.148941 0
M  V30 12 C 1.807218 -0.979999 -1.024645 0
M  V30 13 N 0.489235 -0.851985 -0.517632 0
M  V30 14 C -0.031901 -1.738436 0.458881 0
M  V30 15 C 0.844269 -2.712061 0.882795 0
M  V30 16 C 0.429087 -3.622822 1.828956 0
M  V30 17 C -0.857015 -3.514602 2.311006 0
M  V30 18 F -1.386817 -4.360321 3.255287 0
M  V30 19 C -1.704960 -2.531821 1.866552 0
M  V30 20 C -1.345787 -1.596897 0.924946 0
M  V30 21 O -2.036978 -0.552105 0.356895 0
M  V30 22 C -3.360131 -0.280467 0.706024 0
M  V30 23 C -3.533851 1.142439 1.223721 0
M  V30 24 F -3.161012 2.074513 0.265334 0
M  V30 25 C -4.282080 -0.350885 -0.523577 0
M  V30 26 F -5.543114 -0.070980 -0.070031 0
M  V30 27 C 2.940294 -0.450415 -0.439612 0
M  V30 28 H 2.138903 1.607818 2.107479 0
M  V30 29 H 0.990662 0.915676 0.974674 0
M  V30 30 H 1.662822 -0.106545 2.347188 0
M  V30 31 H 3.587252 2.136244 4.029479 0
M  V30 32 H 3.923546 2.772675 3.782934 0
M  V30 33 H 3.113335 -2.504195 -3.744623 0
M  V30 34 H 0.021591 -0.031380 -0.983794 0
M  V30 35 H 1.851990 -2.794219 0.502792 0
M  V30 36 H 1.018865 -4.423167 2.236175 0
M  V30 37 H -2.703783 -2.434995 2.230943 0
M  V30 38 H -3.796056 -0.953999 1.455355 0
M  V30 39 H -4.635152 1.285772 1.341088 0
M  V30 40 H -3.076781 1.297535 2.198524 0
M  V30 41 H -3.972664 0.395324 -1.287121 0
M  V30 42 H -4.261689 -1.390623 -0.908351 0
M  V30 END ATOM
M  V30 BEGIN BOND
M  V30 1 1 1 2
M  V30 2 2 2 3
M  V30 3 1 3 4
M  V30 4 1 4 5
M  V30 5 2 4 6
M  V30 6 1 3 7
M  V30 7 1 7 8
M  V30 8 2 8 9
M  V30 9 1 9 10
M  V30 10 2 10 11
M  V30 11 1 11 12
M  V30 12 1 12 13
M  V30 13 1 13 14
M  V30 14 2 14 15
M  V30 15 1 15 16
M  V30 16 2 16 17
M  V30 17 1 17 18
M  V30 18 1 17 19
M  V30 19 2 19 20
M  V30 20 1 20 21
M  V30 21 1 21 22
M  V30 22 1 22 23
M  V30 23 1 23 24
M  V30 24 1 22 25
M  V30 25 1 25 26
M  V30 26 2 12 27
M  V30 27 1 27 2
M  V30 28 1 27 8
M  V30 29 1 20 14
M  V30 30 1 1 28
M  V30 31 1 1 29
M  V30 32 1 1 30
M  V30 33 1 5 31
M  V30 34 1 5 32
M  V30 35 1 10 33
M  V30 36 1 13 34
M  V30 37 1 15 35
M  V30 38 1 16 36
M  V30 39 1 19 37
M  V30 40 1 22 38
M  V30 41 1 23 39
M  V30 42 1 23 40
M  V30 43 1 25 41
M  V30 44 1 25 42
M  V30 END BOND
M  V30 END CTAB
M  END
>  <Dataset>  (362) 
ChEMBL_Kinases

>  <Ligand_Instance>  (362) 
nan

>  <PDB_ID>  (362) 
nan

>  <Standardized_SMILES>  (362) 
Cc1c(C(N)=O)sc2ncnc(Nc3ccc(F)cc3OC(CF)CF)c12

>  <Name>  (362) 
nan

>  <Pocket>  (362) 
nan

>  <ATP_Site>  (362) 
nan

>  <Peripheral>  (362) 
nan

>  <Num_H_Atoms_ProtBoundConf>  (362) 
nan

>  <Num_Resolved_Atoms>  (362) 
nan

>  <Num_Not_Resolved_Atoms>  (362) 
nan

$$$$
CHEMBL3698955
     RDKit          3D

  0  0  0  0  0  0  0  0  0  0999 V3000
M  V30 BEGIN CTAB
M  V30 COUNTS 41 43 0 0 0
M  V30 BEGIN ATOM
M  V30 1 C 1.286517 -2.472366 0.284770 0
M  V30 2 C 1.774455 -1.813119 -0.947250 0
M  V30 3 C 2.713869 -2.599475 -1.649333 0
M  V30 4 C 3.300708 -3.875785 -1.430088 0
M  V30 5 O 3.019129 -4.572830 -0.432031 0
M  V30 6 O 4.212662 -4.403575 -2.315902 0
M  V30 7 S 3.140509 -1.598585 -3.097700 0
M  V30 8 C 2.023688 -0.182957 -2.661958 0
M  V30 9 N 1.759200 1.006590 -3.268256 0
M  V30 10 C 0.890964 1.866618 -2.727873 0
M  V30 11 N 0.348370 1.455257 -1.600829 0
M  V30 12 C 0.552509 0.316819 -0.949214 0
M  V30 13 N -0.194064 0.207311 0.249392 0
M  V30 14 C 0.421246 0.799335 1.378477 0
M  V30 15 C 1.640079 1.416189 1.256721 0
M  V30 16 C 2.161830 1.962288 2.410445 0
M  V30 17 C 1.511609 1.901008 3.620762 0
M  V30 18 F 2.161885 2.486204 4.651809 0
M  V30 19 C 0.268202 1.253993 3.669256 0
M  V30 20 C -0.315726 0.678129 2.528545 0
M  V30 21 O -1.466450 0.155437 2.899347 0
M  V30 22 C -2.543067 -0.519395 2.440213 0
M  V30 23 C -3.882632 0.147162 2.745500 0
M  V30 24 F -4.113042 0.304839 4.080864 0
M  V30 25 C -2.616244 -1.843498 3.239763 0
M  V30 26 F -1.470750 -2.563609 3.037581 0
M  V30 27 C 1.433642 -0.600516 -1.462366 0
M  V30 28 H 2.136597 -2.553794 1.019072 0
M  V30 29 H 0.440749 -1.984548 0.763153 0
M  V30 30 H 1.003638 -3.539083 0.084851 0
M  V30 31 H 4.411697 -5.400866 -2.339920 0
M  V30 32 H 0.769082 2.765144 -3.298336 0
M  V30 33 H -0.968875 -0.296868 -0.155733 0
M  V30 34 H 2.165303 1.474957 0.317362 0
M  V30 35 H 3.121951 2.443378 2.295697 0
M  V30 36 H -0.092315 1.306851 4.712028 0
M  V30 37 H -2.595771 -0.809616 1.383301 0
M  V30 38 H -4.003102 1.115080 2.224690 0
M  V30 39 H -4.689699 -0.504176 2.337771 0
M  V30 40 H -3.491927 -2.439561 2.943267 0
M  V30 41 H -2.673593 -1.584421 4.317233 0
M  V30 END ATOM
M  V30 BEGIN BOND
M  V30 1 1 1 2
M  V30 2 2 2 3
M  V30 3 1 3 4
M  V30 4 2 4 5
M  V30 5 1 4 6
M  V30 6 1 3 7
M  V30 7 1 7 8
M  V30 8 2 8 9
M  V30 9 1 9 10
M  V30 10 2 10 11
M  V30 11 1 11 12
M  V30 12 1 12 13
M  V30 13 1 13 14
M  V30 14 2 14 15
M  V30 15 1 15 16
M  V30 16 2 16 17
M  V30 17 1 17 18
M  V30 18 1 17 19
M  V30 19 2 19 20
M  V30 20 1 20 21
M  V30 21 1 21 22
M  V30 22 1 22 23
M  V30 23 1 23 24
M  V30 24 1 22 25
M  V30 25 1 25 26
M  V30 26 2 12 27
M  V30 27 1 27 2
M  V30 28 1 27 8
M  V30 29 1 20 14
M  V30 30 1 1 28
M  V30 31 1 1 29
M  V30 32 1 1 30
M  V30 33 1 6 31
M  V30 34 1 10 32
M  V30 35 1 13 33
M  V30 36 1 15 34
M  V30 37 1 16 35
M  V30 38 1 19 36
M  V30 39 1 22 37
M  V30 40 1 23 38
M  V30 41 1 23 39
M  V30 42 1 25 40
M  V30 43 1 25 41
M  V30 END BOND
M  V30 END CTAB
M  END
>  <Dataset>  (363) 
ChEMBL_Kinases

>  <Ligand_Instance>  (363) 
nan

>  <PDB_ID>  (363) 
nan

>  <Standardized_SMILES>  (363) 
Cc1c(C(=O)O)sc2ncnc(Nc3ccc(F)cc3OC(CF)CF)c12

>  <Name>  (363) 
nan

>  <Pocket>  (363) 
nan

>  <ATP_Site>  (363) 
nan

>  <Peripheral>  (363) 
nan

>  <Num_H_Atoms_ProtBoundConf>  (363) 
nan

>  <Num_Resolved_Atoms>  (363) 
nan

>  <Num_Not_Resolved_Atoms>  (363) 
nan

$$$$
CHEMBL3698954
     RDKit          3D

  0  0  0  0  0  0  0  0  0  0999 V3000
M  V30 BEGIN CTAB
M  V30 COUNTS 44 46 0 0 0
M  V30 BEGIN ATOM
M  V30 1 C 1.423667 -6.593524 -0.502982 0
M  V30 2 O 1.308427 -5.189525 -0.583523 0
M  V30 3 C 1.682688 -4.433788 -1.652434 0
M  V30 4 O 2.143243 -5.177199 -2.552170 0
M  V30 5 C 1.636493 -2.992235 -1.899159 0
M  V30 6 S 2.204195 -2.335548 -3.396526 0
M  V30 7 C 1.848357 -0.594824 -2.969197 0
M  V30 8 N 2.032140 0.562752 -3.658515 0
M  V30 9 C 1.689594 1.736908 -3.108800 0
M  V30 10 N 1.173229 1.670720 -1.876837 0
M  V30 11 C 0.985876 0.543442 -1.187609 0
M  V30 12 N 0.416821 0.802815 0.077829 0
M  V30 13 C 0.695653 1.784205 1.029306 0
M  V30 14 C 1.684738 2.720457 0.822148 0
M  V30 15 C 2.006557 3.708843 1.725801 0
M  V30 16 C 1.265103 3.732676 2.911317 0
M  V30 17 F 1.499142 4.674888 3.886082 0
M  V30 18 C 0.258584 2.791553 3.137776 0
M  V30 19 C -0.041535 1.813112 2.215054 0
M  V30 20 O -1.008859 0.867333 2.372417 0
M  V30 21 C -1.853473 0.736527 3.483515 0
M  V30 22 C -3.327893 0.856572 3.055687 0
M  V30 23 F -3.579826 -0.169855 2.138725 0
M  V30 24 C -1.745738 -0.676777 4.055130 0
M  V30 25 F -2.118002 -1.616248 3.092927 0
M  V30 26 C 1.312777 -0.696286 -1.681515 0
M  V30 27 C 1.204818 -1.943480 -1.128599 0
M  V30 28 C 0.674307 -2.195240 0.237030 0
M  V30 29 H 0.422800 -6.974090 -0.144703 0
M  V30 30 H 2.117980 -6.900836 0.326557 0
M  V30 31 H 1.645341 -7.091145 -1.449294 0
M  V30 32 H 1.902369 2.536185 -3.787010 0
M  V30 33 H -0.343027 0.109217 0.236930 0
M  V30 34 H 2.290653 2.750007 -0.078380 0
M  V30 35 H 2.782604 4.439915 1.557892 0
M  V30 36 H -0.277018 2.859446 4.070649 0
M  V30 37 H -1.693813 1.455233 4.292409 0
M  V30 38 H -3.521567 1.851529 2.650606 0
M  V30 39 H -3.904181 0.585126 3.962634 0
M  V30 40 H -0.759169 -0.899994 4.478995 0
M  V30 41 H -2.485965 -0.804426 4.882856 0
M  V30 42 H 1.124987 -1.513692 0.994056 0
M  V30 43 H 1.049346 -3.209869 0.571680 0
M  V30 44 H -0.424539 -2.251701 0.268833 0
M  V30 END ATOM
M  V30 BEGIN BOND
M  V30 1 1 1 2
M  V30 2 1 2 3
M  V30 3 2 3 4
M  V30 4 1 3 5
M  V30 5 1 5 6
M  V30 6 1 6 7
M  V30 7 2 7 8
M  V30 8 1 8 9
M  V30 9 2 9 10
M  V30 10 1 10 11
M  V30 11 1 11 12
M  V30 12 1 12 13
M  V30 13 2 13 14
M  V30 14 1 14 15
M  V30 15 2 15 16
M  V30 16 1 16 17
M  V30 17 1 16 18
M  V30 18 2 18 19
M  V30 19 1 19 20
M  V30 20 1 20 21
M  V30 21 1 21 22
M  V30 22 1 22 23
M  V30 23 1 21 24
M  V30 24 1 24 25
M  V30 25 2 11 26
M  V30 26 1 26 27
M  V30 27 1 27 28
M  V30 28 2 27 5
M  V30 29 1 26 7
M  V30 30 1 19 13
M  V30 31 1 1 29
M  V30 32 1 1 30
M  V30 33 1 1 31
M  V30 34 1 9 32
M  V30 35 1 12 33
M  V30 36 1 14 34
M  V30 37 1 15 35
M  V30 38 1 18 36
M  V30 39 1 21 37
M  V30 40 1 22 38
M  V30 41 1 22 39
M  V30 42 1 24 40
M  V30 43 1 24 41
M  V30 44 1 28 42
M  V30 45 1 28 43
M  V30 46 1 28 44
M  V30 END BOND
M  V30 END CTAB
M  END
>  <Dataset>  (364) 
ChEMBL_Kinases

>  <Ligand_Instance>  (364) 
nan

>  <PDB_ID>  (364) 
nan

>  <Standardized_SMILES>  (364) 
COC(=O)c1sc2ncnc(Nc3ccc(F)cc3OC(CF)CF)c2c1C

>  <Name>  (364) 
nan

>  <Pocket>  (364) 
nan

>  <ATP_Site>  (364) 
nan

>  <Peripheral>  (364) 
nan

>  <Num_H_Atoms_ProtBoundConf>  (364) 
nan

>  <Num_Resolved_Atoms>  (364) 
nan

>  <Num_Not_Resolved_Atoms>  (364) 
nan

$$$$
CHEMBL3698953
     RDKit          3D

  0  0  0  0  0  0  0  0  0  0999 V3000
M  V30 BEGIN CTAB
M  V30 COUNTS 56 58 0 0 0
M  V30 BEGIN ATOM
M  V30 1 C 3.574555 -0.435588 5.115672 0
M  V30 2 C 3.090215 -1.279787 3.956423 0
M  V30 3 O 1.907983 -0.756687 3.429302 0
M  V30 4 C 1.441478 -1.517778 2.360647 0
M  V30 5 C 0.106319 -0.844635 1.839507 0
M  V30 6 C -0.779807 -0.898627 3.059302 0
M  V30 7 O -2.012589 -0.378958 2.982703 0
M  V30 8 C -2.214495 0.936791 2.712599 0
M  V30 9 C -3.733048 1.175636 2.763981 0
M  V30 10 O 0.371446 0.402225 1.444786 0
M  V30 11 C 0.549707 1.215193 0.417913 0
M  V30 12 C 0.822763 2.453495 1.033865 0
M  V30 13 C 1.088415 3.644710 0.333734 0
M  V30 14 F 1.361206 4.880349 0.756315 0
M  V30 15 C 1.072526 3.558036 -1.042684 0
M  V30 16 C 0.808980 2.364671 -1.682201 0
M  V30 17 C 0.549146 1.204004 -0.939596 0
M  V30 18 N 0.285148 -0.045718 -1.557756 0
M  V30 19 C -0.961104 -0.704622 -1.446498 0
M  V30 20 N -1.871148 -0.034451 -0.734531 0
M  V30 21 C -3.101810 -0.422289 -0.481221 0
M  V30 22 N -3.493149 -1.600240 -0.978630 0
M  V30 23 C -2.535178 -2.265878 -1.706109 0
M  V30 24 S -2.782454 -3.936286 -2.526568 0
M  V30 25 C -1.122234 -3.982472 -3.180189 0
M  V30 26 C -0.573117 -5.050569 -3.971829 0
M  V30 27 N -1.406001 -6.159212 -4.261637 0
M  V30 28 O 0.488055 -5.377030 -4.552492 0
M  V30 29 C -0.487503 -2.778373 -2.761584 0
M  V30 30 C 0.918994 -2.495360 -3.139623 0
M  V30 31 C -1.220912 -1.916686 -2.012433 0
M  V30 32 H 2.774887 -0.183443 5.832075 0
M  V30 33 H 4.340909 -1.014187 5.687701 0
M  V30 34 H 4.016335 0.528619 4.781570 0
M  V30 35 H 2.860423 -2.282771 4.370989 0
M  V30 36 H 3.880054 -1.307782 3.199801 0
M  V30 37 H 2.197155 -1.486439 1.559227 0
M  V30 38 H 1.229405 -2.573020 2.619553 0
M  V30 39 H -0.243297 -1.595085 1.066532 0
M  V30 40 H -0.240604 -0.489630 3.959933 0
M  V30 41 H -0.892280 -1.997443 3.333937 0
M  V30 42 H -1.907153 1.299359 1.726898 0
M  V30 43 H -1.707322 1.550620 3.498199 0
M  V30 44 H -3.994113 1.998255 2.102897 0
M  V30 45 H -4.039217 1.428228 3.812766 0
M  V30 46 H -4.267908 0.265535 2.430373 0
M  V30 47 H 0.890681 2.771017 2.091264 0
M  V30 48 H 1.245291 4.327123 -1.778989 0
M  V30 49 H 0.773057 2.190807 -2.754160 0
M  V30 50 H 1.208952 -0.198004 -2.004913 0
M  V30 51 H -3.838296 0.096996 0.080561 0
M  V30 52 H -2.306137 -6.435695 -4.714277 0
M  V30 53 H -1.438610 -7.195687 -4.122752 0
M  V30 54 H 1.621847 -2.479734 -2.284762 0
M  V30 55 H 1.295647 -3.347264 -3.762237 0
M  V30 56 H 1.021409 -1.630101 -3.840510 0
M  V30 END ATOM
M  V30 BEGIN BOND
M  V30 1 1 1 2
M  V30 2 1 2 3
M  V30 3 1 3 4
M  V30 4 1 4 5
M  V30 5 1 5 6
M  V30 6 1 6 7
M  V30 7 1 7 8
M  V30 8 1 8 9
M  V30 9 1 5 10
M  V30 10 1 10 11
M  V30 11 2 11 12
M  V30 12 1 12 13
M  V30 13 1 13 14
M  V30 14 2 13 15
M  V30 15 1 15 16
M  V30 16 2 16 17
M  V30 17 1 17 18
M  V30 18 1 18 19
M  V30 19 2 19 20
M  V30 20 1 20 21
M  V30 21 2 21 22
M  V30 22 1 22 23
M  V30 23 1 23 24
M  V30 24 1 24 25
M  V30 25 1 25 26
M  V30 26 1 26 27
M  V30 27 2 26 28
M  V30 28 2 25 29
M  V30 29 1 29 30
M  V30 30 1 29 31
M  V30 31 1 17 11
M  V30 32 1 31 19
M  V30 33 2 31 23
M  V30 34 1 1 32
M  V30 35 1 1 33
M  V30 36 1 1 34
M  V30 37 1 2 35
M  V30 38 1 2 36
M  V30 39 1 4 37
M  V30 40 1 4 38
M  V30 41 1 5 39
M  V30 42 1 6 40
M  V30 43 1 6 41
M  V30 44 1 8 42
M  V30 45 1 8 43
M  V30 46 1 9 44
M  V30 47 1 9 45
M  V30 48 1 9 46
M  V30 49 1 12 47
M  V30 50 1 15 48
M  V30 51 1 16 49
M  V30 52 1 18 50
M  V30 53 1 21 51
M  V30 54 1 27 52
M  V30 55 1 27 53
M  V30 56 1 30 54
M  V30 57 1 30 55
M  V30 58 1 30 56
M  V30 END BOND
M  V30 END CTAB
M  END
>  <Dataset>  (365) 
ChEMBL_Kinases

>  <Ligand_Instance>  (365) 
nan

>  <PDB_ID>  (365) 
nan

>  <Standardized_SMILES>  (365) 
CCOCC(COCC)Oc1cc(F)ccc1Nc1ncnc2sc(C(N)=O)c(C)c12

>  <Name>  (365) 
nan

>  <Pocket>  (365) 
nan

>  <ATP_Site>  (365) 
nan

>  <Peripheral>  (365) 
nan

>  <Num_H_Atoms_ProtBoundConf>  (365) 
nan

>  <Num_Resolved_Atoms>  (365) 
nan

>  <Num_Not_Resolved_Atoms>  (365) 
nan

$$$$
CHEMBL3698952
     RDKit          3D

  0  0  0  0  0  0  0  0  0  0999 V3000
M  V30 BEGIN CTAB
M  V30 COUNTS 48 50 0 0 0
M  V30 BEGIN ATOM
M  V30 1 C 0.988349 -1.235701 0.979062 0
M  V30 2 C 1.670790 -0.100583 0.297187 0
M  V30 3 C 3.041467 -0.025414 0.368348 0
M  V30 4 C 3.994699 -0.941295 1.047711 0
M  V30 5 O 4.005787 -1.992861 1.724627 0
M  V30 6 N 5.389535 -0.585688 0.950474 0
M  V30 7 C 6.444157 -1.360239 1.557372 0
M  V30 8 C 6.333800 -1.460400 3.068104 0
M  V30 9 O 6.388634 -0.126993 3.546457 0
M  V30 10 S 3.500840 1.403648 -0.515035 0
M  V30 11 C 1.814830 1.868568 -0.962264 0
M  V30 12 N 1.365667 2.931988 -1.680066 0
M  V30 13 C 0.073052 3.120072 -1.905749 0
M  V30 14 N -0.676637 2.196317 -1.374743 0
M  V30 15 C -0.305300 1.152315 -0.675917 0
M  V30 16 N -1.368066 0.364002 -0.235824 0
M  V30 17 C -2.762202 0.544426 -0.268154 0
M  V30 18 C -3.370001 1.677502 -0.795647 0
M  V30 19 C -4.737266 1.900329 -0.838796 0
M  V30 20 C -5.567193 0.938270 -0.325416 0
M  V30 21 N -5.033815 -0.169117 0.193515 0
M  V30 22 C -3.713483 -0.349560 0.217349 0
M  V30 23 O -3.276981 -1.528233 0.774291 0
M  V30 24 C -4.056111 -2.543538 1.328614 0
M  V30 25 C -3.943542 -3.843875 0.555285 0
M  V30 26 C -3.588702 -2.823992 2.759744 0
M  V30 27 F -2.254122 -3.228447 2.727898 0
M  V30 28 F -4.322211 -3.865415 3.259262 0
M  V30 29 F -3.677302 -1.681990 3.506108 0
M  V30 30 C 1.002047 0.866333 -0.386281 0
M  V30 31 H 0.306534 -0.868727 1.771445 0
M  V30 32 H 1.735656 -1.890291 1.494250 0
M  V30 33 H 0.453435 -1.918355 0.316356 0
M  V30 34 H 5.687081 0.290681 0.408944 0
M  V30 35 H 6.523022 -2.372587 1.094162 0
M  V30 36 H 7.407562 -0.835437 1.375003 0
M  V30 37 H 5.457810 -1.985939 3.439912 0
M  V30 38 H 7.268473 -1.927047 3.498466 0
M  V30 39 H 5.478999 0.242555 3.692292 0
M  V30 40 H -0.018638 4.015924 -2.486697 0
M  V30 41 H -1.232735 -0.550730 0.197420 0
M  V30 42 H -2.849500 2.501986 -1.221658 0
M  V30 43 H -5.219279 2.768238 -1.241936 0
M  V30 44 H -6.644028 1.054284 -0.329727 0
M  V30 45 H -5.120859 -2.261786 1.374578 0
M  V30 46 H -4.031686 -4.678128 1.292689 0
M  V30 47 H -4.839527 -3.923087 -0.089613 0
M  V30 48 H -2.979014 -3.929197 0.011322 0
M  V30 END ATOM
M  V30 BEGIN BOND
M  V30 1 1 1 2
M  V30 2 2 2 3
M  V30 3 1 3 4
M  V30 4 2 4 5
M  V30 5 1 4 6
M  V30 6 1 6 7
M  V30 7 1 7 8
M  V30 8 1 8 9
M  V30 9 1 3 10
M  V30 10 1 10 11
M  V30 11 2 11 12
M  V30 12 1 12 13
M  V30 13 2 13 14
M  V30 14 1 14 15
M  V30 15 1 15 16
M  V30 16 1 16 17
M  V30 17 2 17 18
M  V30 18 1 18 19
M  V30 19 2 19 20
M  V30 20 1 20 21
M  V30 21 2 21 22
M  V30 22 1 22 23
M  V30 23 1 23 24
M  V30 24 1 24 25
M  V30 25 1 24 26
M  V30 26 1 26 27
M  V30 27 1 26 28
M  V30 28 1 26 29
M  V30 29 2 15 30
M  V30 30 1 30 2
M  V30 31 1 30 11
M  V30 32 1 22 17
M  V30 33 1 1 31
M  V30 34 1 1 32
M  V30 35 1 1 33
M  V30 36 1 6 34
M  V30 37 1 7 35
M  V30 38 1 7 36
M  V30 39 1 8 37
M  V30 40 1 8 38
M  V30 41 1 9 39
M  V30 42 1 13 40
M  V30 43 1 16 41
M  V30 44 1 18 42
M  V30 45 1 19 43
M  V30 46 1 20 44
M  V30 47 1 24 45
M  V30 48 1 25 46
M  V30 49 1 25 47
M  V30 50 1 25 48
M  V30 END BOND
M  V30 END CTAB
M  END
>  <Dataset>  (366) 
ChEMBL_Kinases

>  <Ligand_Instance>  (366) 
nan

>  <PDB_ID>  (366) 
nan

>  <Standardized_SMILES>  (366) 
Cc1c(C(=O)NCCO)sc2ncnc(Nc3cccnc3OC(C)C(F)(F)F)c12

>  <Name>  (366) 
nan

>  <Pocket>  (366) 
nan

>  <ATP_Site>  (366) 
nan

>  <Peripheral>  (366) 
nan

>  <Num_H_Atoms_ProtBoundConf>  (366) 
nan

>  <Num_Resolved_Atoms>  (366) 
nan

>  <Num_Not_Resolved_Atoms>  (366) 
nan

$$$$
CHEMBL3698951
     RDKit          3D

  0  0  0  0  0  0  0  0  0  0999 V3000
M  V30 BEGIN CTAB
M  V30 COUNTS 57 59 0 0 0
M  V30 BEGIN ATOM
M  V30 1 C 0.237665 -1.928398 -0.402106 0
M  V30 2 C -0.113026 -1.114428 0.785698 0
M  V30 3 C 0.291224 0.215926 0.842921 0
M  V30 4 C 1.073427 0.998518 -0.161466 0
M  V30 5 O 1.613925 0.851728 -1.286053 0
M  V30 6 N 1.344626 2.351489 0.167884 0
M  V30 7 C 2.107657 3.026846 -0.868178 0
M  V30 8 C 2.339340 4.418693 -0.438431 0
M  V30 9 C 2.534102 5.570341 -0.101830 0
M  V30 10 C 2.746600 6.971040 0.299053 0
M  V30 11 N 1.460212 7.637929 0.229708 0
M  V30 12 C 0.558049 7.139043 1.252733 0
M  V30 13 C 0.840781 7.420525 -1.073960 0
M  V30 14 S -0.271436 0.882911 2.334538 0
M  V30 15 C -1.075787 -0.703364 2.882494 0
M  V30 16 N -1.757198 -0.919642 4.050245 0
M  V30 17 C -2.274780 -2.133945 4.282345 0
M  V30 18 N -2.025862 -2.945981 3.300273 0
M  V30 19 C -1.380893 -2.791705 2.163755 0
M  V30 20 N -1.326407 -3.927606 1.352517 0
M  V30 21 C -1.852153 -5.216714 1.515713 0
M  V30 22 C -2.578549 -5.613901 2.614341 0
M  V30 23 C -3.101362 -6.879154 2.784323 0
M  V30 24 C -2.890904 -7.816528 1.798258 0
M  V30 25 N -2.185007 -7.459900 0.711886 0
M  V30 26 C -1.669084 -6.202515 0.549938 0
M  V30 27 O -1.039220 -6.136486 -0.579954 0
M  V30 28 C -0.335201 -5.659718 -1.585915 0
M  V30 29 C 0.994582 -6.427773 -1.812638 0
M  V30 30 C -1.016857 -5.741427 -2.960325 0
M  V30 31 F -1.304262 -7.036674 -3.300549 0
M  V30 32 F -0.046291 -5.277719 -3.849879 0
M  V30 33 F -2.096911 -4.893547 -3.015378 0
M  V30 34 C -0.819052 -1.592797 1.837041 0
M  V30 35 H 0.796747 -1.270429 -1.127116 0
M  V30 36 H -0.654988 -2.221372 -0.993019 0
M  V30 37 H 0.963039 -2.739497 -0.208787 0
M  V30 38 H 1.042325 2.855449 1.061187 0
M  V30 39 H 3.076310 2.546378 -1.063492 0
M  V30 40 H 1.575768 3.090332 -1.837992 0
M  V30 41 H 3.425562 7.483222 -0.411730 0
M  V30 42 H 3.203078 7.042161 1.291621 0
M  V30 43 H 0.941620 6.160885 1.606188 0
M  V30 44 H 0.520456 7.900146 2.041245 0
M  V30 45 H -0.434541 6.988149 0.825738 0
M  V30 46 H 0.648833 6.329824 -1.229457 0
M  V30 47 H 1.514439 7.759305 -1.885467 0
M  V30 48 H -0.089426 8.004240 -1.181349 0
M  V30 49 H -2.770340 -2.175207 5.204320 0
M  V30 50 H -0.827499 -3.877107 0.473642 0
M  V30 51 H -2.811871 -4.992670 3.441236 0
M  V30 52 H -3.670745 -7.198465 3.639511 0
M  V30 53 H -3.308606 -8.825571 1.934936 0
M  V30 54 H 0.019951 -4.584621 -1.540048 0
M  V30 55 H 1.723175 -5.793037 -2.354475 0
M  V30 56 H 0.771426 -7.312731 -2.472037 0
M  V30 57 H 1.425348 -6.748202 -0.842569 0
M  V30 END ATOM
M  V30 BEGIN BOND
M  V30 1 1 1 2
M  V30 2 2 2 3
M  V30 3 1 3 4
M  V30 4 2 4 5
M  V30 5 1 4 6
M  V30 6 1 6 7
M  V30 7 1 7 8
M  V30 8 3 8 9
M  V30 9 1 9 10
M  V30 10 1 10 11
M  V30 11 1 11 12
M  V30 12 1 11 13
M  V30 13 1 3 14
M  V30 14 1 14 15
M  V30 15 2 15 16
M  V30 16 1 16 17
M  V30 17 2 17 18
M  V30 18 1 18 19
M  V30 19 1 19 20
M  V30 20 1 20 21
M  V30 21 2 21 22
M  V30 22 1 22 23
M  V30 23 2 23 24
M  V30 24 1 24 25
M  V30 25 2 25 26
M  V30 26 1 26 27
M  V30 27 1 27 28
M  V30 28 1 28 29
M  V30 29 1 28 30
M  V30 30 1 30 31
M  V30 31 1 30 32
M  V30 32 1 30 33
M  V30 33 2 19 34
M  V30 34 1 34 2
M  V30 35 1 34 15
M  V30 36 1 26 21
M  V30 37 1 1 35
M  V30 38 1 1 36
M  V30 39 1 1 37
M  V30 40 1 6 38
M  V30 41 1 7 39
M  V30 42 1 7 40
M  V30 43 1 10 41
M  V30 44 1 10 42
M  V30 45 1 12 43
M  V30 46 1 12 44
M  V30 47 1 12 45
M  V30 48 1 13 46
M  V30 49 1 13 47
M  V30 50 1 13 48
M  V30 51 1 17 49
M  V30 52 1 20 50
M  V30 53 1 22 51
M  V30 54 1 23 52
M  V30 55 1 24 53
M  V30 56 1 28 54
M  V30 57 1 29 55
M  V30 58 1 29 56
M  V30 59 1 29 57
M  V30 END BOND
M  V30 END CTAB
M  END
>  <Dataset>  (367) 
ChEMBL_Kinases

>  <Ligand_Instance>  (367) 
nan

>  <PDB_ID>  (367) 
nan

>  <Standardized_SMILES>  (367) 
Cc1c(C(=O)NCC#CCN(C)C)sc2ncnc(Nc3cccnc3OC(C)C(F)(F)F)c12

>  <Name>  (367) 
nan

>  <Pocket>  (367) 
nan

>  <ATP_Site>  (367) 
nan

>  <Peripheral>  (367) 
nan

>  <Num_H_Atoms_ProtBoundConf>  (367) 
nan

>  <Num_Resolved_Atoms>  (367) 
nan

>  <Num_Not_Resolved_Atoms>  (367) 
nan

$$$$
CHEMBL3698950
     RDKit          3D

  0  0  0  0  0  0  0  0  0  0999 V3000
M  V30 BEGIN CTAB
M  V30 COUNTS 44 46 0 0 0
M  V30 BEGIN ATOM
M  V30 1 C 2.792089 -5.246863 3.260131 0
M  V30 2 N 2.487725 -3.993493 2.616379 0
M  V30 3 C 1.987675 -4.022807 1.308662 0
M  V30 4 O 1.942728 -5.284289 1.061880 0
M  V30 5 C 1.568853 -3.076327 0.318880 0
M  V30 6 S 1.012618 -3.967867 -1.175327 0
M  V30 7 C 0.587217 -2.454335 -2.080029 0
M  V30 8 N 0.087777 -2.324003 -3.313894 0
M  V30 9 C -0.176956 -1.130544 -3.834434 0
M  V30 10 N 0.108662 -0.156290 -2.998988 0
M  V30 11 C 0.603565 -0.235946 -1.768603 0
M  V30 12 N 0.734515 1.025197 -1.160260 0
M  V30 13 C 0.903184 1.976500 -0.150363 0
M  V30 14 C 1.918311 2.909815 0.097943 0
M  V30 15 C 1.903252 3.763194 1.148738 0
M  V30 16 C 0.808377 3.639510 1.952486 0
M  V30 17 N -0.232018 2.780884 1.814451 0
M  V30 18 C -0.186694 1.924819 0.736023 0
M  V30 19 O -1.276118 1.045485 0.619512 0
M  V30 20 C -2.277397 1.134393 1.584136 0
M  V30 21 C -2.329555 -0.059832 2.520429 0
M  V30 22 C -3.650511 1.349537 1.029283 0
M  V30 23 F -3.795285 2.497101 0.289589 0
M  V30 24 F -4.081708 0.273940 0.291549 0
M  V30 25 F -4.512164 1.423836 2.134339 0
M  V30 26 C 0.894254 -1.457047 -1.199813 0
M  V30 27 C 1.400271 -1.788239 0.027230 0
M  V30 28 C 1.867541 -0.825479 1.054868 0
M  V30 29 H 2.899325 -5.072558 4.363545 0
M  V30 30 H 3.623097 -5.798071 2.825641 0
M  V30 31 H 1.892288 -5.894248 3.176580 0
M  V30 32 H 2.593218 -3.054461 3.030472 0
M  V30 33 H -0.566149 -1.192080 -4.821055 0
M  V30 34 H 0.685337 1.857326 -1.827246 0
M  V30 35 H 2.664789 2.805181 -0.679056 0
M  V30 36 H 2.717608 4.431923 1.252386 0
M  V30 37 H 0.722551 4.290450 2.820052 0
M  V30 38 H -1.995754 1.996667 2.249454 0
M  V30 39 H -3.370412 -0.136378 2.892243 0
M  V30 40 H -1.706512 0.109436 3.426191 0
M  V30 41 H -2.096199 -1.023558 2.015606 0
M  V30 42 H 2.670618 -1.319244 1.690667 0
M  V30 43 H 2.471884 -0.001056 0.595641 0
M  V30 44 H 1.101986 -0.391000 1.681672 0
M  V30 END ATOM
M  V30 BEGIN BOND
M  V30 1 1 1 2
M  V30 2 1 2 3
M  V30 3 2 3 4
M  V30 4 1 3 5
M  V30 5 1 5 6
M  V30 6 1 6 7
M  V30 7 2 7 8
M  V30 8 1 8 9
M  V30 9 2 9 10
M  V30 10 1 10 11
M  V30 11 1 11 12
M  V30 12 1 12 13
M  V30 13 2 13 14
M  V30 14 1 14 15
M  V30 15 2 15 16
M  V30 16 1 16 17
M  V30 17 2 17 18
M  V30 18 1 18 19
M  V30 19 1 19 20
M  V30 20 1 20 21
M  V30 21 1 20 22
M  V30 22 1 22 23
M  V30 23 1 22 24
M  V30 24 1 22 25
M  V30 25 2 11 26
M  V30 26 1 26 27
M  V30 27 1 27 28
M  V30 28 2 27 5
M  V30 29 1 26 7
M  V30 30 1 18 13
M  V30 31 1 1 29
M  V30 32 1 1 30
M  V30 33 1 1 31
M  V30 34 1 2 32
M  V30 35 1 9 33
M  V30 36 1 12 34
M  V30 37 1 14 35
M  V30 38 1 15 36
M  V30 39 1 16 37
M  V30 40 1 20 38
M  V30 41 1 21 39
M  V30 42 1 21 40
M  V30 43 1 21 41
M  V30 44 1 28 42
M  V30 45 1 28 43
M  V30 46 1 28 44
M  V30 END BOND
M  V30 END CTAB
M  END
>  <Dataset>  (368) 
ChEMBL_Kinases

>  <Ligand_Instance>  (368) 
nan

>  <PDB_ID>  (368) 
nan

>  <Standardized_SMILES>  (368) 
CNC(=O)c1sc2ncnc(Nc3cccnc3OC(C)C(F)(F)F)c2c1C

>  <Name>  (368) 
nan

>  <Pocket>  (368) 
nan

>  <ATP_Site>  (368) 
nan

>  <Peripheral>  (368) 
nan

>  <Num_H_Atoms_ProtBoundConf>  (368) 
nan

>  <Num_Resolved_Atoms>  (368) 
nan

>  <Num_Not_Resolved_Atoms>  (368) 
nan

$$$$
CHEMBL3698949
     RDKit          3D

  0  0  0  0  0  0  0  0  0  0999 V3000
M  V30 BEGIN CTAB
M  V30 COUNTS 58 60 0 0 0
M  V30 BEGIN ATOM
M  V30 1 C -1.101545 -0.821282 2.397671 0
M  V30 2 C -0.754220 0.548168 1.948957 0
M  V30 3 C 0.552084 0.825397 2.055704 0
M  V30 4 C 1.814837 0.267249 2.462330 0
M  V30 5 O 2.876333 0.970390 2.364081 0
M  V30 6 N 2.176610 -0.997996 2.995565 0
M  V30 7 C 3.497112 -1.420648 3.350775 0
M  V30 8 C 4.465730 -1.460711 2.172047 0
M  V30 9 C 3.970678 -2.441056 1.126633 0
M  V30 10 N 4.907537 -2.442470 -0.009516 0
M  V30 11 C 4.445965 -3.427765 -0.986161 0
M  V30 12 C 4.906852 -1.107595 -0.622879 0
M  V30 13 S 0.689007 2.501426 1.459982 0
M  V30 14 C -1.044694 2.752446 1.090666 0
M  V30 15 N -1.798047 3.757959 0.606873 0
M  V30 16 C -3.124108 3.639045 0.444666 0
M  V30 17 N -3.669607 2.466234 0.788287 0
M  V30 18 C -2.925501 1.477302 1.264361 0
M  V30 19 N -3.822364 0.376333 1.534425 0
M  V30 20 C -4.362490 -0.192975 0.320498 0
M  V30 21 C -5.748390 -0.191439 0.161315 0
M  V30 22 C -6.381174 -0.690797 -0.974769 0
M  V30 23 C -5.578071 -1.202956 -1.968497 0
M  V30 24 N -4.225149 -1.214395 -1.834116 0
M  V30 25 C -3.636063 -0.719725 -0.713053 0
M  V30 26 O -2.258621 -0.748494 -0.612107 0
M  V30 27 C -1.433404 -1.248131 -1.650083 0
M  V30 28 C -0.870218 -2.618908 -1.340623 0
M  V30 29 C -0.350833 -0.307642 -2.059707 0
M  V30 30 F 0.373013 -0.919533 -3.073067 0
M  V30 31 F 0.560496 -0.072716 -1.039593 0
M  V30 32 F -0.897021 0.891796 -2.441808 0
M  V30 33 C -1.570533 1.525759 1.457875 0
M  V30 34 H -0.857940 -0.959839 3.487360 0
M  V30 35 H -2.149424 -1.100147 2.304394 0
M  V30 36 H -0.534707 -1.568688 1.764118 0
M  V30 37 H 1.367564 -1.643015 3.122256 0
M  V30 38 H 3.452196 -2.448872 3.726718 0
M  V30 39 H 3.939290 -0.816573 4.178508 0
M  V30 40 H 4.544326 -0.460303 1.727630 0
M  V30 41 H 5.475673 -1.800848 2.537263 0
M  V30 42 H 3.969096 -3.456926 1.563826 0
M  V30 43 H 2.964430 -2.147966 0.787169 0
M  V30 44 H 3.682936 -4.102617 -0.522905 0
M  V30 45 H 5.309370 -4.019115 -1.356109 0
M  V30 46 H 3.971685 -2.870327 -1.815261 0
M  V30 47 H 5.673982 -0.496856 -0.092266 0
M  V30 48 H 5.155234 -1.134232 -1.682985 0
M  V30 49 H 3.899799 -0.650399 -0.427174 0
M  V30 50 H -3.586261 4.529639 0.048151 0
M  V30 51 H -4.267445 -0.199448 2.314385 0
M  V30 52 H -6.388937 0.208780 0.935737 0
M  V30 53 H -7.452336 -0.692834 -1.104435 0
M  V30 54 H -5.923092 -1.616545 -2.886521 0
M  V30 55 H -2.112112 -1.414713 -2.537491 0
M  V30 56 H -0.778155 -2.810483 -0.258066 0
M  V30 57 H 0.171156 -2.695442 -1.773374 0
M  V30 58 H -1.465917 -3.422350 -1.830394 0
M  V30 END ATOM
M  V30 BEGIN BOND
M  V30 1 1 1 2
M  V30 2 2 2 3
M  V30 3 1 3 4
M  V30 4 2 4 5
M  V30 5 1 4 6
M  V30 6 1 6 7
M  V30 7 1 7 8
M  V30 8 1 8 9
M  V30 9 1 9 10
M  V30 10 1 10 11
M  V30 11 1 10 12
M  V30 12 1 3 13
M  V30 13 1 13 14
M  V30 14 2 14 15
M  V30 15 1 15 16
M  V30 16 2 16 17
M  V30 17 1 17 18
M  V30 18 1 18 19
M  V30 19 1 19 20
M  V30 20 2 20 21
M  V30 21 1 21 22
M  V30 22 2 22 23
M  V30 23 1 23 24
M  V30 24 2 24 25
M  V30 25 1 25 26
M  V30 26 1 26 27
M  V30 27 1 27 28
M  V30 28 1 27 29
M  V30 29 1 29 30
M  V30 30 1 29 31
M  V30 31 1 29 32
M  V30 32 2 18 33
M  V30 33 1 33 2
M  V30 34 1 33 14
M  V30 35 1 25 20
M  V30 36 1 1 34
M  V30 37 1 1 35
M  V30 38 1 1 36
M  V30 39 1 6 37
M  V30 40 1 7 38
M  V30 41 1 7 39
M  V30 42 1 8 40
M  V30 43 1 8 41
M  V30 44 1 9 42
M  V30 45 1 9 43
M  V30 46 1 11 44
M  V30 47 1 11 45
M  V30 48 1 11 46
M  V30 49 1 12 47
M  V30 50 1 12 48
M  V30 51 1 12 49
M  V30 52 1 16 50
M  V30 53 1 19 51
M  V30 54 1 21 52
M  V30 55 1 22 53
M  V30 56 1 23 54
M  V30 57 1 27 55
M  V30 58 1 28 56
M  V30 59 1 28 57
M  V30 60 1 28 58
M  V30 END BOND
M  V30 END CTAB
M  END
>  <Dataset>  (369) 
ChEMBL_Kinases

>  <Ligand_Instance>  (369) 
nan

>  <PDB_ID>  (369) 
nan

>  <Standardized_SMILES>  (369) 
Cc1c(C(=O)NCCCN(C)C)sc2ncnc(Nc3cccnc3OC(C)C(F)(F)F)c12

>  <Name>  (369) 
nan

>  <Pocket>  (369) 
nan

>  <ATP_Site>  (369) 
nan

>  <Peripheral>  (369) 
nan

>  <Num_H_Atoms_ProtBoundConf>  (369) 
nan

>  <Num_Resolved_Atoms>  (369) 
nan

>  <Num_Not_Resolved_Atoms>  (369) 
nan

$$$$
CHEMBL3698948
     RDKit          3D

  0  0  0  0  0  0  0  0  0  0999 V3000
M  V30 BEGIN CTAB
M  V30 COUNTS 59 62 0 0 0
M  V30 BEGIN ATOM
M  V30 1 C -0.331517 0.039739 0.605937 0
M  V30 2 C -0.728971 0.642597 1.903297 0
M  V30 3 C 0.167439 1.487324 2.380419 0
M  V30 4 C 1.471637 2.073060 2.106399 0
M  V30 5 O 1.987039 2.917520 2.923266 0
M  V30 6 N 2.374690 1.898842 1.042141 0
M  V30 7 C 3.634122 2.545046 0.897871 0
M  V30 8 C 3.826962 3.280394 -0.417426 0
M  V30 9 C 4.444746 2.306428 -1.437616 0
M  V30 10 N 3.819095 0.992471 -1.272022 0
M  V30 11 C 4.209673 0.124793 -2.362080 0
M  V30 12 C 4.255048 0.380710 -0.037365 0
M  V30 13 C 4.709379 1.476398 0.894606 0
M  V30 14 S -0.562128 2.067055 3.906886 0
M  V30 15 C -2.059441 1.114851 3.804056 0
M  V30 16 N -3.158320 0.978106 4.576331 0
M  V30 17 C -4.167212 0.165175 4.248201 0
M  V30 18 N -3.994497 -0.485669 3.112813 0
M  V30 19 C -2.940678 -0.383477 2.328886 0
M  V30 20 N -3.085267 -1.229721 1.197878 0
M  V30 21 C -2.676256 -2.572038 1.470585 0
M  V30 22 C -2.196202 -2.983753 2.697979 0
M  V30 23 C -1.799490 -4.287304 2.964149 0
M  V30 24 C -1.881908 -5.243608 1.955642 0
M  V30 25 N -2.349757 -4.850717 0.752799 0
M  V30 26 C -2.725547 -3.578898 0.529314 0
M  V30 27 O -3.190160 -3.300732 -0.752630 0
M  V30 28 C -3.245671 -4.324353 -1.727238 0
M  V30 29 C -2.409170 -4.014844 -2.925236 0
M  V30 30 C -4.695045 -4.566827 -2.051362 0
M  V30 31 F -5.316525 -4.951147 -0.879334 0
M  V30 32 F -5.247529 -3.415721 -2.562965 0
M  V30 33 F -4.799292 -5.618819 -2.938597 0
M  V30 34 C -1.876666 0.437783 2.618766 0
M  V30 35 H 0.575538 -0.581040 0.695015 0
M  V30 36 H -0.218235 0.867729 -0.161392 0
M  V30 37 H -1.091679 -0.619480 0.148845 0
M  V30 38 H 2.053410 1.226177 0.313139 0
M  V30 39 H 3.821963 3.246062 1.757654 0
M  V30 40 H 4.486920 4.138876 -0.318717 0
M  V30 41 H 2.832483 3.524531 -0.843759 0
M  V30 42 H 4.164870 2.671267 -2.444983 0
M  V30 43 H 5.532803 2.279907 -1.395669 0
M  V30 44 H 3.435640 0.233690 -3.152958 0
M  V30 45 H 5.180377 0.455983 -2.793601 0
M  V30 46 H 4.292868 -0.943724 -2.060269 0
M  V30 47 H 3.458572 -0.231045 0.460071 0
M  V30 48 H 5.108181 -0.321264 -0.256164 0
M  V30 49 H 5.708876 1.861975 0.592200 0
M  V30 50 H 4.757155 1.023376 1.917993 0
M  V30 51 H -4.941415 0.204296 4.995547 0
M  V30 52 H -3.433341 -1.048105 0.224630 0
M  V30 53 H -2.117489 -2.269751 3.505780 0
M  V30 54 H -1.435036 -4.536460 3.945196 0
M  V30 55 H -1.557951 -6.232079 2.232476 0
M  V30 56 H -2.865677 -5.241182 -1.227315 0
M  V30 57 H -2.452707 -2.921219 -3.162194 0
M  V30 58 H -2.742716 -4.626560 -3.787174 0
M  V30 59 H -1.347122 -4.297558 -2.729154 0
M  V30 END ATOM
M  V30 BEGIN BOND
M  V30 1 1 1 2
M  V30 2 2 2 3
M  V30 3 1 3 4
M  V30 4 2 4 5
M  V30 5 1 4 6
M  V30 6 1 6 7
M  V30 7 1 7 8
M  V30 8 1 8 9
M  V30 9 1 9 10
M  V30 10 1 10 11
M  V30 11 1 10 12
M  V30 12 1 12 13
M  V30 13 1 3 14
M  V30 14 1 14 15
M  V30 15 2 15 16
M  V30 16 1 16 17
M  V30 17 2 17 18
M  V30 18 1 18 19
M  V30 19 1 19 20
M  V30 20 1 20 21
M  V30 21 2 21 22
M  V30 22 1 22 23
M  V30 23 2 23 24
M  V30 24 1 24 25
M  V30 25 2 25 26
M  V30 26 1 26 27
M  V30 27 1 27 28
M  V30 28 1 28 29
M  V30 29 1 28 30
M  V30 30 1 30 31
M  V30 31 1 30 32
M  V30 32 1 30 33
M  V30 33 2 19 34
M  V30 34 1 34 2
M  V30 35 1 13 7
M  V30 36 1 34 15
M  V30 37 1 26 21
M  V30 38 1 1 35
M  V30 39 1 1 36
M  V30 40 1 1 37
M  V30 41 1 6 38
M  V30 42 1 7 39
M  V30 43 1 8 40
M  V30 44 1 8 41
M  V30 45 1 9 42
M  V30 46 1 9 43
M  V30 47 1 11 44
M  V30 48 1 11 45
M  V30 49 1 11 46
M  V30 50 1 12 47
M  V30 51 1 12 48
M  V30 52 1 13 49
M  V30 53 1 13 50
M  V30 54 1 17 51
M  V30 55 1 20 52
M  V30 56 1 22 53
M  V30 57 1 23 54
M  V30 58 1 24 55
M  V30 59 1 28 56
M  V30 60 1 29 57
M  V30 61 1 29 58
M  V30 62 1 29 59
M  V30 END BOND
M  V30 END CTAB
M  END
>  <Dataset>  (370) 
ChEMBL_Kinases

>  <Ligand_Instance>  (370) 
nan

>  <PDB_ID>  (370) 
nan

>  <Standardized_SMILES>  (370) 
Cc1c(C(=O)NC2CCN(C)CC2)sc2ncnc(Nc3cccnc3OC(C)C(F)(F)F)c12

>  <Name>  (370) 
nan

>  <Pocket>  (370) 
nan

>  <ATP_Site>  (370) 
nan

>  <Peripheral>  (370) 
nan

>  <Num_H_Atoms_ProtBoundConf>  (370) 
nan

>  <Num_Resolved_Atoms>  (370) 
nan

>  <Num_Not_Resolved_Atoms>  (370) 
nan

$$$$
CHEMBL3698947
     RDKit          3D

  0  0  0  0  0  0  0  0  0  0999 V3000
M  V30 BEGIN CTAB
M  V30 COUNTS 41 43 0 0 0
M  V30 BEGIN ATOM
M  V30 1 C 2.658435 -1.621943 0.954228 0
M  V30 2 C 2.433446 -1.834240 -0.510851 0
M  V30 3 C 3.046417 -2.899663 -1.173760 0
M  V30 4 C 3.903151 -3.991636 -0.841941 0
M  V30 5 N 4.177775 -4.276735 0.528707 0
M  V30 6 O 4.431688 -4.721326 -1.717009 0
M  V30 7 S 2.480098 -2.746778 -2.903014 0
M  V30 8 C 1.470692 -1.268107 -2.574174 0
M  V30 9 N 0.715760 -0.565595 -3.409627 0
M  V30 10 C 0.016683 0.487387 -3.036588 0
M  V30 11 N 0.160203 0.744918 -1.773661 0
M  V30 12 C 0.909424 0.087921 -0.843014 0
M  V30 13 N 0.853942 0.626821 0.446380 0
M  V30 14 C 0.653502 0.922047 1.779518 0
M  V30 15 C 1.617687 1.220658 2.752097 0
M  V30 16 C 1.237385 1.520039 4.027866 0
M  V30 17 C -0.110058 1.507412 4.270359 0
M  V30 18 N -1.043722 1.221064 3.345670 0
M  V30 19 C -0.707881 0.916587 2.075366 0
M  V30 20 O -1.653094 0.614422 1.148946 0
M  V30 21 C -3.040238 0.691706 1.367331 0
M  V30 22 C -3.353772 0.203747 2.818805 0
M  V30 23 C -3.843056 -0.210353 0.479112 0
M  V30 24 F -3.439591 -1.529602 0.719556 0
M  V30 25 F -5.199012 -0.156567 0.776633 0
M  V30 26 F -3.701516 0.026476 -0.871202 0
M  V30 27 C 1.631886 -1.010505 -1.241038 0
M  V30 28 H 3.105666 -0.608918 1.064782 0
M  V30 29 H 1.721822 -1.758973 1.538655 0
M  V30 30 H 3.398933 -2.309567 1.362663 0
M  V30 31 H 4.380826 -4.481924 1.529689 0
M  V30 32 H 3.530889 -5.122049 0.618205 0
M  V30 33 H -0.584042 1.046270 -3.723634 0
M  V30 34 H 1.433767 1.516544 0.246252 0
M  V30 35 H 2.656070 1.213750 2.459039 0
M  V30 36 H 1.996781 1.740465 4.749620 0
M  V30 37 H -0.480918 1.738595 5.253385 0
M  V30 38 H -3.431608 1.727313 1.416453 0
M  V30 39 H -4.401601 -0.190759 2.803765 0
M  V30 40 H -2.703957 -0.629851 3.119890 0
M  V30 41 H -3.376025 1.064897 3.521622 0
M  V30 END ATOM
M  V30 BEGIN BOND
M  V30 1 1 1 2
M  V30 2 2 2 3
M  V30 3 1 3 4
M  V30 4 1 4 5
M  V30 5 2 4 6
M  V30 6 1 3 7
M  V30 7 1 7 8
M  V30 8 2 8 9
M  V30 9 1 9 10
M  V30 10 2 10 11
M  V30 11 1 11 12
M  V30 12 1 12 13
M  V30 13 1 13 14
M  V30 14 2 14 15
M  V30 15 1 15 16
M  V30 16 2 16 17
M  V30 17 1 17 18
M  V30 18 2 18 19
M  V30 19 1 19 20
M  V30 20 1 20 21
M  V30 21 1 21 22
M  V30 22 1 21 23
M  V30 23 1 23 24
M  V30 24 1 23 25
M  V30 25 1 23 26
M  V30 26 2 12 27
M  V30 27 1 27 2
M  V30 28 1 27 8
M  V30 29 1 19 14
M  V30 30 1 1 28
M  V30 31 1 1 29
M  V30 32 1 1 30
M  V30 33 1 5 31
M  V30 34 1 5 32
M  V30 35 1 10 33
M  V30 36 1 13 34
M  V30 37 1 15 35
M  V30 38 1 16 36
M  V30 39 1 17 37
M  V30 40 1 21 38
M  V30 41 1 22 39
M  V30 42 1 22 40
M  V30 43 1 22 41
M  V30 END BOND
M  V30 END CTAB
M  END
>  <Dataset>  (371) 
ChEMBL_Kinases

>  <Ligand_Instance>  (371) 
nan

>  <PDB_ID>  (371) 
nan

>  <Standardized_SMILES>  (371) 
Cc1c(C(N)=O)sc2ncnc(Nc3cccnc3OC(C)C(F)(F)F)c12

>  <Name>  (371) 
nan

>  <Pocket>  (371) 
nan

>  <ATP_Site>  (371) 
nan

>  <Peripheral>  (371) 
nan

>  <Num_H_Atoms_ProtBoundConf>  (371) 
nan

>  <Num_Resolved_Atoms>  (371) 
nan

>  <Num_Not_Resolved_Atoms>  (371) 
nan

$$$$
CHEMBL3698946
     RDKit          3D

  0  0  0  0  0  0  0  0  0  0999 V3000
M  V30 BEGIN CTAB
M  V30 COUNTS 40 42 0 0 0
M  V30 BEGIN ATOM
M  V30 1 C 1.848527 -1.998109 0.812593 0
M  V30 2 C 2.663427 -1.437401 -0.294301 0
M  V30 3 C 3.971208 -1.981157 -0.447562 0
M  V30 4 C 4.806594 -2.987318 0.203136 0
M  V30 5 O 5.969900 -3.245643 -0.191745 0
M  V30 6 O 4.387920 -3.722476 1.287452 0
M  V30 7 S 4.669664 -1.041252 -1.916987 0
M  V30 8 C 3.252082 -0.100723 -2.146676 0
M  V30 9 N 2.940881 0.872374 -3.053707 0
M  V30 10 C 1.789110 1.518166 -3.098488 0
M  V30 11 N 0.921061 1.132252 -2.154928 0
M  V30 12 C 1.140551 0.190796 -1.230078 0
M  V30 13 N 0.036506 0.024032 -0.388326 0
M  V30 14 C -0.072112 0.634024 0.889758 0
M  V30 15 C 0.979343 1.407713 1.343789 0
M  V30 16 C 0.905420 2.011872 2.597216 0
M  V30 17 C -0.234114 1.827774 3.382019 0
M  V30 18 N -1.240218 1.061822 2.895525 0
M  V30 19 C -1.184188 0.471304 1.686021 0
M  V30 20 O -2.265891 -0.297115 1.264886 0
M  V30 21 C -3.416631 -0.492540 2.054939 0
M  V30 22 C -4.656936 0.133157 1.396651 0
M  V30 23 C -3.668346 -1.976045 2.136034 0
M  V30 24 F -2.641429 -2.673792 2.693160 0
M  V30 25 F -4.870076 -2.262780 2.754610 0
M  V30 26 F -3.822319 -2.405425 0.810067 0
M  V30 27 C 2.335952 -0.482968 -1.178552 0
M  V30 28 H 1.879720 -1.321898 1.707464 0
M  V30 29 H 0.787569 -2.108771 0.553763 0
M  V30 30 H 2.194645 -2.985647 1.146893 0
M  V30 31 H 4.947567 -4.457279 1.704246 0
M  V30 32 H 1.627353 2.272452 -3.849578 0
M  V30 33 H -0.756727 -0.593281 -0.733048 0
M  V30 34 H 1.897425 1.596808 0.794118 0
M  V30 35 H 1.651365 2.635737 3.067221 0
M  V30 36 H -0.392707 2.248423 4.364855 0
M  V30 37 H -3.320622 -0.083775 3.067025 0
M  V30 38 H -4.417452 0.268084 0.340931 0
M  V30 39 H -4.932795 1.064854 1.936181 0
M  V30 40 H -5.507749 -0.564694 1.499252 0
M  V30 END ATOM
M  V30 BEGIN BOND
M  V30 1 1 1 2
M  V30 2 2 2 3
M  V30 3 1 3 4
M  V30 4 2 4 5
M  V30 5 1 4 6
M  V30 6 1 3 7
M  V30 7 1 7 8
M  V30 8 2 8 9
M  V30 9 1 9 10
M  V30 10 2 10 11
M  V30 11 1 11 12
M  V30 12 1 12 13
M  V30 13 1 13 14
M  V30 14 2 14 15
M  V30 15 1 15 16
M  V30 16 2 16 17
M  V30 17 1 17 18
M  V30 18 2 18 19
M  V30 19 1 19 20
M  V30 20 1 20 21
M  V30 21 1 21 22
M  V30 22 1 21 23
M  V30 23 1 23 24
M  V30 24 1 23 25
M  V30 25 1 23 26
M  V30 26 2 12 27
M  V30 27 1 27 2
M  V30 28 1 27 8
M  V30 29 1 19 14
M  V30 30 1 1 28
M  V30 31 1 1 29
M  V30 32 1 1 30
M  V30 33 1 6 31
M  V30 34 1 10 32
M  V30 35 1 13 33
M  V30 36 1 15 34
M  V30 37 1 16 35
M  V30 38 1 17 36
M  V30 39 1 21 37
M  V30 40 1 22 38
M  V30 41 1 22 39
M  V30 42 1 22 40
M  V30 END BOND
M  V30 END CTAB
M  END
>  <Dataset>  (372) 
ChEMBL_Kinases

>  <Ligand_Instance>  (372) 
nan

>  <PDB_ID>  (372) 
nan

>  <Standardized_SMILES>  (372) 
Cc1c(C(=O)O)sc2ncnc(Nc3cccnc3OC(C)C(F)(F)F)c12

>  <Name>  (372) 
nan

>  <Pocket>  (372) 
nan

>  <ATP_Site>  (372) 
nan

>  <Peripheral>  (372) 
nan

>  <Num_H_Atoms_ProtBoundConf>  (372) 
nan

>  <Num_Resolved_Atoms>  (372) 
nan

>  <Num_Not_Resolved_Atoms>  (372) 
nan

$$$$
CHEMBL3696550
     RDKit          3D

  0  0  0  0  0  0  0  0  0  0999 V3000
M  V30 BEGIN CTAB
M  V30 COUNTS 43 45 0 0 0
M  V30 BEGIN ATOM
M  V30 1 C 3.759307 -5.100615 0.595626 0
M  V30 2 C 2.858832 -3.936723 0.379448 0 CFG=2
M  V30 3 C 3.114075 -3.270598 -0.963034 0
M  V30 4 N 2.090493 -2.332416 -1.308513 0
M  V30 5 C 1.714747 -2.142211 -2.605658 0
M  V30 6 C 0.729332 -1.210344 -2.720972 0
M  V30 7 C 0.093406 -0.761634 -3.953973 0
M  V30 8 N -0.928268 0.225745 -3.914413 0
M  V30 9 O 0.479052 -1.276643 -5.047991 0
M  V30 10 N 0.472772 -0.800341 -1.480615 0
M  V30 11 C 1.283798 -1.469177 -0.641060 0
M  V30 12 C 1.319523 -1.310533 0.823638 0
M  V30 13 C 0.439650 -0.300145 1.180904 0
M  V30 14 C 0.303121 0.029812 2.519108 0
M  V30 15 C -0.599268 1.071742 2.927871 0
M  V30 16 C -1.367287 1.951805 3.254024 0
M  V30 17 C -2.316250 3.026609 3.634331 0
M  V30 18 C -3.709888 2.434361 3.851655 0
M  V30 19 C -2.356558 4.125456 2.593399 0
M  V30 20 O -1.848186 3.508382 4.836893 0
M  V30 21 C 1.046726 -0.656458 3.458887 0
M  V30 22 C 1.931265 -1.667779 3.132493 0
M  V30 23 C 2.057977 -1.987246 1.792499 0
M  V30 24 O 2.956786 -3.015906 1.453309 0
M  V30 25 H 3.332806 -5.850002 1.294154 0
M  V30 26 H 4.023042 -5.566982 -0.364963 0
M  V30 27 H 4.716309 -4.757409 1.069505 0
M  V30 28 H 1.816788 -4.344970 0.290339 0
M  V30 29 H 3.079040 -4.119345 -1.701696 0
M  V30 30 H 4.152678 -2.877882 -1.059525 0
M  V30 31 H 2.146083 -2.669017 -3.457614 0
M  V30 32 H -0.379198 1.116652 -4.034003 0
M  V30 33 H -1.964638 0.302989 -3.810354 0
M  V30 34 H -0.136815 0.228925 0.430591 0
M  V30 35 H -3.688731 1.324725 3.871186 0
M  V30 36 H -4.359581 2.735609 3.004252 0
M  V30 37 H -4.117880 2.753270 4.834312 0
M  V30 38 H -2.162702 5.088732 3.106449 0
M  V30 39 H -3.334809 4.136541 2.072285 0
M  V30 40 H -1.558061 3.878177 1.842194 0
M  V30 41 H -2.632296 3.785722 5.377432 0
M  V30 42 H 0.983906 -0.443980 4.523898 0
M  V30 43 H 2.533867 -2.236279 3.802489 0
M  V30 END ATOM
M  V30 BEGIN BOND
M  V30 1 1 1 2
M  V30 2 1 2 3
M  V30 3 1 3 4
M  V30 4 1 4 5
M  V30 5 2 5 6
M  V30 6 1 6 7
M  V30 7 1 7 8
M  V30 8 2 7 9
M  V30 9 1 6 10
M  V30 10 2 10 11
M  V30 11 1 11 12
M  V30 12 2 12 13
M  V30 13 1 13 14
M  V30 14 1 14 15
M  V30 15 3 15 16
M  V30 16 1 16 17
M  V30 17 1 17 18
M  V30 18 1 17 19
M  V30 19 1 17 20
M  V30 20 2 14 21
M  V30 21 1 21 22
M  V30 22 2 22 23
M  V30 23 1 23 24
M  V30 24 1 24 2
M  V30 25 1 11 4
M  V30 26 1 23 12
M  V30 27 1 1 25
M  V30 28 1 1 26
M  V30 29 1 1 27
M  V30 30 1 2 28 CFG=3
M  V30 31 1 3 29
M  V30 32 1 3 30
M  V30 33 1 5 31
M  V30 34 1 8 32
M  V30 35 1 8 33
M  V30 36 1 13 34
M  V30 37 1 18 35
M  V30 38 1 18 36
M  V30 39 1 18 37
M  V30 40 1 19 38
M  V30 41 1 19 39
M  V30 42 1 19 40
M  V30 43 1 20 41
M  V30 44 1 21 42
M  V30 45 1 22 43
M  V30 END BOND
M  V30 END CTAB
M  END
>  <Dataset>  (373) 
ChEMBL_Kinases

>  <Ligand_Instance>  (373) 
nan

>  <PDB_ID>  (373) 
nan

>  <Standardized_SMILES>  (373) 
C[C@@H]1Cn2cc(C(N)=O)nc2-c2cc(C#CC(C)(C)O)ccc2O1

>  <Name>  (373) 
nan

>  <Pocket>  (373) 
nan

>  <ATP_Site>  (373) 
nan

>  <Peripheral>  (373) 
nan

>  <Num_H_Atoms_ProtBoundConf>  (373) 
nan

>  <Num_Resolved_Atoms>  (373) 
nan

>  <Num_Not_Resolved_Atoms>  (373) 
nan

$$$$
CHEMBL3698929
     RDKit          3D

  0  0  0  0  0  0  0  0  0  0999 V3000
M  V30 BEGIN CTAB
M  V30 COUNTS 45 47 0 0 0
M  V30 BEGIN ATOM
M  V30 1 C -3.544608 -2.849696 6.312657 0
M  V30 2 O -2.964696 -2.453459 5.106593 0
M  V30 3 C -2.140646 -3.251128 4.336138 0
M  V30 4 O -2.029098 -4.353765 4.922016 0
M  V30 5 C -1.450554 -3.053724 3.090533 0
M  V30 6 S -0.473731 -4.334393 2.409104 0
M  V30 7 C 0.032129 -3.368434 0.926755 0
M  V30 8 N 0.839002 -3.711177 -0.133028 0
M  V30 9 C 1.075229 -2.848367 -1.111580 0
M  V30 10 N 0.468711 -1.666916 -0.955971 0
M  V30 11 C -0.310277 -1.319105 0.055455 0
M  V30 12 N -0.801369 0.005687 -0.072684 0
M  V30 13 C -0.467940 0.829468 -1.187539 0
M  V30 14 C -1.294957 1.416469 -2.152579 0
M  V30 15 C -0.779500 2.186090 -3.167678 0
M  V30 16 C 0.577944 2.404906 -3.266658 0
M  V30 17 N 1.431570 1.860369 -2.357495 0
M  V30 18 C 0.887719 1.111709 -1.376785 0
M  V30 19 O 1.808841 0.596024 -0.497657 0
M  V30 20 C 3.183994 0.773691 -0.535433 0
M  V30 21 C 3.860859 -0.557746 -0.816437 0
M  V30 22 C 3.754646 1.423103 0.706393 0
M  V30 23 N 3.190249 2.736459 0.926582 0
M  V30 24 C -0.589630 -2.172407 1.096603 0
M  V30 25 C -1.353122 -1.995709 2.200751 0
M  V30 26 C -2.098570 -0.722173 2.512912 0
M  V30 27 H -3.592422 -3.951730 6.425156 0
M  V30 28 H -2.939720 -2.419240 7.157941 0
M  V30 29 H -4.568371 -2.431313 6.428705 0
M  V30 30 H 1.713712 -3.185892 -1.904109 0
M  V30 31 H -1.388031 0.730460 0.378848 0
M  V30 32 H -2.354143 1.172672 -1.971631 0
M  V30 33 H -1.518992 2.588090 -3.855994 0
M  V30 34 H 0.916311 3.026070 -4.098583 0
M  V30 35 H 3.442577 1.420481 -1.398604 0
M  V30 36 H 4.897829 -0.306901 -1.117040 0
M  V30 37 H 3.295892 -1.041068 -1.647027 0
M  V30 38 H 3.827144 -1.166397 0.102380 0
M  V30 39 H 4.850328 1.512187 0.579467 0
M  V30 40 H 3.500838 0.773069 1.562549 0
M  V30 41 H 3.217763 2.999671 1.928269 0
M  V30 42 H 3.657248 3.465676 0.359865 0
M  V30 43 H -2.857312 -0.512772 1.722743 0
M  V30 44 H -1.415449 0.133483 2.652164 0
M  V30 45 H -2.668565 -0.865327 3.444081 0
M  V30 END ATOM
M  V30 BEGIN BOND
M  V30 1 1 1 2
M  V30 2 1 2 3
M  V30 3 2 3 4
M  V30 4 1 3 5
M  V30 5 1 5 6
M  V30 6 1 6 7
M  V30 7 2 7 8
M  V30 8 1 8 9
M  V30 9 2 9 10
M  V30 10 1 10 11
M  V30 11 1 11 12
M  V30 12 1 12 13
M  V30 13 2 13 14
M  V30 14 1 14 15
M  V30 15 2 15 16
M  V30 16 1 16 17
M  V30 17 2 17 18
M  V30 18 1 18 19
M  V30 19 1 19 20
M  V30 20 1 20 21
M  V30 21 1 20 22
M  V30 22 1 22 23
M  V30 23 2 11 24
M  V30 24 1 24 25
M  V30 25 1 25 26
M  V30 26 2 25 5
M  V30 27 1 24 7
M  V30 28 1 18 13
M  V30 29 1 1 27
M  V30 30 1 1 28
M  V30 31 1 1 29
M  V30 32 1 9 30
M  V30 33 1 12 31
M  V30 34 1 14 32
M  V30 35 1 15 33
M  V30 36 1 16 34
M  V30 37 1 20 35
M  V30 38 1 21 36
M  V30 39 1 21 37
M  V30 40 1 21 38
M  V30 41 1 22 39
M  V30 42 1 22 40
M  V30 43 1 23 41
M  V30 44 1 23 42
M  V30 45 1 26 43
M  V30 46 1 26 44
M  V30 47 1 26 45
M  V30 END BOND
M  V30 END CTAB
M  END
>  <Dataset>  (374) 
ChEMBL_Kinases

>  <Ligand_Instance>  (374) 
nan

>  <PDB_ID>  (374) 
nan

>  <Standardized_SMILES>  (374) 
COC(=O)c1sc2ncnc(Nc3cccnc3OC(C)CN)c2c1C

>  <Name>  (374) 
nan

>  <Pocket>  (374) 
nan

>  <ATP_Site>  (374) 
nan

>  <Peripheral>  (374) 
nan

>  <Num_H_Atoms_ProtBoundConf>  (374) 
nan

>  <Num_Resolved_Atoms>  (374) 
nan

>  <Num_Not_Resolved_Atoms>  (374) 
nan

$$$$
CHEMBL3698930
     RDKit          3D

  0  0  0  0  0  0  0  0  0  0999 V3000
M  V30 BEGIN CTAB
M  V30 COUNTS 49 51 0 0 0
M  V30 BEGIN ATOM
M  V30 1 C 2.833288 -7.617678 0.871774 0
M  V30 2 O 2.850510 -6.390844 0.173850 0
M  V30 3 C 2.211970 -5.245506 0.592166 0
M  V30 4 O 1.706706 -5.680589 1.654676 0
M  V30 5 C 2.297119 -4.054658 -0.198122 0
M  V30 6 S 3.215537 -3.982395 -1.718635 0
M  V30 7 C 2.776980 -2.182134 -1.997877 0
M  V30 8 N 3.201491 -1.488016 -3.079112 0
M  V30 9 C 2.817199 -0.223601 -3.171715 0
M  V30 10 N 2.063198 0.156156 -2.163317 0
M  V30 11 C 1.639469 -0.502488 -1.102554 0
M  V30 12 N 0.808989 0.166322 -0.187598 0
M  V30 13 C 0.185430 1.429627 -0.275808 0
M  V30 14 C 0.345597 2.270259 -1.359643 0
M  V30 15 C -0.239821 3.501776 -1.543403 0
M  V30 16 C -1.090129 3.971194 -0.539706 0
M  V30 17 F -1.701641 5.172589 -0.645400 0
M  V30 18 C -1.276413 3.163157 0.557944 0
M  V30 19 C -0.676796 1.939807 0.709177 0
M  V30 20 O -0.896143 1.169173 1.821610 0
M  V30 21 C -1.701137 1.395079 2.913259 0
M  V30 22 C -0.955082 1.563496 4.218184 0
M  V30 23 C -2.687759 0.234848 3.069053 0
M  V30 24 C -3.544375 0.117400 1.819581 0
M  V30 25 N -4.293139 1.332692 1.575101 0
M  V30 26 C 1.987914 -1.814237 -0.926863 0
M  V30 27 C 1.738427 -2.771061 -0.001897 0
M  V30 28 C 0.904318 -2.593306 1.214184 0
M  V30 29 H 3.687920 -7.595246 1.576376 0
M  V30 30 H 2.930014 -8.498717 0.176530 0
M  V30 31 H 1.906019 -7.789529 1.456550 0
M  V30 32 H 3.050134 0.473907 -3.943500 0
M  V30 33 H 0.583479 -0.232468 0.709072 0
M  V30 34 H 0.964478 2.060122 -2.219812 0
M  V30 35 H -0.111547 4.153950 -2.390748 0
M  V30 36 H -1.942555 3.580068 1.298353 0
M  V30 37 H -2.300231 2.311614 2.775156 0
M  V30 38 H -0.965491 0.613164 4.791109 0
M  V30 39 H 0.106582 1.779838 3.991997 0
M  V30 40 H -1.418777 2.335175 4.865972 0
M  V30 41 H -3.314981 0.379326 3.970586 0
M  V30 42 H -2.081227 -0.685264 3.184557 0
M  V30 43 H -4.233263 -0.750477 1.991786 0
M  V30 44 H -2.924803 -0.135608 0.943684 0
M  V30 45 H -4.869364 1.514804 2.414324 0
M  V30 46 H -4.873461 1.149753 0.723875 0
M  V30 47 H 1.306624 -1.928299 1.970657 0
M  V30 48 H 0.728893 -3.591054 1.707360 0
M  V30 49 H -0.157252 -2.289572 0.972805 0
M  V30 END ATOM
M  V30 BEGIN BOND
M  V30 1 1 1 2
M  V30 2 1 2 3
M  V30 3 2 3 4
M  V30 4 1 3 5
M  V30 5 1 5 6
M  V30 6 1 6 7
M  V30 7 2 7 8
M  V30 8 1 8 9
M  V30 9 2 9 10
M  V30 10 1 10 11
M  V30 11 1 11 12
M  V30 12 1 12 13
M  V30 13 2 13 14
M  V30 14 1 14 15
M  V30 15 2 15 16
M  V30 16 1 16 17
M  V30 17 1 16 18
M  V30 18 2 18 19
M  V30 19 1 19 20
M  V30 20 1 20 21
M  V30 21 1 21 22
M  V30 22 1 21 23
M  V30 23 1 23 24
M  V30 24 1 24 25
M  V30 25 2 11 26
M  V30 26 1 26 27
M  V30 27 1 27 28
M  V30 28 2 27 5
M  V30 29 1 26 7
M  V30 30 1 19 13
M  V30 31 1 1 29
M  V30 32 1 1 30
M  V30 33 1 1 31
M  V30 34 1 9 32
M  V30 35 1 12 33
M  V30 36 1 14 34
M  V30 37 1 15 35
M  V30 38 1 18 36
M  V30 39 1 21 37
M  V30 40 1 22 38
M  V30 41 1 22 39
M  V30 42 1 22 40
M  V30 43 1 23 41
M  V30 44 1 23 42
M  V30 45 1 24 43
M  V30 46 1 24 44
M  V30 47 1 25 45
M  V30 48 1 25 46
M  V30 49 1 28 47
M  V30 50 1 28 48
M  V30 51 1 28 49
M  V30 END BOND
M  V30 END CTAB
M  END
>  <Dataset>  (375) 
ChEMBL_Kinases

>  <Ligand_Instance>  (375) 
nan

>  <PDB_ID>  (375) 
nan

>  <Standardized_SMILES>  (375) 
COC(=O)c1sc2ncnc(Nc3ccc(F)cc3OC(C)CCN)c2c1C

>  <Name>  (375) 
nan

>  <Pocket>  (375) 
nan

>  <ATP_Site>  (375) 
nan

>  <Peripheral>  (375) 
nan

>  <Num_H_Atoms_ProtBoundConf>  (375) 
nan

>  <Num_Resolved_Atoms>  (375) 
nan

>  <Num_Not_Resolved_Atoms>  (375) 
nan

$$$$
CHEMBL3698931
     RDKit          3D

  0  0  0  0  0  0  0  0  0  0999 V3000
M  V30 BEGIN CTAB
M  V30 COUNTS 55 57 0 0 0
M  V30 BEGIN ATOM
M  V30 1 C 4.171750 -4.188037 3.206988 0
M  V30 2 O 3.772231 -3.157741 2.326903 0
M  V30 3 C 4.645771 -2.508077 1.468195 0
M  V30 4 O 5.851472 -2.857904 1.478430 0
M  V30 5 C 4.231100 -1.460424 0.575285 0
M  V30 6 S 5.384455 -0.670105 -0.491668 0
M  V30 7 C 4.191612 0.461603 -1.255387 0
M  V30 8 N 4.294734 1.432925 -2.213418 0
M  V30 9 C 3.213302 2.131424 -2.591312 0
M  V30 10 N 2.069203 1.828955 -1.993535 0
M  V30 11 C 1.936402 0.888623 -1.057131 0
M  V30 12 N 0.590747 0.806974 -0.611078 0
M  V30 13 C 0.226208 1.691817 0.471351 0
M  V30 14 C 1.207853 2.536339 0.977528 0
M  V30 15 C 0.940854 3.426585 2.025555 0
M  V30 16 C -0.336461 3.439499 2.544142 0
M  V30 17 F -0.703813 4.261411 3.559135 0
M  V30 18 C -1.283292 2.599915 2.029458 0
M  V30 19 C -1.068925 1.710186 1.002717 0
M  V30 20 O -1.923309 0.831728 0.410368 0
M  V30 21 C -3.257828 0.650205 0.744656 0
M  V30 22 C -4.080646 0.981185 -0.479380 0
M  V30 23 C -3.460682 -0.767072 1.212546 0
M  V30 24 C -3.118256 -1.813072 0.208039 0
M  V30 25 N -3.375176 -3.101720 0.833732 0
M  V30 26 S -3.028857 -4.413451 -0.196897 0
M  V30 27 C -4.003206 -4.444946 -1.668837 0
M  V30 28 O -3.317325 -5.677794 0.573789 0
M  V30 29 O -1.566782 -4.454332 -0.529777 0
M  V30 30 C 2.990620 0.129524 -0.614469 0
M  V30 31 C 3.017634 -0.851088 0.317248 0
M  V30 32 C 1.874564 -1.362479 1.103043 0
M  V30 33 H 4.325495 -5.154071 2.680695 0
M  V30 34 H 5.070949 -3.923750 3.801169 0
M  V30 35 H 3.339353 -4.344776 3.923633 0
M  V30 36 H 3.476503 2.849018 -3.349513 0
M  V30 37 H -0.145163 0.166306 -1.001537 0
M  V30 38 H 2.221289 2.564593 0.607108 0
M  V30 39 H 1.696300 4.087761 2.426915 0
M  V30 40 H -2.285337 2.598220 2.423876 0
M  V30 41 H -3.581651 1.308095 1.557188 0
M  V30 42 H -3.948438 2.068798 -0.670751 0
M  V30 43 H -3.687114 0.468096 -1.383962 0
M  V30 44 H -5.147733 0.820165 -0.312472 0
M  V30 45 H -2.790238 -0.898898 2.095252 0
M  V30 46 H -4.506670 -0.960639 1.545441 0
M  V30 47 H -3.849711 -1.737667 -0.632162 0
M  V30 48 H -2.116624 -1.739571 -0.210857 0
M  V30 49 H -4.313000 -3.168452 1.237617 0
M  V30 50 H -3.504680 -3.875857 -2.485045 0
M  V30 51 H -4.148888 -5.476164 -2.055631 0
M  V30 52 H -5.012484 -4.007481 -1.523961 0
M  V30 53 H 1.995400 -1.076575 2.186132 0
M  V30 54 H 1.883718 -2.495697 1.134095 0
M  V30 55 H 0.887852 -1.093045 0.747800 0
M  V30 END ATOM
M  V30 BEGIN BOND
M  V30 1 1 1 2
M  V30 2 1 2 3
M  V30 3 2 3 4
M  V30 4 1 3 5
M  V30 5 1 5 6
M  V30 6 1 6 7
M  V30 7 2 7 8
M  V30 8 1 8 9
M  V30 9 2 9 10
M  V30 10 1 10 11
M  V30 11 1 11 12
M  V30 12 1 12 13
M  V30 13 2 13 14
M  V30 14 1 14 15
M  V30 15 2 15 16
M  V30 16 1 16 17
M  V30 17 1 16 18
M  V30 18 2 18 19
M  V30 19 1 19 20
M  V30 20 1 20 21
M  V30 21 1 21 22
M  V30 22 1 21 23
M  V30 23 1 23 24
M  V30 24 1 24 25
M  V30 25 1 25 26
M  V30 26 1 26 27
M  V30 27 2 26 28
M  V30 28 2 26 29
M  V30 29 2 11 30
M  V30 30 1 30 31
M  V30 31 1 31 32
M  V30 32 2 31 5
M  V30 33 1 30 7
M  V30 34 1 19 13
M  V30 35 1 1 33
M  V30 36 1 1 34
M  V30 37 1 1 35
M  V30 38 1 9 36
M  V30 39 1 12 37
M  V30 40 1 14 38
M  V30 41 1 15 39
M  V30 42 1 18 40
M  V30 43 1 21 41
M  V30 44 1 22 42
M  V30 45 1 22 43
M  V30 46 1 22 44
M  V30 47 1 23 45
M  V30 48 1 23 46
M  V30 49 1 24 47
M  V30 50 1 24 48
M  V30 51 1 25 49
M  V30 52 1 27 50
M  V30 53 1 27 51
M  V30 54 1 27 52
M  V30 55 1 32 53
M  V30 56 1 32 54
M  V30 57 1 32 55
M  V30 END BOND
M  V30 END CTAB
M  END
>  <Dataset>  (376) 
ChEMBL_Kinases

>  <Ligand_Instance>  (376) 
nan

>  <PDB_ID>  (376) 
nan

>  <Standardized_SMILES>  (376) 
COC(=O)c1sc2ncnc(Nc3ccc(F)cc3OC(C)CCNS(C)(=O)=O)c2c1C

>  <Name>  (376) 
nan

>  <Pocket>  (376) 
nan

>  <ATP_Site>  (376) 
nan

>  <Peripheral>  (376) 
nan

>  <Num_H_Atoms_ProtBoundConf>  (376) 
nan

>  <Num_Resolved_Atoms>  (376) 
nan

>  <Num_Not_Resolved_Atoms>  (376) 
nan

$$$$
CHEMBL3698932
     RDKit          3D

  0  0  0  0  0  0  0  0  0  0999 V3000
M  V30 BEGIN CTAB
M  V30 COUNTS 54 56 0 0 0
M  V30 BEGIN ATOM
M  V30 1 C 4.041382 -4.667412 5.424761 0
M  V30 2 O 4.139894 -3.969653 4.188220 0
M  V30 3 C 3.049440 -3.289516 3.656479 0
M  V30 4 O 2.140002 -3.483005 4.503041 0
M  V30 5 C 3.232964 -2.589884 2.365423 0
M  V30 6 S 4.759934 -2.563040 1.441030 0
M  V30 7 C 3.999614 -1.508992 0.081516 0
M  V30 8 N 4.619031 -1.063857 -1.040180 0
M  V30 9 C 3.910083 -0.326662 -1.895841 0
M  V30 10 N 2.661963 -0.108878 -1.549261 0
M  V30 11 C 2.040230 -0.539941 -0.450242 0
M  V30 12 N 0.678885 -0.157167 -0.330006 0
M  V30 13 C 0.341576 1.143398 0.208601 0
M  V30 14 C 1.441381 1.911838 0.522746 0
M  V30 15 C 1.249108 3.197743 1.048834 0
M  V30 16 C -0.039656 3.650868 1.234550 0
M  V30 17 F -0.232740 4.891853 1.738969 0
M  V30 18 C -1.081136 2.830246 0.899745 0
M  V30 19 C -0.974099 1.546959 0.375128 0
M  V30 20 O -1.996904 0.711800 0.037332 0
M  V30 21 C -3.350143 0.972597 0.157378 0
M  V30 22 C -3.943486 0.101047 1.274350 0
M  V30 23 C -4.190708 0.794981 -1.070200 0
M  V30 24 C -4.210553 -0.566157 -1.663810 0
M  V30 25 N -2.924554 -1.061261 -2.108337 0
M  V30 26 C -3.028500 -2.388547 -2.666627 0
M  V30 27 C -1.834521 -3.088189 -3.186499 0
M  V30 28 O -4.094741 -3.079461 -2.775214 0
M  V30 29 C 2.698019 -1.308165 0.488918 0
M  V30 30 C 2.322164 -1.867671 1.657969 0
M  V30 31 C 0.922653 -1.718364 2.201463 0
M  V30 32 H 3.501353 -5.638487 5.315994 0
M  V30 33 H 5.023344 -4.828458 5.883386 0
M  V30 34 H 3.440481 -4.025647 6.104895 0
M  V30 35 H 4.469479 -0.012894 -2.755726 0
M  V30 36 H -0.117995 -0.736435 -0.610349 0
M  V30 37 H 2.471658 1.624175 0.405494 0
M  V30 38 H 2.079772 3.836143 1.309328 0
M  V30 39 H -2.047925 3.238674 1.066647 0
M  V30 40 H -3.518704 2.018272 0.493705 0
M  V30 41 H -4.877266 -0.399783 0.943183 0
M  V30 42 H -4.087437 0.722435 2.169853 0
M  V30 43 H -3.221973 -0.719850 1.441808 0
M  V30 44 H -3.854743 1.512981 -1.853687 0
M  V30 45 H -5.234953 1.073628 -0.821016 0
M  V30 46 H -4.679271 -1.333833 -1.010369 0
M  V30 47 H -4.869913 -0.536903 -2.562861 0
M  V30 48 H -1.969867 -0.644013 -2.100131 0
M  V30 49 H -1.995715 -3.492722 -4.207952 0
M  V30 50 H -0.951789 -2.432725 -3.133939 0
M  V30 51 H -1.641765 -3.966058 -2.542817 0
M  V30 52 H 0.776804 -0.796350 2.757930 0
M  V30 53 H 0.150470 -1.821377 1.433219 0
M  V30 54 H 0.700332 -2.571735 2.911871 0
M  V30 END ATOM
M  V30 BEGIN BOND
M  V30 1 1 1 2
M  V30 2 1 2 3
M  V30 3 2 3 4
M  V30 4 1 3 5
M  V30 5 1 5 6
M  V30 6 1 6 7
M  V30 7 2 7 8
M  V30 8 1 8 9
M  V30 9 2 9 10
M  V30 10 1 10 11
M  V30 11 1 11 12
M  V30 12 1 12 13
M  V30 13 2 13 14
M  V30 14 1 14 15
M  V30 15 2 15 16
M  V30 16 1 16 17
M  V30 17 1 16 18
M  V30 18 2 18 19
M  V30 19 1 19 20
M  V30 20 1 20 21
M  V30 21 1 21 22
M  V30 22 1 21 23
M  V30 23 1 23 24
M  V30 24 1 24 25
M  V30 25 1 25 26
M  V30 26 1 26 27
M  V30 27 2 26 28
M  V30 28 2 11 29
M  V30 29 1 29 30
M  V30 30 1 30 31
M  V30 31 2 30 5
M  V30 32 1 29 7
M  V30 33 1 19 13
M  V30 34 1 1 32
M  V30 35 1 1 33
M  V30 36 1 1 34
M  V30 37 1 9 35
M  V30 38 1 12 36
M  V30 39 1 14 37
M  V30 40 1 15 38
M  V30 41 1 18 39
M  V30 42 1 21 40
M  V30 43 1 22 41
M  V30 44 1 22 42
M  V30 45 1 22 43
M  V30 46 1 23 44
M  V30 47 1 23 45
M  V30 48 1 24 46
M  V30 49 1 24 47
M  V30 50 1 25 48
M  V30 51 1 27 49
M  V30 52 1 27 50
M  V30 53 1 27 51
M  V30 54 1 31 52
M  V30 55 1 31 53
M  V30 56 1 31 54
M  V30 END BOND
M  V30 END CTAB
M  END
>  <Dataset>  (377) 
ChEMBL_Kinases

>  <Ligand_Instance>  (377) 
nan

>  <PDB_ID>  (377) 
nan

>  <Standardized_SMILES>  (377) 
COC(=O)c1sc2ncnc(Nc3ccc(F)cc3OC(C)CCNC(C)=O)c2c1C

>  <Name>  (377) 
nan

>  <Pocket>  (377) 
nan

>  <ATP_Site>  (377) 
nan

>  <Peripheral>  (377) 
nan

>  <Num_H_Atoms_ProtBoundConf>  (377) 
nan

>  <Num_Resolved_Atoms>  (377) 
nan

>  <Num_Not_Resolved_Atoms>  (377) 
nan

$$$$
CHEMBL3698933
     RDKit          3D

  0  0  0  0  0  0  0  0  0  0999 V3000
M  V30 BEGIN CTAB
M  V30 COUNTS 60 62 0 0 0
M  V30 BEGIN ATOM
M  V30 1 C 4.211633 -3.283880 4.266291 0
M  V30 2 O 3.778658 -2.516070 3.199049 0
M  V30 3 C 4.434295 -2.057007 2.112133 0
M  V30 4 O 5.672372 -2.380468 2.056686 0
M  V30 5 C 3.946999 -1.276836 1.054712 0
M  V30 6 S 4.984730 -0.724118 -0.350420 0
M  V30 7 C 3.676729 0.166506 -1.181428 0
M  V30 8 N 3.635991 0.877411 -2.322392 0
M  V30 9 C 2.538751 1.472875 -2.767637 0
M  V30 10 N 1.435320 1.337063 -2.016395 0
M  V30 11 C 1.409186 0.647770 -0.879096 0
M  V30 12 N 0.133083 0.655792 -0.224250 0
M  V30 13 C -0.005497 1.472886 0.931866 0
M  V30 14 C 1.042605 2.229185 1.358863 0
M  V30 15 C 0.851406 2.895805 2.545774 0
M  V30 16 C -0.327320 2.830953 3.289275 0
M  V30 17 F -0.394789 3.535972 4.438784 0
M  V30 18 C -1.348191 2.032468 2.768899 0
M  V30 19 C -1.203161 1.340107 1.577726 0
M  V30 20 O -2.244397 0.670546 1.251716 0
M  V30 21 C -3.302010 -0.010652 0.918541 0
M  V30 22 C -4.651365 0.674848 1.224723 0
M  V30 23 C -3.412008 -1.420408 1.416219 0
M  V30 24 C -2.374339 -2.375926 0.970132 0
M  V30 25 N -2.273830 -2.469428 -0.480894 0
M  V30 26 C -1.453860 -3.321499 -1.309120 0
M  V30 27 O -0.721623 -4.131344 -0.700392 0
M  V30 28 C -1.487908 -3.239179 -2.790887 0
M  V30 29 C -2.860205 -3.095410 -3.377713 0
M  V30 30 C -0.511103 -2.256607 -3.351458 0
M  V30 31 C 2.512417 0.007412 -0.364688 0
M  V30 32 C 2.682854 -0.737652 0.769640 0
M  V30 33 C 1.627630 -1.096075 1.751960 0
M  V30 34 H 4.099453 -2.608223 5.179651 0
M  V30 35 H 3.544902 -4.139358 4.494271 0
M  V30 36 H 5.287843 -3.544964 4.267963 0
M  V30 37 H 2.630057 2.002385 -3.697154 0
M  V30 38 H -0.628286 0.058268 -0.640719 0
M  V30 39 H 1.975065 2.318430 0.833918 0
M  V30 40 H 1.681590 3.505337 2.893048 0
M  V30 41 H -2.221097 2.045836 3.431544 0
M  V30 42 H -3.364010 -0.061792 -0.250678 0
M  V30 43 H -4.847780 0.672138 2.292463 0
M  V30 44 H -4.605533 1.663917 0.750860 0
M  V30 45 H -5.393189 0.077517 0.649787 0
M  V30 46 H -4.440640 -1.832621 1.280293 0
M  V30 47 H -3.297644 -1.345875 2.539382 0
M  V30 48 H -1.433706 -2.190120 1.459366 0
M  V30 49 H -2.724186 -3.403365 1.300471 0
M  V30 50 H -2.866487 -1.838233 -1.014885 0
M  V30 51 H -1.108247 -4.255582 -3.131139 0
M  V30 52 H -3.183760 -3.959224 -3.993567 0
M  V30 53 H -3.655572 -2.957158 -2.580577 0
M  V30 54 H -2.878852 -2.207460 -4.058720 0
M  V30 55 H -0.714975 -1.213103 -3.105416 0
M  V30 56 H -0.423241 -2.443186 -4.442441 0
M  V30 57 H 0.497000 -2.556294 -2.937763 0
M  V30 58 H 1.614163 -0.316120 2.516356 0
M  V30 59 H 1.781719 -2.112409 2.174487 0
M  V30 60 H 0.629036 -1.158748 1.267848 0
M  V30 END ATOM
M  V30 BEGIN BOND
M  V30 1 1 1 2
M  V30 2 1 2 3
M  V30 3 2 3 4
M  V30 4 1 3 5
M  V30 5 1 5 6
M  V30 6 1 6 7
M  V30 7 2 7 8
M  V30 8 1 8 9
M  V30 9 2 9 10
M  V30 10 1 10 11
M  V30 11 1 11 12
M  V30 12 1 12 13
M  V30 13 2 13 14
M  V30 14 1 14 15
M  V30 15 2 15 16
M  V30 16 1 16 17
M  V30 17 1 16 18
M  V30 18 2 18 19
M  V30 19 1 19 20
M  V30 20 1 20 21
M  V30 21 1 21 22
M  V30 22 1 21 23
M  V30 23 1 23 24
M  V30 24 1 24 25
M  V30 25 1 25 26
M  V30 26 2 26 27
M  V30 27 1 26 28
M  V30 28 1 28 29
M  V30 29 1 28 30
M  V30 30 2 11 31
M  V30 31 1 31 32
M  V30 32 1 32 33
M  V30 33 2 32 5
M  V30 34 1 31 7
M  V30 35 1 19 13
M  V30 36 1 1 34
M  V30 37 1 1 35
M  V30 38 1 1 36
M  V30 39 1 9 37
M  V30 40 1 12 38
M  V30 41 1 14 39
M  V30 42 1 15 40
M  V30 43 1 18 41
M  V30 44 1 21 42
M  V30 45 1 22 43
M  V30 46 1 22 44
M  V30 47 1 22 45
M  V30 48 1 23 46
M  V30 49 1 23 47
M  V30 50 1 24 48
M  V30 51 1 24 49
M  V30 52 1 25 50
M  V30 53 1 28 51
M  V30 54 1 29 52
M  V30 55 1 29 53
M  V30 56 1 29 54
M  V30 57 1 30 55
M  V30 58 1 30 56
M  V30 59 1 30 57
M  V30 60 1 33 58
M  V30 61 1 33 59
M  V30 62 1 33 60
M  V30 END BOND
M  V30 END CTAB
M  END
>  <Dataset>  (378) 
ChEMBL_Kinases

>  <Ligand_Instance>  (378) 
nan

>  <PDB_ID>  (378) 
nan

>  <Standardized_SMILES>  (378) 
COC(=O)c1sc2ncnc(Nc3ccc(F)cc3OC(C)CCNC(=O)C(C)C)c2c1C

>  <Name>  (378) 
nan

>  <Pocket>  (378) 
nan

>  <ATP_Site>  (378) 
nan

>  <Peripheral>  (378) 
nan

>  <Num_H_Atoms_ProtBoundConf>  (378) 
nan

>  <Num_Resolved_Atoms>  (378) 
nan

>  <Num_Not_Resolved_Atoms>  (378) 
nan

$$$$
CHEMBL3698934
     RDKit          3D

  0  0  0  0  0  0  0  0  0  0999 V3000
M  V30 BEGIN CTAB
M  V30 COUNTS 65 67 0 0 0
M  V30 BEGIN ATOM
M  V30 1 C 5.111928 -3.010452 3.202739 0
M  V30 2 C 5.867049 -2.822882 1.904350 0
M  V30 3 C 4.886444 -3.061425 0.759162 0
M  V30 4 C 5.524905 -2.903223 -0.597371 0
M  V30 5 N 4.577664 -3.130962 -1.692901 0
M  V30 6 C 3.418728 -2.325222 -1.843363 0
M  V30 7 O 3.243672 -1.406658 -1.007370 0
M  V30 8 N 2.418536 -2.430993 -2.835235 0
M  V30 9 C 1.353239 -1.497094 -2.767069 0
M  V30 10 C 1.655904 -0.061799 -2.881765 0
M  V30 11 C 0.298149 0.678775 -2.750885 0
M  V30 12 C -0.642370 0.246760 -3.834644 0
M  V30 13 O -0.218334 0.462232 -1.458487 0
M  V30 14 C -0.329745 1.418037 -0.479953 0
M  V30 15 C 0.003339 2.777714 -0.492001 0
M  V30 16 C -0.184289 3.581848 0.609976 0
M  V30 17 F 0.159010 4.870225 0.521984 0
M  V30 18 C -0.711308 3.079564 1.779667 0
M  V30 19 C -1.051180 1.747127 1.828145 0
M  V30 20 C -0.857613 0.966935 0.724496 0
M  V30 21 N -1.238835 -0.387162 0.886997 0
M  V30 22 C -1.731560 -0.950480 2.089794 0
M  V30 23 N -0.777195 -1.591671 2.756166 0
M  V30 24 C -0.913852 -2.214838 3.911495 0
M  V30 25 N -2.150249 -2.171785 4.426105 0
M  V30 26 C -3.129352 -1.533760 3.777948 0
M  V30 27 S -4.898106 -1.260495 4.168579 0
M  V30 28 C -5.281592 -0.355639 2.775859 0
M  V30 29 C -6.601105 0.165653 2.525717 0
M  V30 30 O -7.487275 -0.092791 3.410306 0
M  V30 31 O -7.326996 0.888412 1.636501 0
M  V30 32 C -8.714453 1.184559 1.814673 0
M  V30 33 C -4.124700 -0.264737 2.047341 0
M  V30 34 C -4.139006 0.467994 0.752964 0
M  V30 35 C -3.016995 -0.870656 2.563299 0
M  V30 36 H 5.280651 -2.145645 3.898767 0
M  V30 37 H 5.370664 -3.973886 3.682634 0
M  V30 38 H 4.009749 -3.025714 3.007250 0
M  V30 39 H 6.293404 -1.798306 1.844455 0
M  V30 40 H 6.660035 -3.601043 1.874393 0
M  V30 41 H 4.570986 -4.137095 0.872671 0
M  V30 42 H 4.030679 -2.386562 0.941916 0
M  V30 43 H 5.847385 -1.827884 -0.713765 0
M  V30 44 H 6.377902 -3.579411 -0.716076 0
M  V30 45 H 4.692082 -3.887070 -2.420325 0
M  V30 46 H 2.563878 -3.209815 -3.546270 0
M  V30 47 H 0.643124 -1.759454 -3.592965 0
M  V30 48 H 0.816671 -1.673243 -1.812998 0
M  V30 49 H 1.968213 0.198546 -3.928378 0
M  V30 50 H 2.258724 0.397186 -2.099641 0
M  V30 51 H 0.481110 1.770215 -2.863845 0
M  V30 52 H -1.365807 -0.527806 -3.493984 0
M  V30 53 H -0.043896 -0.099261 -4.702921 0
M  V30 54 H -1.239946 1.103820 -4.152384 0
M  V30 55 H 0.406317 3.128617 -1.404709 0
M  V30 56 H -0.841687 3.745767 2.622049 0
M  V30 57 H -1.460186 1.400797 2.760987 0
M  V30 58 H -1.171929 -1.069026 0.086675 0
M  V30 59 H -0.223250 -2.746933 4.515154 0
M  V30 60 H -8.946361 1.386257 2.877385 0
M  V30 61 H -9.374688 0.431463 1.362333 0
M  V30 62 H -8.864846 2.139016 1.271795 0
M  V30 63 H -3.457974 -0.070416 0.051809 0
M  V30 64 H -3.791357 1.505994 0.816291 0
M  V30 65 H -5.163164 0.511978 0.333268 0
M  V30 END ATOM
M  V30 BEGIN BOND
M  V30 1 1 1 2
M  V30 2 1 2 3
M  V30 3 1 3 4
M  V30 4 1 4 5
M  V30 5 1 5 6
M  V30 6 2 6 7
M  V30 7 1 6 8
M  V30 8 1 8 9
M  V30 9 1 9 10
M  V30 10 1 10 11
M  V30 11 1 11 12
M  V30 12 1 11 13
M  V30 13 1 13 14
M  V30 14 2 14 15
M  V30 15 1 15 16
M  V30 16 1 16 17
M  V30 17 2 16 18
M  V30 18 1 18 19
M  V30 19 2 19 20
M  V30 20 1 20 21
M  V30 21 1 21 22
M  V30 22 2 22 23
M  V30 23 1 23 24
M  V30 24 2 24 25
M  V30 25 1 25 26
M  V30 26 1 26 27
M  V30 27 1 27 28
M  V30 28 1 28 29
M  V30 29 2 29 30
M  V30 30 1 29 31
M  V30 31 1 31 32
M  V30 32 2 28 33
M  V30 33 1 33 34
M  V30 34 1 33 35
M  V30 35 1 20 14
M  V30 36 1 35 22
M  V30 37 2 35 26
M  V30 38 1 1 36
M  V30 39 1 1 37
M  V30 40 1 1 38
M  V30 41 1 2 39
M  V30 42 1 2 40
M  V30 43 1 3 41
M  V30 44 1 3 42
M  V30 45 1 4 43
M  V30 46 1 4 44
M  V30 47 1 5 45
M  V30 48 1 8 46
M  V30 49 1 9 47
M  V30 50 1 9 48
M  V30 51 1 10 49
M  V30 52 1 10 50
M  V30 53 1 11 51
M  V30 54 1 12 52
M  V30 55 1 12 53
M  V30 56 1 12 54
M  V30 57 1 15 55
M  V30 58 1 18 56
M  V30 59 1 19 57
M  V30 60 1 21 58
M  V30 61 1 24 59
M  V30 62 1 32 60
M  V30 63 1 32 61
M  V30 64 1 32 62
M  V30 65 1 34 63
M  V30 66 1 34 64
M  V30 67 1 34 65
M  V30 END BOND
M  V30 END CTAB
M  END
>  <Dataset>  (379) 
ChEMBL_Kinases

>  <Ligand_Instance>  (379) 
nan

>  <PDB_ID>  (379) 
nan

>  <Standardized_SMILES>  (379) 
CCCCNC(=O)NCCC(C)Oc1cc(F)ccc1Nc1ncnc2sc(C(=O)OC)c(C)c12

>  <Name>  (379) 
nan

>  <Pocket>  (379) 
nan

>  <ATP_Site>  (379) 
nan

>  <Peripheral>  (379) 
nan

>  <Num_H_Atoms_ProtBoundConf>  (379) 
nan

>  <Num_Resolved_Atoms>  (379) 
nan

>  <Num_Not_Resolved_Atoms>  (379) 
nan

$$$$
CHEMBL3698935
     RDKit          3D

  0  0  0  0  0  0  0  0  0  0999 V3000
M  V30 BEGIN CTAB
M  V30 COUNTS 55 57 0 0 0
M  V30 BEGIN ATOM
M  V30 1 C 1.643966 -4.182576 -5.031223 0
M  V30 2 O 1.719642 -3.243893 -3.975873 0
M  V30 3 C 2.699525 -2.302140 -3.852411 0
M  V30 4 O 3.423922 -2.510837 -4.855047 0
M  V30 5 C 3.060842 -1.251567 -2.956531 0
M  V30 6 S 4.466058 -0.303511 -3.266293 0
M  V30 7 C 4.253300 0.766673 -1.744812 0
M  V30 8 N 5.065320 1.836337 -1.304147 0
M  V30 9 C 4.695986 2.444193 -0.193518 0
M  V30 10 N 3.620407 1.995160 0.383858 0
M  V30 11 C 2.847761 0.998672 -0.009005 0
M  V30 12 N 1.756740 0.753448 0.833080 0
M  V30 13 C 1.124248 1.483569 1.867668 0
M  V30 14 C 1.603242 2.752485 2.185557 0
M  V30 15 C 1.067527 3.562608 3.182292 0
M  V30 16 C -0.018647 3.079195 3.913634 0
M  V30 17 F -0.601293 3.807228 4.903948 0
M  V30 18 C -0.483238 1.825209 3.591233 0
M  V30 19 C 0.030459 1.006916 2.610242 0
M  V30 20 O -0.381919 -0.241235 2.242070 0
M  V30 21 C -1.442964 -0.908761 2.841164 0
M  V30 22 C -0.971051 -2.186981 3.518462 0
M  V30 23 C -2.533205 -1.260065 1.841212 0
M  V30 24 C -3.635251 -1.973574 2.551003 0
M  V30 25 N -4.725779 -2.350757 1.675178 0
M  V30 26 C -5.476340 -1.217996 1.171564 0
M  V30 27 C -4.124825 -2.999186 0.517856 0
M  V30 28 C 3.087568 0.270802 -1.133174 0
M  V30 29 C 2.491963 -0.769289 -1.779618 0
M  V30 30 C 1.236766 -1.418095 -1.326827 0
M  V30 31 H 0.538792 -4.349813 -5.182304 0
M  V30 32 H 2.050891 -3.793427 -5.986749 0
M  V30 33 H 2.066422 -5.162327 -4.776413 0
M  V30 34 H 5.382175 3.221297 0.025408 0
M  V30 35 H 1.304458 -0.158911 0.730842 0
M  V30 36 H 2.418082 3.297388 1.740189 0
M  V30 37 H 1.402346 4.553399 3.467479 0
M  V30 38 H -1.309287 1.487745 4.165792 0
M  V30 39 H -1.879039 -0.294279 3.642539 0
M  V30 40 H 0.002226 -2.023600 3.999820 0
M  V30 41 H -1.694434 -2.447122 4.301933 0
M  V30 42 H -0.836015 -2.973216 2.742849 0
M  V30 43 H -2.912811 -0.319727 1.431002 0
M  V30 44 H -2.092698 -1.829591 1.016933 0
M  V30 45 H -4.065946 -1.283218 3.308531 0
M  V30 46 H -3.300140 -2.927472 3.025866 0
M  V30 47 H -4.902445 -0.304845 1.029933 0
M  V30 48 H -6.317339 -1.085561 1.915024 0
M  V30 49 H -5.946704 -1.573048 0.217864 0
M  V30 50 H -3.203747 -3.530479 0.830657 0
M  V30 51 H -4.888541 -3.751046 0.160857 0
M  V30 52 H -3.973447 -2.252760 -0.267908 0
M  V30 53 H 1.369944 -2.102438 -0.465632 0
M  V30 54 H 0.849091 -2.090921 -2.155820 0
M  V30 55 H 0.382516 -0.708997 -1.212987 0
M  V30 END ATOM
M  V30 BEGIN BOND
M  V30 1 1 1 2
M  V30 2 1 2 3
M  V30 3 2 3 4
M  V30 4 1 3 5
M  V30 5 1 5 6
M  V30 6 1 6 7
M  V30 7 2 7 8
M  V30 8 1 8 9
M  V30 9 2 9 10
M  V30 10 1 10 11
M  V30 11 1 11 12
M  V30 12 1 12 13
M  V30 13 2 13 14
M  V30 14 1 14 15
M  V30 15 2 15 16
M  V30 16 1 16 17
M  V30 17 1 16 18
M  V30 18 2 18 19
M  V30 19 1 19 20
M  V30 20 1 20 21
M  V30 21 1 21 22
M  V30 22 1 21 23
M  V30 23 1 23 24
M  V30 24 1 24 25
M  V30 25 1 25 26
M  V30 26 1 25 27
M  V30 27 2 11 28
M  V30 28 1 28 29
M  V30 29 1 29 30
M  V30 30 2 29 5
M  V30 31 1 28 7
M  V30 32 1 19 13
M  V30 33 1 1 31
M  V30 34 1 1 32
M  V30 35 1 1 33
M  V30 36 1 9 34
M  V30 37 1 12 35
M  V30 38 1 14 36
M  V30 39 1 15 37
M  V30 40 1 18 38
M  V30 41 1 21 39
M  V30 42 1 22 40
M  V30 43 1 22 41
M  V30 44 1 22 42
M  V30 45 1 23 43
M  V30 46 1 23 44
M  V30 47 1 24 45
M  V30 48 1 24 46
M  V30 49 1 26 47
M  V30 50 1 26 48
M  V30 51 1 26 49
M  V30 52 1 27 50
M  V30 53 1 27 51
M  V30 54 1 27 52
M  V30 55 1 30 53
M  V30 56 1 30 54
M  V30 57 1 30 55
M  V30 END BOND
M  V30 END CTAB
M  END
>  <Dataset>  (380) 
ChEMBL_Kinases

>  <Ligand_Instance>  (380) 
nan

>  <PDB_ID>  (380) 
nan

>  <Standardized_SMILES>  (380) 
COC(=O)c1sc2ncnc(Nc3ccc(F)cc3OC(C)CCN(C)C)c2c1C

>  <Name>  (380) 
nan

>  <Pocket>  (380) 
nan

>  <ATP_Site>  (380) 
nan

>  <Peripheral>  (380) 
nan

>  <Num_H_Atoms_ProtBoundConf>  (380) 
nan

>  <Num_Resolved_Atoms>  (380) 
nan

>  <Num_Not_Resolved_Atoms>  (380) 
nan

$$$$
CHEMBL3698945
     RDKit          3D

  0  0  0  0  0  0  0  0  0  0999 V3000
M  V30 BEGIN CTAB
M  V30 COUNTS 69 71 0 0 0
M  V30 BEGIN ATOM
M  V30 1 C 0.544678 -0.465975 0.566939 0
M  V30 2 C 0.699146 1.008041 0.633968 0
M  V30 3 C 1.929178 1.439527 0.281487 0
M  V30 4 C 3.218415 1.004524 -0.166263 0
M  V30 5 O 4.144312 1.864017 -0.384510 0
M  V30 6 N 3.753017 -0.276458 -0.449454 0
M  V30 7 C 5.088578 -0.553454 -0.899616 0
M  V30 8 C 5.470015 0.064138 -2.203263 0
M  V30 9 C 6.891274 -0.280016 -2.612329 0
M  V30 10 N 6.983796 -1.726024 -2.730720 0
M  V30 11 C 6.225747 -2.255655 -3.822525 0
M  V30 12 C 8.364727 -2.146150 -2.819602 0
M  V30 13 S 1.803382 3.211716 0.476039 0
M  V30 14 C 0.119054 3.277419 1.015545 0
M  V30 15 N -0.733658 4.261605 1.372353 0
M  V30 16 C -1.995433 4.001265 1.749717 0
M  V30 17 N -2.323609 2.725772 1.741452 0
M  V30 18 C -1.533702 1.720134 1.402432 0
M  V30 19 N -2.217811 0.476434 1.489720 0
M  V30 20 C -2.982000 0.166986 0.358795 0
M  V30 21 C -3.020774 1.044240 -0.690788 0
M  V30 22 C -3.802243 0.651116 -1.783108 0
M  V30 23 C -4.487010 -0.541046 -1.799038 0
M  V30 24 F -5.184920 -0.747849 -2.935557 0
M  V30 25 C -4.395682 -1.374176 -0.695527 0
M  V30 26 C -3.628847 -1.039689 0.433146 0
M  V30 27 O -3.754565 -2.034954 1.290800 0
M  V30 28 C -3.381826 -2.459878 2.512564 0
M  V30 29 C -2.437625 -3.684106 2.383154 0
M  V30 30 C -4.529404 -2.983578 3.373750 0
M  V30 31 C -5.588874 -1.960389 3.630146 0
M  V30 32 C -5.097388 -0.731339 4.342236 0
M  V30 33 C -6.339822 -1.599107 2.381668 0
M  V30 34 O -6.520535 -2.560502 4.508738 0
M  V30 35 C -0.230725 1.941368 1.009596 0
M  V30 36 H 0.746260 -0.822376 -0.464165 0
M  V30 37 H 1.326743 -0.962665 1.219675 0
M  V30 38 H -0.397665 -0.865107 0.940885 0
M  V30 39 H 3.078444 -1.057345 -0.304900 0
M  V30 40 H 5.842637 -0.303811 -0.111344 0
M  V30 41 H 5.184831 -1.664895 -1.022419 0
M  V30 42 H 5.348615 1.163194 -2.217953 0
M  V30 43 H 4.811483 -0.401961 -2.987876 0
M  V30 44 H 7.568606 0.030801 -1.801074 0
M  V30 45 H 7.149740 0.202372 -3.556879 0
M  V30 46 H 5.329411 -2.803916 -3.466611 0
M  V30 47 H 5.917052 -1.506176 -4.570565 0
M  V30 48 H 6.850599 -2.997515 -4.360442 0
M  V30 49 H 8.394271 -3.260113 -2.734864 0
M  V30 50 H 8.920719 -1.672274 -2.004892 0
M  V30 51 H 8.766533 -1.768632 -3.782693 0
M  V30 52 H -2.562471 4.880684 2.007417 0
M  V30 53 H -1.871329 0.240177 2.430195 0
M  V30 54 H -2.506069 1.969072 -0.710329 0
M  V30 55 H -3.818686 1.360184 -2.601725 0
M  V30 56 H -5.004038 -2.262256 -0.901275 0
M  V30 57 H -2.788138 -1.731336 3.066379 0
M  V30 58 H -1.380187 -3.346612 2.387747 0
M  V30 59 H -2.716026 -4.231833 1.452600 0
M  V30 60 H -2.559860 -4.371405 3.240584 0
M  V30 61 H -5.004127 -3.829511 2.836681 0
M  V30 62 H -4.088139 -3.333686 4.323769 0
M  V30 63 H -6.004329 -0.091591 4.513775 0
M  V30 64 H -4.385417 -0.201463 3.701828 0
M  V30 65 H -4.700691 -0.988090 5.342043 0
M  V30 66 H -6.017849 -0.611053 2.030498 0
M  V30 67 H -6.056860 -2.310402 1.552192 0
M  V30 68 H -7.424749 -1.624711 2.536156 0
M  V30 69 H -7.389347 -2.069483 4.359961 0
M  V30 END ATOM
M  V30 BEGIN BOND
M  V30 1 1 1 2
M  V30 2 2 2 3
M  V30 3 1 3 4
M  V30 4 2 4 5
M  V30 5 1 4 6
M  V30 6 1 6 7
M  V30 7 1 7 8
M  V30 8 1 8 9
M  V30 9 1 9 10
M  V30 10 1 10 11
M  V30 11 1 10 12
M  V30 12 1 3 13
M  V30 13 1 13 14
M  V30 14 2 14 15
M  V30 15 1 15 16
M  V30 16 2 16 17
M  V30 17 1 17 18
M  V30 18 1 18 19
M  V30 19 1 19 20
M  V30 20 2 20 21
M  V30 21 1 21 22
M  V30 22 2 22 23
M  V30 23 1 23 24
M  V30 24 1 23 25
M  V30 25 2 25 26
M  V30 26 1 26 27
M  V30 27 1 27 28
M  V30 28 1 28 29
M  V30 29 1 28 30
M  V30 30 1 30 31
M  V30 31 1 31 32
M  V30 32 1 31 33
M  V30 33 1 31 34
M  V30 34 2 18 35
M  V30 35 1 35 2
M  V30 36 1 35 14
M  V30 37 1 26 20
M  V30 38 1 1 36
M  V30 39 1 1 37
M  V30 40 1 1 38
M  V30 41 1 6 39
M  V30 42 1 7 40
M  V30 43 1 7 41
M  V30 44 1 8 42
M  V30 45 1 8 43
M  V30 46 1 9 44
M  V30 47 1 9 45
M  V30 48 1 11 46
M  V30 49 1 11 47
M  V30 50 1 11 48
M  V30 51 1 12 49
M  V30 52 1 12 50
M  V30 53 1 12 51
M  V30 54 1 16 52
M  V30 55 1 19 53
M  V30 56 1 21 54
M  V30 57 1 22 55
M  V30 58 1 25 56
M  V30 59 1 28 57
M  V30 60 1 29 58
M  V30 61 1 29 59
M  V30 62 1 29 60
M  V30 63 1 30 61
M  V30 64 1 30 62
M  V30 65 1 32 63
M  V30 66 1 32 64
M  V30 67 1 32 65
M  V30 68 1 33 66
M  V30 69 1 33 67
M  V30 70 1 33 68
M  V30 71 1 34 69
M  V30 END BOND
M  V30 END CTAB
M  END
>  <Dataset>  (381) 
ChEMBL_Kinases

>  <Ligand_Instance>  (381) 
nan

>  <PDB_ID>  (381) 
nan

>  <Standardized_SMILES>  (381) 
Cc1c(C(=O)NCCCN(C)C)sc2ncnc(Nc3ccc(F)cc3OC(C)CC(C)(C)O)c12

>  <Name>  (381) 
nan

>  <Pocket>  (381) 
nan

>  <ATP_Site>  (381) 
nan

>  <Peripheral>  (381) 
nan

>  <Num_H_Atoms_ProtBoundConf>  (381) 
nan

>  <Num_Resolved_Atoms>  (381) 
nan

>  <Num_Not_Resolved_Atoms>  (381) 
nan

$$$$
CHEMBL3698937
     RDKit          3D

  0  0  0  0  0  0  0  0  0  0999 V3000
M  V30 BEGIN CTAB
M  V30 COUNTS 45 47 0 0 0
M  V30 BEGIN ATOM
M  V30 1 C 2.730535 -1.804633 0.738045 0
M  V30 2 C 2.940919 -1.831644 -0.729248 0
M  V30 3 C 4.092753 -2.465309 -1.120334 0
M  V30 4 C 5.149758 -3.120663 -0.399374 0
M  V30 5 O 5.114318 -3.182007 0.848876 0
M  V30 6 O 6.223815 -3.695609 -1.047615 0
M  V30 7 S 4.089351 -2.349490 -2.875155 0
M  V30 8 C 2.533206 -1.450351 -3.025028 0
M  V30 9 N 1.802925 -0.972776 -4.082183 0
M  V30 10 C 0.643713 -0.332787 -3.861590 0
M  V30 11 N 0.259832 -0.195273 -2.604435 0
M  V30 12 C 0.942549 -0.645501 -1.548883 0
M  V30 13 N 0.243275 -0.344446 -0.350964 0
M  V30 14 C 0.330898 0.981100 0.155220 0
M  V30 15 C 1.062075 1.955758 -0.472750 0
M  V30 16 C 1.127455 3.241637 0.005262 0
M  V30 17 C 0.435227 3.576620 1.159437 0
M  V30 18 N -0.291105 2.609986 1.785192 0
M  V30 19 C -0.347484 1.329703 1.297489 0
M  V30 20 O -1.077596 0.584783 2.026588 0
M  V30 21 C -1.785752 -0.330387 2.652084 0
M  V30 22 C -1.440908 -0.531157 4.134844 0
M  V30 23 C -3.310794 -0.068557 2.656745 0
M  V30 24 C -3.962787 -1.183262 3.398344 0
M  V30 25 N -5.407746 -1.049002 3.459725 0
M  V30 26 C 2.133277 -1.307270 -1.690139 0
M  V30 27 H 2.666458 -2.870314 1.088726 0
M  V30 28 H 3.607260 -1.370796 1.272392 0
M  V30 29 H 1.827775 -1.316846 1.081302 0
M  V30 30 H 6.804535 -4.436872 -0.654065 0
M  V30 31 H 0.184435 -0.015773 -4.770821 0
M  V30 32 H -0.341692 -1.054859 0.177024 0
M  V30 33 H 1.625603 1.737006 -1.388640 0
M  V30 34 H 1.713138 3.973579 -0.522269 0
M  V30 35 H 0.535051 4.606436 1.468252 0
M  V30 36 H -1.633150 -1.352264 2.172108 0
M  V30 37 H -1.685581 -1.578975 4.378397 0
M  V30 38 H -2.103604 0.129566 4.743729 0
M  V30 39 H -0.367576 -0.319590 4.322438 0
M  V30 40 H -3.510325 0.885314 3.179214 0
M  V30 41 H -3.678661 -0.057118 1.623973 0
M  V30 42 H -3.748670 -2.185872 2.991084 0
M  V30 43 H -3.638985 -1.190484 4.477912 0
M  V30 44 H -5.917342 -1.930151 3.333926 0
M  V30 45 H -5.741543 -0.444456 4.235311 0
M  V30 END ATOM
M  V30 BEGIN BOND
M  V30 1 1 1 2
M  V30 2 2 2 3
M  V30 3 1 3 4
M  V30 4 2 4 5
M  V30 5 1 4 6
M  V30 6 1 3 7
M  V30 7 1 7 8
M  V30 8 2 8 9
M  V30 9 1 9 10
M  V30 10 2 10 11
M  V30 11 1 11 12
M  V30 12 1 12 13
M  V30 13 1 13 14
M  V30 14 2 14 15
M  V30 15 1 15 16
M  V30 16 2 16 17
M  V30 17 1 17 18
M  V30 18 2 18 19
M  V30 19 1 19 20
M  V30 20 1 20 21
M  V30 21 1 21 22
M  V30 22 1 21 23
M  V30 23 1 23 24
M  V30 24 1 24 25
M  V30 25 2 12 26
M  V30 26 1 26 2
M  V30 27 1 26 8
M  V30 28 1 19 14
M  V30 29 1 1 27
M  V30 30 1 1 28
M  V30 31 1 1 29
M  V30 32 1 6 30
M  V30 33 1 10 31
M  V30 34 1 13 32
M  V30 35 1 15 33
M  V30 36 1 16 34
M  V30 37 1 17 35
M  V30 38 1 21 36
M  V30 39 1 22 37
M  V30 40 1 22 38
M  V30 41 1 22 39
M  V30 42 1 23 40
M  V30 43 1 23 41
M  V30 44 1 24 42
M  V30 45 1 24 43
M  V30 46 1 25 44
M  V30 47 1 25 45
M  V30 END BOND
M  V30 END CTAB
M  END
>  <Dataset>  (382) 
ChEMBL_Kinases

>  <Ligand_Instance>  (382) 
nan

>  <PDB_ID>  (382) 
nan

>  <Standardized_SMILES>  (382) 
Cc1c(C(=O)O)sc2ncnc(Nc3cccnc3OC(C)CCN)c12

>  <Name>  (382) 
nan

>  <Pocket>  (382) 
nan

>  <ATP_Site>  (382) 
nan

>  <Peripheral>  (382) 
nan

>  <Num_H_Atoms_ProtBoundConf>  (382) 
nan

>  <Num_Resolved_Atoms>  (382) 
nan

>  <Num_Not_Resolved_Atoms>  (382) 
nan

$$$$
CHEMBL3698938
     RDKit          3D

  0  0  0  0  0  0  0  0  0  0999 V3000
M  V30 BEGIN CTAB
M  V30 COUNTS 63 65 0 0 0
M  V30 BEGIN ATOM
M  V30 1 C 0.071719 1.269908 1.732599 0
M  V30 2 C 0.775585 0.082200 2.271622 0
M  V30 3 C 1.962616 -0.136590 1.687071 0
M  V30 4 C 2.865146 0.392967 0.680747 0
M  V30 5 O 3.968828 -0.221957 0.460536 0
M  V30 6 N 2.775031 1.509662 -0.152428 0
M  V30 7 C 3.739736 1.944167 -1.136767 0
M  V30 8 C 3.900705 0.851772 -2.193573 0
M  V30 9 C 2.576714 0.577052 -2.878897 0
M  V30 10 N 2.614155 -0.433504 -3.877592 0
M  V30 11 C 1.274965 -0.625084 -4.453245 0
M  V30 12 C 3.534424 -0.259288 -4.946391 0
M  V30 13 S 2.576354 -1.592258 2.472132 0
M  V30 14 C 1.179808 -1.863565 3.591245 0
M  V30 15 N 0.866063 -2.754348 4.529256 0
M  V30 16 C -0.278462 -2.681537 5.221129 0
M  V30 17 N -1.051076 -1.661394 4.890302 0
M  V30 18 C -0.800699 -0.735210 3.964292 0
M  V30 19 N -1.860379 0.204915 3.906223 0
M  V30 20 C -3.090234 -0.262095 3.376459 0
M  V30 21 C -4.239818 -0.211917 4.175259 0
M  V30 22 C -5.492081 -0.634046 3.814784 0
M  V30 23 C -5.615142 -1.153529 2.545223 0
M  V30 24 N -4.552640 -1.233131 1.720692 0
M  V30 25 C -3.360390 -0.798858 2.147922 0
M  V30 26 O -2.284624 -0.907755 1.244250 0
M  V30 27 C -2.499114 -1.466403 -0.036764 0
M  V30 28 C -2.208091 -0.548151 -1.179842 0
M  V30 29 C -1.763787 -2.768433 -0.249756 0
M  V30 30 C -2.182254 -3.823430 0.738989 0
M  V30 31 N -1.923769 -3.418528 2.103802 0
M  V30 32 C 0.362588 -0.781958 3.238827 0
M  V30 33 H -0.938328 1.441004 2.139389 0
M  V30 34 H 0.637238 2.202495 1.987571 0
M  V30 35 H -0.094712 1.189382 0.636681 0
M  V30 36 H 1.917235 2.090011 -0.038704 0
M  V30 37 H 3.423821 2.876317 -1.634064 0
M  V30 38 H 4.727244 2.081043 -0.615880 0
M  V30 39 H 4.626425 1.192694 -2.980712 0
M  V30 40 H 4.352077 -0.071302 -1.798744 0
M  V30 41 H 1.858705 0.272837 -2.083584 0
M  V30 42 H 2.195133 1.514817 -3.381160 0
M  V30 43 H 1.386093 -0.963800 -5.508405 0
M  V30 44 H 0.700144 -1.378903 -3.879505 0
M  V30 45 H 0.757749 0.351009 -4.402747 0
M  V30 46 H 2.992242 -0.178387 -5.935254 0
M  V30 47 H 4.100917 0.664923 -4.859479 0
M  V30 48 H 4.193270 -1.148545 -5.074008 0
M  V30 49 H -0.440409 -3.447044 5.957649 0
M  V30 50 H -2.032630 1.224847 4.166821 0
M  V30 51 H -4.159921 0.200203 5.194596 0
M  V30 52 H -6.319429 -0.556270 4.499754 0
M  V30 53 H -6.577610 -1.502126 2.207908 0
M  V30 54 H -3.595312 -1.729292 -0.105732 0
M  V30 55 H -3.084646 0.069486 -1.466253 0
M  V30 56 H -1.998197 -1.204337 -2.077721 0
M  V30 57 H -1.336774 0.112042 -1.051046 0
M  V30 58 H -0.655416 -2.615612 -0.175351 0
M  V30 59 H -2.019466 -3.116832 -1.268096 0
M  V30 60 H -3.223483 -4.119172 0.579398 0
M  V30 61 H -1.544804 -4.717900 0.537695 0
M  V30 62 H -2.450784 -4.087578 2.727370 0
M  V30 63 H -0.893712 -3.438246 2.313800 0
M  V30 END ATOM
M  V30 BEGIN BOND
M  V30 1 1 1 2
M  V30 2 2 2 3
M  V30 3 1 3 4
M  V30 4 2 4 5
M  V30 5 1 4 6
M  V30 6 1 6 7
M  V30 7 1 7 8
M  V30 8 1 8 9
M  V30 9 1 9 10
M  V30 10 1 10 11
M  V30 11 1 10 12
M  V30 12 1 3 13
M  V30 13 1 13 14
M  V30 14 2 14 15
M  V30 15 1 15 16
M  V30 16 2 16 17
M  V30 17 1 17 18
M  V30 18 1 18 19
M  V30 19 1 19 20
M  V30 20 2 20 21
M  V30 21 1 21 22
M  V30 22 2 22 23
M  V30 23 1 23 24
M  V30 24 2 24 25
M  V30 25 1 25 26
M  V30 26 1 26 27
M  V30 27 1 27 28
M  V30 28 1 27 29
M  V30 29 1 29 30
M  V30 30 1 30 31
M  V30 31 2 18 32
M  V30 32 1 32 2
M  V30 33 1 32 14
M  V30 34 1 25 20
M  V30 35 1 1 33
M  V30 36 1 1 34
M  V30 37 1 1 35
M  V30 38 1 6 36
M  V30 39 1 7 37
M  V30 40 1 7 38
M  V30 41 1 8 39
M  V30 42 1 8 40
M  V30 43 1 9 41
M  V30 44 1 9 42
M  V30 45 1 11 43
M  V30 46 1 11 44
M  V30 47 1 11 45
M  V30 48 1 12 46
M  V30 49 1 12 47
M  V30 50 1 12 48
M  V30 51 1 16 49
M  V30 52 1 19 50
M  V30 53 1 21 51
M  V30 54 1 22 52
M  V30 55 1 23 53
M  V30 56 1 27 54
M  V30 57 1 28 55
M  V30 58 1 28 56
M  V30 59 1 28 57
M  V30 60 1 29 58
M  V30 61 1 29 59
M  V30 62 1 30 60
M  V30 63 1 30 61
M  V30 64 1 31 62
M  V30 65 1 31 63
M  V30 END BOND
M  V30 END CTAB
M  END
>  <Dataset>  (383) 
ChEMBL_Kinases

>  <Ligand_Instance>  (383) 
nan

>  <PDB_ID>  (383) 
nan

>  <Standardized_SMILES>  (383) 
Cc1c(C(=O)NCCCN(C)C)sc2ncnc(Nc3cccnc3OC(C)CCN)c12

>  <Name>  (383) 
nan

>  <Pocket>  (383) 
nan

>  <ATP_Site>  (383) 
nan

>  <Peripheral>  (383) 
nan

>  <Num_H_Atoms_ProtBoundConf>  (383) 
nan

>  <Num_Resolved_Atoms>  (383) 
nan

>  <Num_Not_Resolved_Atoms>  (383) 
nan

$$$$
CHEMBL3698939
     RDKit          3D

  0  0  0  0  0  0  0  0  0  0999 V3000
M  V30 BEGIN CTAB
M  V30 COUNTS 46 48 0 0 0
M  V30 BEGIN ATOM
M  V30 1 C 2.784138 -1.675678 0.741003 0
M  V30 2 C 2.852220 -1.862477 -0.720710 0
M  V30 3 C 4.077340 -2.322961 -1.205567 0
M  V30 4 C 5.310557 -2.675184 -0.603625 0
M  V30 5 N 5.537910 -2.619117 0.789439 0
M  V30 6 O 6.308885 -3.068228 -1.242817 0
M  V30 7 S 3.870176 -2.446346 -2.968604 0
M  V30 8 C 2.134584 -1.874282 -2.992940 0
M  V30 9 N 1.214337 -1.691902 -3.988878 0
M  V30 10 C -0.020097 -1.266733 -3.705529 0
M  V30 11 N -0.254455 -1.049393 -2.425834 0
M  V30 12 C 0.595334 -1.208232 -1.423415 0
M  V30 13 N -0.023203 -0.892821 -0.185852 0
M  V30 14 C -0.254233 0.496688 0.132515 0
M  V30 15 C 0.111403 1.466749 -0.774723 0
M  V30 16 C -0.101697 2.820168 -0.538798 0
M  V30 17 C -0.713868 3.107324 0.690151 0
M  V30 18 N -1.073127 2.158319 1.582423 0
M  V30 19 C -0.852358 0.855450 1.322236 0
M  V30 20 O -1.190642 -0.158342 2.179791 0
M  V30 21 C -1.826771 0.022927 3.426940 0
M  V30 22 C -0.919731 -0.363712 4.579662 0
M  V30 23 C -3.059853 -0.834472 3.471736 0
M  V30 24 C -3.971667 -0.401631 2.339063 0
M  V30 25 N -4.368900 0.972003 2.435112 0
M  V30 26 C 1.876447 -1.642126 -1.653075 0
M  V30 27 H 2.743504 -2.704132 1.205644 0
M  V30 28 H 3.700628 -1.181723 1.129624 0
M  V30 29 H 1.912261 -1.147842 1.107598 0
M  V30 30 H 6.034103 -3.067457 1.561674 0
M  V30 31 H 6.063222 -3.110682 1.538451 0
M  V30 32 H -0.647125 -1.163596 -4.574722 0
M  V30 33 H -0.322018 -1.621720 0.497714 0
M  V30 34 H 0.589296 1.245346 -1.738652 0
M  V30 35 H 0.185189 3.556308 -1.251731 0
M  V30 36 H -0.871818 4.177208 0.854132 0
M  V30 37 H -2.105455 1.069129 3.558153 0
M  V30 38 H -1.586348 -0.698590 5.396332 0
M  V30 39 H -0.256299 -1.200463 4.338903 0
M  V30 40 H -0.334806 0.541128 4.863193 0
M  V30 41 H -3.542280 -0.670994 4.460692 0
M  V30 42 H -2.782581 -1.908785 3.333812 0
M  V30 43 H -4.886690 -1.038117 2.308951 0
M  V30 44 H -3.407669 -0.562664 1.387710 0
M  V30 45 H -5.125358 1.137504 3.128713 0
M  V30 46 H -4.514190 1.457679 1.522009 0
M  V30 END ATOM
M  V30 BEGIN BOND
M  V30 1 1 1 2
M  V30 2 2 2 3
M  V30 3 1 3 4
M  V30 4 1 4 5
M  V30 5 2 4 6
M  V30 6 1 3 7
M  V30 7 1 7 8
M  V30 8 2 8 9
M  V30 9 1 9 10
M  V30 10 2 10 11
M  V30 11 1 11 12
M  V30 12 1 12 13
M  V30 13 1 13 14
M  V30 14 2 14 15
M  V30 15 1 15 16
M  V30 16 2 16 17
M  V30 17 1 17 18
M  V30 18 2 18 19
M  V30 19 1 19 20
M  V30 20 1 20 21
M  V30 21 1 21 22
M  V30 22 1 21 23
M  V30 23 1 23 24
M  V30 24 1 24 25
M  V30 25 2 12 26
M  V30 26 1 26 2
M  V30 27 1 26 8
M  V30 28 1 19 14
M  V30 29 1 1 27
M  V30 30 1 1 28
M  V30 31 1 1 29
M  V30 32 1 5 30
M  V30 33 1 5 31
M  V30 34 1 10 32
M  V30 35 1 13 33
M  V30 36 1 15 34
M  V30 37 1 16 35
M  V30 38 1 17 36
M  V30 39 1 21 37
M  V30 40 1 22 38
M  V30 41 1 22 39
M  V30 42 1 22 40
M  V30 43 1 23 41
M  V30 44 1 23 42
M  V30 45 1 24 43
M  V30 46 1 24 44
M  V30 47 1 25 45
M  V30 48 1 25 46
M  V30 END BOND
M  V30 END CTAB
M  END
>  <Dataset>  (384) 
ChEMBL_Kinases

>  <Ligand_Instance>  (384) 
nan

>  <PDB_ID>  (384) 
nan

>  <Standardized_SMILES>  (384) 
Cc1c(C(N)=O)sc2ncnc(Nc3cccnc3OC(C)CCN)c12

>  <Name>  (384) 
nan

>  <Pocket>  (384) 
nan

>  <ATP_Site>  (384) 
nan

>  <Peripheral>  (384) 
nan

>  <Num_H_Atoms_ProtBoundConf>  (384) 
nan

>  <Num_Resolved_Atoms>  (384) 
nan

>  <Num_Not_Resolved_Atoms>  (384) 
nan

$$$$
CHEMBL3698940
     RDKit          3D

  0  0  0  0  0  0  0  0  0  0999 V3000
M  V30 BEGIN CTAB
M  V30 COUNTS 48 50 0 0 0
M  V30 BEGIN ATOM
M  V30 1 C -0.126676 -6.752635 -1.300125 0
M  V30 2 O 0.025375 -5.350105 -1.249240 0
M  V30 3 C 0.478668 -4.594481 -2.308819 0
M  V30 4 O 0.717027 -5.355082 -3.278974 0
M  V30 5 C 0.716449 -3.202589 -2.507568 0
M  V30 6 S 1.295037 -2.517961 -3.955766 0
M  V30 7 C 1.326123 -0.786892 -3.401224 0
M  V30 8 N 1.692109 0.338732 -4.042252 0
M  V30 9 C 1.622853 1.507575 -3.383516 0
M  V30 10 N 1.194056 1.465871 -2.136592 0
M  V30 11 C 0.829272 0.355698 -1.493896 0
M  V30 12 N 0.410129 0.588160 -0.158995 0
M  V30 13 C 1.121691 0.492666 1.067652 0
M  V30 14 C 2.441219 0.086200 1.054402 0
M  V30 15 C 3.115232 0.002719 2.254097 0
M  V30 16 C 2.494239 0.318135 3.467643 0
M  V30 17 F 3.171050 0.228940 4.636750 0
M  V30 18 C 1.170217 0.717920 3.399522 0
M  V30 19 C 0.453177 0.817639 2.226960 0
M  V30 20 O -0.845483 1.212028 2.154221 0
M  V30 21 C -1.716677 1.595156 3.163672 0
M  V30 22 C -2.111135 3.059647 3.069681 0
M  V30 23 N -0.950833 3.924931 3.161359 0
M  V30 24 C -2.994166 0.795198 3.227571 0
M  V30 25 N -2.801991 -0.608860 3.445791 0
M  V30 26 C 0.869699 -0.879531 -2.093088 0
M  V30 27 C 0.541199 -2.102586 -1.582883 0
M  V30 28 C 0.044076 -2.327055 -0.200699 0
M  V30 29 H 0.266551 -7.135778 -0.316146 0
M  V30 30 H 0.396520 -7.234961 -2.142979 0
M  V30 31 H -1.213891 -7.033063 -1.304093 0
M  V30 32 H 1.930408 2.357569 -3.958584 0
M  V30 33 H -0.594053 0.867465 -0.200748 0
M  V30 34 H 2.980882 -0.171556 0.154118 0
M  V30 35 H 4.141926 -0.308629 2.303559 0
M  V30 36 H 0.725391 0.950730 4.343373 0
M  V30 37 H -1.211829 1.493885 4.145905 0
M  V30 38 H -2.655632 3.255639 2.127699 0
M  V30 39 H -2.789009 3.302830 3.904609 0
M  V30 40 H -1.298380 4.908726 3.181836 0
M  V30 41 H -0.396565 3.765747 4.019762 0
M  V30 42 H -3.614868 0.961826 2.301611 0
M  V30 43 H -3.618372 1.156549 4.073106 0
M  V30 44 H -3.292769 -1.199413 2.733342 0
M  V30 45 H -2.993708 -0.903903 4.428471 0
M  V30 46 H -0.405511 -3.335985 -0.151190 0
M  V30 47 H 0.892845 -2.340192 0.506573 0
M  V30 48 H -0.687848 -1.554133 0.108816 0
M  V30 END ATOM
M  V30 BEGIN BOND
M  V30 1 1 1 2
M  V30 2 1 2 3
M  V30 3 2 3 4
M  V30 4 1 3 5
M  V30 5 1 5 6
M  V30 6 1 6 7
M  V30 7 2 7 8
M  V30 8 1 8 9
M  V30 9 2 9 10
M  V30 10 1 10 11
M  V30 11 1 11 12
M  V30 12 1 12 13
M  V30 13 2 13 14
M  V30 14 1 14 15
M  V30 15 2 15 16
M  V30 16 1 16 17
M  V30 17 1 16 18
M  V30 18 2 18 19
M  V30 19 1 19 20
M  V30 20 1 20 21
M  V30 21 1 21 22
M  V30 22 1 22 23
M  V30 23 1 21 24
M  V30 24 1 24 25
M  V30 25 2 11 26
M  V30 26 1 26 27
M  V30 27 1 27 28
M  V30 28 2 27 5
M  V30 29 1 26 7
M  V30 30 1 19 13
M  V30 31 1 1 29
M  V30 32 1 1 30
M  V30 33 1 1 31
M  V30 34 1 9 32
M  V30 35 1 12 33
M  V30 36 1 14 34
M  V30 37 1 15 35
M  V30 38 1 18 36
M  V30 39 1 21 37
M  V30 40 1 22 38
M  V30 41 1 22 39
M  V30 42 1 23 40
M  V30 43 1 23 41
M  V30 44 1 24 42
M  V30 45 1 24 43
M  V30 46 1 25 44
M  V30 47 1 25 45
M  V30 48 1 28 46
M  V30 49 1 28 47
M  V30 50 1 28 48
M  V30 END BOND
M  V30 END CTAB
M  END
>  <Dataset>  (385) 
ChEMBL_Kinases

>  <Ligand_Instance>  (385) 
nan

>  <PDB_ID>  (385) 
nan

>  <Standardized_SMILES>  (385) 
COC(=O)c1sc2ncnc(Nc3ccc(F)cc3OC(CN)CN)c2c1C

>  <Name>  (385) 
nan

>  <Pocket>  (385) 
nan

>  <ATP_Site>  (385) 
nan

>  <Peripheral>  (385) 
nan

>  <Num_H_Atoms_ProtBoundConf>  (385) 
nan

>  <Num_Resolved_Atoms>  (385) 
nan

>  <Num_Not_Resolved_Atoms>  (385) 
nan

$$$$
CHEMBL3698941
     RDKit          3D

  0  0  0  0  0  0  0  0  0  0999 V3000
M  V30 BEGIN CTAB
M  V30 COUNTS 53 55 0 0 0
M  V30 BEGIN ATOM
M  V30 1 C 2.375847 -2.333011 7.843778 0
M  V30 2 O 2.852831 -1.999892 6.546941 0
M  V30 3 C 1.988095 -1.706403 5.502955 0
M  V30 4 O 0.823698 -1.819143 6.020764 0
M  V30 5 C 2.543239 -1.378015 4.213728 0
M  V30 6 S 4.277771 -1.312158 3.832268 0
M  V30 7 C 4.067810 -0.860809 2.107432 0
M  V30 8 N 4.959014 -0.629327 1.122313 0
M  V30 9 C 4.546039 -0.308575 -0.113887 0
M  V30 10 N 3.220940 -0.236715 -0.293286 0
M  V30 11 C 2.295621 -0.456313 0.649319 0
M  V30 12 N 0.965746 -0.322486 0.184711 0
M  V30 13 C 0.308911 0.860928 -0.246941 0
M  V30 14 C 1.000781 2.049813 -0.255160 0
M  V30 15 C 0.363613 3.220154 -0.680042 0
M  V30 16 C -0.951551 3.179423 -1.088132 0
M  V30 17 F -1.557401 4.335477 -1.499968 0
M  V30 18 C -1.602702 1.963342 -1.061720 0
M  V30 19 C -1.006572 0.789358 -0.648873 0
M  V30 20 O -1.626602 -0.417330 -0.612954 0
M  V30 21 C -2.920035 -0.772077 -0.955139 0
M  V30 22 C -3.728320 -1.297938 0.216734 0
M  V30 23 N -3.844036 -0.309264 1.269650 0
M  V30 24 C -2.868611 -1.898624 -1.961400 0
M  V30 25 N -2.174962 -1.534268 -3.163799 0
M  V30 26 C -2.146008 -2.627897 -4.100226 0
M  V30 27 C -1.473881 -2.485054 -5.433141 0
M  V30 28 O -2.685625 -3.735843 -3.823719 0
M  V30 29 C 2.648160 -0.788708 1.934154 0
M  V30 30 C 1.892867 -1.061302 3.040717 0
M  V30 31 C 0.406375 -1.028232 3.012790 0
M  V30 32 H 1.818203 -3.298784 7.853065 0
M  V30 33 H 3.251744 -2.420053 8.523251 0
M  V30 34 H 1.706670 -1.549981 8.272503 0
M  V30 35 H 5.322802 -0.140991 -0.836157 0
M  V30 36 H 0.572923 -1.284820 0.230333 0
M  V30 37 H 2.035839 2.041208 0.073257 0
M  V30 38 H 0.968478 4.133398 -0.663714 0
M  V30 39 H -2.640540 1.949629 -1.387303 0
M  V30 40 H -3.532160 0.044596 -1.395470 0
M  V30 41 H -4.752894 -1.489914 -0.162921 0
M  V30 42 H -3.336766 -2.266920 0.583250 0
M  V30 43 H -4.120512 0.592518 0.822894 0
M  V30 44 H -2.981772 -0.238649 1.851063 0
M  V30 45 H -2.251956 -2.699445 -1.453538 0
M  V30 46 H -3.864651 -2.356358 -2.139912 0
M  V30 47 H -1.724291 -0.613298 -3.397383 0
M  V30 48 H -0.571840 -1.859209 -5.391886 0
M  V30 49 H -1.135023 -3.505623 -5.749917 0
M  V30 50 H -2.159736 -2.023742 -6.178784 0
M  V30 51 H -0.002803 -2.008208 2.628836 0
M  V30 52 H 0.020213 -0.184460 2.392175 0
M  V30 53 H 0.013088 -0.913986 4.034095 0
M  V30 END ATOM
M  V30 BEGIN BOND
M  V30 1 1 1 2
M  V30 2 1 2 3
M  V30 3 2 3 4
M  V30 4 1 3 5
M  V30 5 1 5 6
M  V30 6 1 6 7
M  V30 7 2 7 8
M  V30 8 1 8 9
M  V30 9 2 9 10
M  V30 10 1 10 11
M  V30 11 1 11 12
M  V30 12 1 12 13
M  V30 13 2 13 14
M  V30 14 1 14 15
M  V30 15 2 15 16
M  V30 16 1 16 17
M  V30 17 1 16 18
M  V30 18 2 18 19
M  V30 19 1 19 20
M  V30 20 1 20 21
M  V30 21 1 21 22
M  V30 22 1 22 23
M  V30 23 1 21 24
M  V30 24 1 24 25
M  V30 25 1 25 26
M  V30 26 1 26 27
M  V30 27 2 26 28
M  V30 28 2 11 29
M  V30 29 1 29 30
M  V30 30 1 30 31
M  V30 31 2 30 5
M  V30 32 1 29 7
M  V30 33 1 19 13
M  V30 34 1 1 32
M  V30 35 1 1 33
M  V30 36 1 1 34
M  V30 37 1 9 35
M  V30 38 1 12 36
M  V30 39 1 14 37
M  V30 40 1 15 38
M  V30 41 1 18 39
M  V30 42 1 21 40
M  V30 43 1 22 41
M  V30 44 1 22 42
M  V30 45 1 23 43
M  V30 46 1 23 44
M  V30 47 1 24 45
M  V30 48 1 24 46
M  V30 49 1 25 47
M  V30 50 1 27 48
M  V30 51 1 27 49
M  V30 52 1 27 50
M  V30 53 1 31 51
M  V30 54 1 31 52
M  V30 55 1 31 53
M  V30 END BOND
M  V30 END CTAB
M  END
>  <Dataset>  (386) 
ChEMBL_Kinases

>  <Ligand_Instance>  (386) 
nan

>  <PDB_ID>  (386) 
nan

>  <Standardized_SMILES>  (386) 
COC(=O)c1sc2ncnc(Nc3ccc(F)cc3OC(CN)CNC(C)=O)c2c1C

>  <Name>  (386) 
nan

>  <Pocket>  (386) 
nan

>  <ATP_Site>  (386) 
nan

>  <Peripheral>  (386) 
nan

>  <Num_H_Atoms_ProtBoundConf>  (386) 
nan

>  <Num_Resolved_Atoms>  (386) 
nan

>  <Num_Not_Resolved_Atoms>  (386) 
nan

$$$$
CHEMBL3698942
     RDKit          3D

  0  0  0  0  0  0  0  0  0  0999 V3000
M  V30 BEGIN CTAB
M  V30 COUNTS 54 56 0 0 0
M  V30 BEGIN ATOM
M  V30 1 C 5.980157 -4.622889 1.616372 0
M  V30 2 O 5.570870 -3.444781 0.995005 0
M  V30 3 C 4.271240 -2.983897 0.948398 0
M  V30 4 O 3.663114 -3.857733 1.566444 0
M  V30 5 C 4.012847 -1.704889 0.241693 0
M  V30 6 S 5.224224 -0.729026 -0.540861 0
M  V30 7 C 4.027178 0.574298 -1.099733 0
M  V30 8 N 4.225022 1.712408 -1.800774 0
M  V30 9 C 3.177360 2.503725 -2.082494 0
M  V30 10 N 2.009334 2.083896 -1.633860 0
M  V30 11 C 1.790085 0.965963 -0.941083 0
M  V30 12 N 0.427898 0.779667 -0.593710 0
M  V30 13 C 0.006058 1.303824 0.669900 0
M  V30 14 C 0.964508 1.951579 1.456630 0
M  V30 15 C 0.628314 2.491268 2.703434 0
M  V30 16 C -0.658592 2.378729 3.150535 0
M  V30 17 F -1.051144 2.887065 4.364121 0
M  V30 18 C -1.571305 1.738971 2.355919 0
M  V30 19 C -1.304980 1.193404 1.133922 0
M  V30 20 O -2.139998 0.542193 0.276038 0
M  V30 21 C -3.492114 0.308000 0.514095 0
M  V30 22 C -4.254149 1.014410 -0.602082 0
M  V30 23 N -3.909310 0.529828 -1.907239 0
M  V30 24 C -3.879987 -1.152913 0.445452 0
M  V30 25 N -3.171234 -1.962802 1.415769 0
M  V30 26 S -3.636406 -3.620797 1.309749 0
M  V30 27 C -3.258614 -4.304992 -0.263462 0
M  V30 28 O -2.860019 -4.374179 2.367186 0
M  V30 29 O -5.113671 -3.695781 1.571449 0
M  V30 30 C 2.803956 0.099370 -0.609378 0
M  V30 31 C 2.817394 -1.070090 0.075260 0
M  V30 32 C 1.568558 -1.682260 0.649806 0
M  V30 33 H 6.871286 -5.086218 1.106325 0
M  V30 34 H 5.182980 -5.386462 1.740915 0
M  V30 35 H 6.328402 -4.346981 2.638789 0
M  V30 36 H 3.463917 3.374165 -2.642093 0
M  V30 37 H -0.301342 0.289976 -1.190265 0
M  V30 38 H 2.003037 2.070206 1.151075 0
M  V30 39 H 1.362900 2.997845 3.326571 0
M  V30 40 H -2.578611 1.646766 2.697598 0
M  V30 41 H -3.885175 0.686820 1.471478 0
M  V30 42 H -5.342087 0.839303 -0.403146 0
M  V30 43 H -4.058520 2.093866 -0.539639 0
M  V30 44 H -4.000272 1.254986 -2.642882 0
M  V30 45 H -4.264067 -0.394827 -2.162040 0
M  V30 46 H -4.954625 -1.201358 0.725285 0
M  V30 47 H -3.766100 -1.580234 -0.553963 0
M  V30 48 H -3.251810 -1.608288 2.376124 0
M  V30 49 H -2.591317 -3.640429 -0.863721 0
M  V30 50 H -2.741454 -5.298561 -0.149759 0
M  V30 51 H -4.197594 -4.393736 -0.841327 0
M  V30 52 H 1.404912 -1.408664 1.698727 0
M  V30 53 H 1.669140 -2.808877 0.635123 0
M  V30 54 H 0.670762 -1.474318 0.077022 0
M  V30 END ATOM
M  V30 BEGIN BOND
M  V30 1 1 1 2
M  V30 2 1 2 3
M  V30 3 2 3 4
M  V30 4 1 3 5
M  V30 5 1 5 6
M  V30 6 1 6 7
M  V30 7 2 7 8
M  V30 8 1 8 9
M  V30 9 2 9 10
M  V30 10 1 10 11
M  V30 11 1 11 12
M  V30 12 1 12 13
M  V30 13 2 13 14
M  V30 14 1 14 15
M  V30 15 2 15 16
M  V30 16 1 16 17
M  V30 17 1 16 18
M  V30 18 2 18 19
M  V30 19 1 19 20
M  V30 20 1 20 21
M  V30 21 1 21 22
M  V30 22 1 22 23
M  V30 23 1 21 24
M  V30 24 1 24 25
M  V30 25 1 25 26
M  V30 26 1 26 27
M  V30 27 2 26 28
M  V30 28 2 26 29
M  V30 29 2 11 30
M  V30 30 1 30 31
M  V30 31 1 31 32
M  V30 32 2 31 5
M  V30 33 1 30 7
M  V30 34 1 19 13
M  V30 35 1 1 33
M  V30 36 1 1 34
M  V30 37 1 1 35
M  V30 38 1 9 36
M  V30 39 1 12 37
M  V30 40 1 14 38
M  V30 41 1 15 39
M  V30 42 1 18 40
M  V30 43 1 21 41
M  V30 44 1 22 42
M  V30 45 1 22 43
M  V30 46 1 23 44
M  V30 47 1 23 45
M  V30 48 1 24 46
M  V30 49 1 24 47
M  V30 50 1 25 48
M  V30 51 1 27 49
M  V30 52 1 27 50
M  V30 53 1 27 51
M  V30 54 1 32 52
M  V30 55 1 32 53
M  V30 56 1 32 54
M  V30 END BOND
M  V30 END CTAB
M  END
>  <Dataset>  (387) 
ChEMBL_Kinases

>  <Ligand_Instance>  (387) 
nan

>  <PDB_ID>  (387) 
nan

>  <Standardized_SMILES>  (387) 
COC(=O)c1sc2ncnc(Nc3ccc(F)cc3OC(CN)CNS(C)(=O)=O)c2c1C

>  <Name>  (387) 
nan

>  <Pocket>  (387) 
nan

>  <ATP_Site>  (387) 
nan

>  <Peripheral>  (387) 
nan

>  <Num_H_Atoms_ProtBoundConf>  (387) 
nan

>  <Num_Resolved_Atoms>  (387) 
nan

>  <Num_Not_Resolved_Atoms>  (387) 
nan

$$$$
CHEMBL3698943
     RDKit          3D

  0  0  0  0  0  0  0  0  0  0999 V3000
M  V30 BEGIN CTAB
M  V30 COUNTS 54 56 0 0 0
M  V30 BEGIN ATOM
M  V30 1 C 3.718196 -5.630085 4.288886 0
M  V30 2 O 3.404814 -4.552777 3.462988 0
M  V30 3 C 4.319848 -3.824732 2.733036 0
M  V30 4 O 5.433818 -4.338944 2.983921 0
M  V30 5 C 4.228349 -2.711193 1.839891 0
M  V30 6 S 5.708318 -2.058884 1.089185 0
M  V30 7 C 4.855492 -0.764152 0.152778 0
M  V30 8 N 5.354894 0.162520 -0.688923 0
M  V30 9 C 4.527997 1.031316 -1.290988 0
M  V30 10 N 3.233275 0.911395 -1.004217 0
M  V30 11 C 2.749038 -0.007972 -0.170618 0
M  V30 12 N 1.336619 0.068543 -0.048929 0
M  V30 13 C 0.678169 1.189674 0.545483 0
M  V30 14 C 1.508537 2.207437 1.001966 0
M  V30 15 C 0.926694 3.320875 1.564441 0
M  V30 16 C -0.459863 3.403673 1.663236 0
M  V30 17 F -1.049012 4.473991 2.204004 0
M  V30 18 C -1.252993 2.376976 1.201331 0
M  V30 19 C -0.708123 1.240383 0.629724 0
M  V30 20 O -1.319340 0.116272 0.114204 0
M  V30 21 C -2.708067 -0.106371 0.033676 0
M  V30 22 C -3.027612 -1.072435 1.147515 0
M  V30 23 C -3.118244 -0.563015 -1.314035 0
M  V30 24 C -4.569619 -0.834254 -1.542337 0
M  V30 25 C -5.431714 0.386950 -1.318443 0
M  V30 26 C -4.710735 -1.202127 -3.008179 0
M  V30 27 O -5.036781 -1.932104 -0.820044 0
M  V30 28 C 3.526845 -0.931128 0.483962 0
M  V30 29 C 3.218855 -1.935936 1.352289 0
M  V30 30 C 1.793246 -2.197822 1.772209 0
M  V30 31 H 3.763023 -5.301320 5.361340 0
M  V30 32 H 2.896668 -6.376734 4.232284 0
M  V30 33 H 4.690352 -6.063221 4.000190 0
M  V30 34 H 4.947990 1.754537 -1.952202 0
M  V30 35 H 0.831720 -0.758231 -0.427684 0
M  V30 36 H 2.586973 2.189046 0.946391 0
M  V30 37 H 1.546704 4.129976 1.928246 0
M  V30 38 H -2.318095 2.374108 1.245896 0
M  V30 39 H -3.215842 0.836206 0.303250 0
M  V30 40 H -4.143522 -1.011311 1.286822 0
M  V30 41 H -2.600106 -0.691525 2.096661 0
M  V30 42 H -2.834031 -2.122968 0.924848 0
M  V30 43 H -2.832239 0.216665 -2.077214 0
M  V30 44 H -2.524131 -1.458849 -1.590045 0
M  V30 45 H -6.476713 0.028589 -1.243944 0
M  V30 46 H -5.206672 0.938363 -0.387294 0
M  V30 47 H -5.329857 1.041452 -2.208402 0
M  V30 48 H -5.690788 -1.599490 -3.283699 0
M  V30 49 H -3.966987 -1.968930 -3.310781 0
M  V30 50 H -4.538055 -0.324909 -3.687623 0
M  V30 51 H -5.093267 -2.762329 -1.336194 0
M  V30 52 H 1.749725 -2.885219 2.624041 0
M  V30 53 H 1.287636 -1.234312 1.970435 0
M  V30 54 H 1.229568 -2.699120 0.935367 0
M  V30 END ATOM
M  V30 BEGIN BOND
M  V30 1 1 1 2
M  V30 2 1 2 3
M  V30 3 2 3 4
M  V30 4 1 3 5
M  V30 5 1 5 6
M  V30 6 1 6 7
M  V30 7 2 7 8
M  V30 8 1 8 9
M  V30 9 2 9 10
M  V30 10 1 10 11
M  V30 11 1 11 12
M  V30 12 1 12 13
M  V30 13 2 13 14
M  V30 14 1 14 15
M  V30 15 2 15 16
M  V30 16 1 16 17
M  V30 17 1 16 18
M  V30 18 2 18 19
M  V30 19 1 19 20
M  V30 20 1 20 21
M  V30 21 1 21 22
M  V30 22 1 21 23
M  V30 23 1 23 24
M  V30 24 1 24 25
M  V30 25 1 24 26
M  V30 26 1 24 27
M  V30 27 2 11 28
M  V30 28 1 28 29
M  V30 29 1 29 30
M  V30 30 2 29 5
M  V30 31 1 28 7
M  V30 32 1 19 13
M  V30 33 1 1 31
M  V30 34 1 1 32
M  V30 35 1 1 33
M  V30 36 1 9 34
M  V30 37 1 12 35
M  V30 38 1 14 36
M  V30 39 1 15 37
M  V30 40 1 18 38
M  V30 41 1 21 39
M  V30 42 1 22 40
M  V30 43 1 22 41
M  V30 44 1 22 42
M  V30 45 1 23 43
M  V30 46 1 23 44
M  V30 47 1 25 45
M  V30 48 1 25 46
M  V30 49 1 25 47
M  V30 50 1 26 48
M  V30 51 1 26 49
M  V30 52 1 26 50
M  V30 53 1 27 51
M  V30 54 1 30 52
M  V30 55 1 30 53
M  V30 56 1 30 54
M  V30 END BOND
M  V30 END CTAB
M  END
>  <Dataset>  (388) 
ChEMBL_Kinases

>  <Ligand_Instance>  (388) 
nan

>  <PDB_ID>  (388) 
nan

>  <Standardized_SMILES>  (388) 
COC(=O)c1sc2ncnc(Nc3ccc(F)cc3OC(C)CC(C)(C)O)c2c1C

>  <Name>  (388) 
nan

>  <Pocket>  (388) 
nan

>  <ATP_Site>  (388) 
nan

>  <Peripheral>  (388) 
nan

>  <Num_H_Atoms_ProtBoundConf>  (388) 
nan

>  <Num_Resolved_Atoms>  (388) 
nan

>  <Num_Not_Resolved_Atoms>  (388) 
nan

$$$$
CHEMBL3698944
     RDKit          3D

  0  0  0  0  0  0  0  0  0  0999 V3000
M  V30 BEGIN CTAB
M  V30 COUNTS 51 53 0 0 0
M  V30 BEGIN ATOM
M  V30 1 C 2.774604 -2.251240 0.215513 0
M  V30 2 C 3.328252 -1.667289 -1.059652 0
M  V30 3 C 4.542580 -2.119887 -1.564910 0
M  V30 4 C 5.458822 -3.111794 -1.083948 0
M  V30 5 O 6.515212 -3.380315 -1.691055 0
M  V30 6 O 5.432412 -3.922288 0.016712 0
M  V30 7 S 4.843476 -1.211795 -3.045301 0
M  V30 8 C 3.261800 -0.228912 -2.908346 0
M  V30 9 N 2.733643 0.750758 -3.736675 0
M  V30 10 C 1.575107 1.315530 -3.441672 0
M  V30 11 N 1.006545 0.873642 -2.337629 0
M  V30 12 C 1.466941 -0.063378 -1.503883 0
M  V30 13 N 0.642865 -0.358353 -0.387006 0
M  V30 14 C 0.417510 0.662210 0.611726 0
M  V30 15 C 1.042767 1.868480 0.379172 0
M  V30 16 C 0.841361 2.872889 1.301756 0
M  V30 17 C 0.051801 2.712141 2.423739 0
M  V30 18 F -0.158803 3.687144 3.340007 0
M  V30 19 C -0.552003 1.482915 2.609459 0
M  V30 20 C -0.381743 0.444520 1.715140 0
M  V30 21 O -0.918633 -0.828563 1.771573 0
M  V30 22 C -1.769429 -1.344898 2.739449 0
M  V30 23 C -1.091966 -2.446830 3.561780 0
M  V30 24 C -3.041443 -1.942131 2.213603 0
M  V30 25 C -3.907240 -0.982910 1.449473 0
M  V30 26 C -4.350169 0.215356 2.270544 0
M  V30 27 C -3.266837 -0.534237 0.151334 0
M  V30 28 O -5.110861 -1.656344 1.123851 0
M  V30 29 C 2.660159 -0.698690 -1.737014 0
M  V30 30 H 1.945657 -2.948038 -0.024487 0
M  V30 31 H 2.354992 -1.452440 0.861226 0
M  V30 32 H 3.548803 -2.786162 0.757484 0
M  V30 33 H 6.205800 -3.949332 0.692579 0
M  V30 34 H 1.255094 2.055455 -4.138014 0
M  V30 35 H 0.201477 -1.299653 -0.280954 0
M  V30 36 H 1.684528 2.141196 -0.445688 0
M  V30 37 H 1.273477 3.877938 1.244011 0
M  V30 38 H -1.183056 1.281359 3.458856 0
M  V30 39 H -2.043241 -0.538889 3.453469 0
M  V30 40 H -1.059477 -3.396022 3.013607 0
M  V30 41 H -1.598620 -2.568667 4.527685 0
M  V30 42 H -0.011408 -2.186035 3.758778 0
M  V30 43 H -3.648791 -2.315056 3.067841 0
M  V30 44 H -2.864311 -2.814408 1.568163 0
M  V30 45 H -5.289358 0.606930 1.778718 0
M  V30 46 H -3.625234 1.056362 2.154121 0
M  V30 47 H -4.572259 -0.039765 3.306800 0
M  V30 48 H -3.938762 -0.767306 -0.727521 0
M  V30 49 H -3.114184 0.555579 0.146699 0
M  V30 50 H -2.366954 -1.140134 -0.021075 0
M  V30 51 H -4.953200 -2.635350 1.174619 0
M  V30 END ATOM
M  V30 BEGIN BOND
M  V30 1 1 1 2
M  V30 2 2 2 3
M  V30 3 1 3 4
M  V30 4 2 4 5
M  V30 5 1 4 6
M  V30 6 1 3 7
M  V30 7 1 7 8
M  V30 8 2 8 9
M  V30 9 1 9 10
M  V30 10 2 10 11
M  V30 11 1 11 12
M  V30 12 1 12 13
M  V30 13 1 13 14
M  V30 14 2 14 15
M  V30 15 1 15 16
M  V30 16 2 16 17
M  V30 17 1 17 18
M  V30 18 1 17 19
M  V30 19 2 19 20
M  V30 20 1 20 21
M  V30 21 1 21 22
M  V30 22 1 22 23
M  V30 23 1 22 24
M  V30 24 1 24 25
M  V30 25 1 25 26
M  V30 26 1 25 27
M  V30 27 1 25 28
M  V30 28 2 12 29
M  V30 29 1 29 2
M  V30 30 1 29 8
M  V30 31 1 20 14
M  V30 32 1 1 30
M  V30 33 1 1 31
M  V30 34 1 1 32
M  V30 35 1 6 33
M  V30 36 1 10 34
M  V30 37 1 13 35
M  V30 38 1 15 36
M  V30 39 1 16 37
M  V30 40 1 19 38
M  V30 41 1 22 39
M  V30 42 1 23 40
M  V30 43 1 23 41
M  V30 44 1 23 42
M  V30 45 1 24 43
M  V30 46 1 24 44
M  V30 47 1 26 45
M  V30 48 1 26 46
M  V30 49 1 26 47
M  V30 50 1 27 48
M  V30 51 1 27 49
M  V30 52 1 27 50
M  V30 53 1 28 51
M  V30 END BOND
M  V30 END CTAB
M  END
>  <Dataset>  (389) 
ChEMBL_Kinases

>  <Ligand_Instance>  (389) 
nan

>  <PDB_ID>  (389) 
nan

>  <Standardized_SMILES>  (389) 
Cc1c(C(=O)O)sc2ncnc(Nc3ccc(F)cc3OC(C)CC(C)(C)O)c12

>  <Name>  (389) 
nan

>  <Pocket>  (389) 
nan

>  <ATP_Site>  (389) 
nan

>  <Peripheral>  (389) 
nan

>  <Num_H_Atoms_ProtBoundConf>  (389) 
nan

>  <Num_Resolved_Atoms>  (389) 
nan

>  <Num_Not_Resolved_Atoms>  (389) 
nan

$$$$
CHEMBL3698936
     RDKit          3D

  0  0  0  0  0  0  0  0  0  0999 V3000
M  V30 BEGIN CTAB
M  V30 COUNTS 48 50 0 0 0
M  V30 BEGIN ATOM
M  V30 1 C 2.880215 -5.716668 -0.037245 0
M  V30 2 O 2.296530 -4.485573 -0.328360 0
M  V30 3 C 2.923671 -3.436371 -0.949367 0
M  V30 4 O 4.117319 -3.699522 -1.241380 0
M  V30 5 C 2.421837 -2.099877 -1.309161 0
M  V30 6 S 3.442729 -0.960861 -2.094913 0
M  V30 7 C 2.170737 0.372841 -2.200907 0
M  V30 8 N 2.240469 1.614780 -2.718237 0
M  V30 9 C 1.158772 2.408158 -2.679202 0
M  V30 10 N 0.099441 1.864362 -2.114872 0
M  V30 11 C 0.015319 0.647177 -1.602567 0
M  V30 12 N -1.268247 0.355283 -1.069258 0
M  V30 13 C -2.016887 0.972037 -0.001197 0
M  V30 14 C -3.221216 1.422627 -0.543979 0
M  V30 15 C -4.171513 2.074889 0.244331 0
M  V30 16 C -3.786075 2.212756 1.573579 0
M  V30 17 N -2.643295 1.786094 2.091392 0
M  V30 18 C -1.729264 1.157684 1.328527 0
M  V30 19 O -0.508467 0.655672 1.685521 0
M  V30 20 C 0.061836 0.694073 2.956426 0
M  V30 21 C 1.336978 1.507147 3.008240 0
M  V30 22 C 0.412337 -0.663725 3.525468 0
M  V30 23 C -0.804874 -1.544964 3.650696 0
M  V30 24 N -1.741419 -0.904903 4.524133 0
M  V30 25 C 1.088385 -0.217670 -1.610681 0
M  V30 26 C 1.201517 -1.501313 -1.142289 0
M  V30 27 C 0.074575 -2.234817 -0.488341 0
M  V30 28 H 2.949663 -6.324948 -0.968593 0
M  V30 29 H 2.176432 -6.247638 0.660412 0
M  V30 30 H 3.835580 -5.657311 0.506997 0
M  V30 31 H 1.340890 3.367755 -3.120876 0
M  V30 32 H -1.650122 -0.465609 -1.626589 0
M  V30 33 H -3.579261 1.342369 -1.583328 0
M  V30 34 H -5.110620 2.445568 -0.100986 0
M  V30 35 H -4.445560 2.706961 2.290921 0
M  V30 36 H -0.657692 1.210915 3.629651 0
M  V30 37 H 1.867960 1.220587 3.939142 0
M  V30 38 H 1.141943 2.590793 3.072371 0
M  V30 39 H 2.007694 1.214191 2.165591 0
M  V30 40 H 1.172315 -1.145519 2.889095 0
M  V30 41 H 0.783525 -0.472587 4.558551 0
M  V30 42 H -0.543863 -2.524791 4.057663 0
M  V30 43 H -1.323511 -1.669836 2.660097 0
M  V30 44 H -2.414620 -1.621823 4.854172 0
M  V30 45 H -2.172492 -0.053902 4.147412 0
M  V30 46 H 0.490441 -3.086830 0.077876 0
M  V30 47 H -0.621166 -2.688862 -1.226905 0
M  V30 48 H -0.554922 -1.586009 0.155694 0
M  V30 END ATOM
M  V30 BEGIN BOND
M  V30 1 1 1 2
M  V30 2 1 2 3
M  V30 3 2 3 4
M  V30 4 1 3 5
M  V30 5 1 5 6
M  V30 6 1 6 7
M  V30 7 2 7 8
M  V30 8 1 8 9
M  V30 9 2 9 10
M  V30 10 1 10 11
M  V30 11 1 11 12
M  V30 12 1 12 13
M  V30 13 2 13 14
M  V30 14 1 14 15
M  V30 15 2 15 16
M  V30 16 1 16 17
M  V30 17 2 17 18
M  V30 18 1 18 19
M  V30 19 1 19 20
M  V30 20 1 20 21
M  V30 21 1 20 22
M  V30 22 1 22 23
M  V30 23 1 23 24
M  V30 24 2 11 25
M  V30 25 1 25 26
M  V30 26 1 26 27
M  V30 27 2 26 5
M  V30 28 1 25 7
M  V30 29 1 18 13
M  V30 30 1 1 28
M  V30 31 1 1 29
M  V30 32 1 1 30
M  V30 33 1 9 31
M  V30 34 1 12 32
M  V30 35 1 14 33
M  V30 36 1 15 34
M  V30 37 1 16 35
M  V30 38 1 20 36
M  V30 39 1 21 37
M  V30 40 1 21 38
M  V30 41 1 21 39
M  V30 42 1 22 40
M  V30 43 1 22 41
M  V30 44 1 23 42
M  V30 45 1 23 43
M  V30 46 1 24 44
M  V30 47 1 24 45
M  V30 48 1 27 46
M  V30 49 1 27 47
M  V30 50 1 27 48
M  V30 END BOND
M  V30 END CTAB
M  END
>  <Dataset>  (390) 
ChEMBL_Kinases

>  <Ligand_Instance>  (390) 
nan

>  <PDB_ID>  (390) 
nan

>  <Standardized_SMILES>  (390) 
COC(=O)c1sc2ncnc(Nc3cccnc3OC(C)CCN)c2c1C

>  <Name>  (390) 
nan

>  <Pocket>  (390) 
nan

>  <ATP_Site>  (390) 
nan

>  <Peripheral>  (390) 
nan

>  <Num_H_Atoms_ProtBoundConf>  (390) 
nan

>  <Num_Resolved_Atoms>  (390) 
nan

>  <Num_Not_Resolved_Atoms>  (390) 
nan

$$$$
CHEMBL3699794
     RDKit          3D

  0  0  0  0  0  0  0  0  0  0999 V3000
M  V30 BEGIN CTAB
M  V30 COUNTS 49 52 0 0 0
M  V30 BEGIN ATOM
M  V30 1 O -0.883626 -0.833400 2.141180 0
M  V30 2 C -0.192996 -1.657572 1.508035 0
M  V30 3 C 1.269292 -1.529346 1.239970 0
M  V30 4 C 1.800606 -0.258767 1.841809 0
M  V30 5 N 1.802041 0.860481 1.094779 0
M  V30 6 C 2.266014 2.022629 1.587640 0
M  V30 7 N 2.240856 3.165875 0.748034 0
M  V30 8 C 2.677342 4.503383 1.104544 0
M  V30 9 C 3.117344 5.239416 -0.142249 0
M  V30 10 O 3.746132 4.391187 -1.048100 0
M  V30 11 C 2.894350 3.437409 -1.555053 0
M  V30 12 C 1.755301 3.108089 -0.611980 0
M  V30 13 C 2.748471 2.100225 2.858894 0
M  V30 14 C 2.715535 0.914115 3.564336 0
M  V30 15 O 3.155572 0.924835 4.764094 0
M  V30 16 N 2.261702 -0.263130 3.109454 0
M  V30 17 N -0.830794 -2.817335 0.992991 0
M  V30 18 C -0.292137 -3.928821 0.229046 0
M  V30 19 C -1.432085 -4.185318 -0.732017 0
M  V30 20 C -2.658930 -3.963835 0.111337 0
M  V30 21 C -3.983130 -4.370302 0.086632 0
M  V30 22 C -4.289676 -5.255642 -1.063772 0
M  V30 23 O -3.790075 -6.552656 -0.839332 0
M  V30 24 C -4.874545 -3.955961 1.065670 0
M  V30 25 C -4.449167 -3.131934 2.077359 0
M  V30 26 C -3.126287 -2.708969 2.126558 0
M  V30 27 C -2.232280 -3.123455 1.146130 0
M  V30 28 H 1.370299 -1.512038 0.134848 0
M  V30 29 H 1.806255 -2.388727 1.693688 0
M  V30 30 H 3.426126 4.455188 1.895856 0
M  V30 31 H 1.768662 5.017713 1.509297 0
M  V30 32 H 2.236650 5.765992 -0.594394 0
M  V30 33 H 3.837046 6.016378 0.158960 0
M  V30 34 H 3.493728 2.498029 -1.668657 0
M  V30 35 H 2.474131 3.680926 -2.532558 0
M  V30 36 H 1.358105 2.084476 -0.799174 0
M  V30 37 H 0.918668 3.805445 -0.740381 0
M  V30 38 H 3.129317 3.000393 3.299912 0
M  V30 39 H 2.267959 -1.123044 3.703629 0
M  V30 40 H 0.659277 -3.696826 -0.267284 0
M  V30 41 H -0.126187 -4.772882 0.905461 0
M  V30 42 H -1.428362 -3.433547 -1.537630 0
M  V30 43 H -1.372386 -5.202098 -1.118737 0
M  V30 44 H -5.391274 -5.372306 -1.210720 0
M  V30 45 H -3.875055 -4.895529 -2.010419 0
M  V30 46 H -3.444672 -6.932304 -1.696382 0
M  V30 47 H -5.883400 -4.338832 0.940801 0
M  V30 48 H -5.195961 -2.831910 2.829252 0
M  V30 49 H -2.850854 -2.063151 2.944243 0
M  V30 END ATOM
M  V30 BEGIN BOND
M  V30 1 2 1 2
M  V30 2 1 2 3
M  V30 3 1 3 4
M  V30 4 2 4 5
M  V30 5 1 5 6
M  V30 6 1 6 7
M  V30 7 1 7 8
M  V30 8 1 8 9
M  V30 9 1 9 10
M  V30 10 1 10 11
M  V30 11 1 11 12
M  V30 12 2 6 13
M  V30 13 1 13 14
M  V30 14 2 14 15
M  V30 15 1 14 16
M  V30 16 1 2 17
M  V30 17 1 17 18
M  V30 18 1 18 19
M  V30 19 1 19 20
M  V30 20 2 20 21
M  V30 21 1 21 22
M  V30 22 1 22 23
M  V30 23 1 21 24
M  V30 24 2 24 25
M  V30 25 1 25 26
M  V30 26 2 26 27
M  V30 27 1 16 4
M  V30 28 1 27 17
M  V30 29 1 12 7
M  V30 30 1 27 20
M  V30 31 1 3 28
M  V30 32 1 3 29
M  V30 33 1 8 30
M  V30 34 1 8 31
M  V30 35 1 9 32
M  V30 36 1 9 33
M  V30 37 1 11 34
M  V30 38 1 11 35
M  V30 39 1 12 36
M  V30 40 1 12 37
M  V30 41 1 13 38
M  V30 42 1 16 39
M  V30 43 1 18 40
M  V30 44 1 18 41
M  V30 45 1 19 42
M  V30 46 1 19 43
M  V30 47 1 22 44
M  V30 48 1 22 45
M  V30 49 1 23 46
M  V30 50 1 24 47
M  V30 51 1 25 48
M  V30 52 1 26 49
M  V30 END BOND
M  V30 END CTAB
M  END
>  <Dataset>  (391) 
ChEMBL_Kinases

>  <Ligand_Instance>  (391) 
nan

>  <PDB_ID>  (391) 
nan

>  <Standardized_SMILES>  (391) 
O=C(Cc1nc(N2CCOCC2)cc(=O)[nH]1)N1CCc2c(CO)cccc21

>  <Name>  (391) 
nan

>  <Pocket>  (391) 
nan

>  <ATP_Site>  (391) 
nan

>  <Peripheral>  (391) 
nan

>  <Num_H_Atoms_ProtBoundConf>  (391) 
nan

>  <Num_Resolved_Atoms>  (391) 
nan

>  <Num_Not_Resolved_Atoms>  (391) 
nan

$$$$
CHEMBL3699793
     RDKit          3D

  0  0  0  0  0  0  0  0  0  0999 V3000
M  V30 BEGIN CTAB
M  V30 COUNTS 48 51 0 0 0
M  V30 BEGIN ATOM
M  V30 1 O -0.751981 -0.744153 1.913503 0
M  V30 2 C -0.392394 -1.861485 1.477405 0
M  V30 3 C 1.059487 -1.555058 1.470370 0
M  V30 4 C 1.338796 -0.191706 1.943696 0
M  V30 5 N 1.354076 0.763310 0.996041 0
M  V30 6 C 1.605672 2.033389 1.373915 0
M  V30 7 N 1.641546 3.119854 0.430131 0
M  V30 8 C 1.903513 4.505500 0.714220 0
M  V30 9 C 2.876801 5.039034 -0.332460 0
M  V30 10 O 2.157041 5.027016 -1.546202 0
M  V30 11 C 2.054543 3.699668 -1.937727 0
M  V30 12 C 1.390339 2.804006 -0.947326 0
M  V30 13 C 1.834052 2.287195 2.710819 0
M  V30 14 C 1.809396 1.287996 3.640841 0
M  V30 15 O 2.016127 1.498731 4.872186 0
M  V30 16 N 1.559251 0.022092 3.268680 0
M  V30 17 N -0.915135 -3.110535 1.065394 0
M  V30 18 C 0.041837 -4.103837 0.625283 0
M  V30 19 C -0.432216 -4.522908 -0.753077 0
M  V30 20 C -1.745294 -5.267564 -0.555599 0
M  V30 21 C -2.675092 -4.455318 0.270775 0
M  V30 22 C -4.006323 -4.812051 0.210351 0
M  V30 23 Cl -4.669068 -6.114190 -0.740319 0
M  V30 24 C -4.904475 -4.065258 0.978136 0
M  V30 25 C -4.489259 -3.000980 1.777309 0
M  V30 26 C -3.146293 -2.647369 1.833106 0
M  V30 27 C -2.305742 -3.393378 1.075980 0
M  V30 28 H 1.526100 -1.783298 0.491848 0
M  V30 29 H 1.529189 -2.268356 2.191073 0
M  V30 30 H 2.323655 4.709527 1.703351 0
M  V30 31 H 0.975669 5.133152 0.610499 0
M  V30 32 H 3.196601 6.078372 -0.082101 0
M  V30 33 H 3.738198 4.368972 -0.481024 0
M  V30 34 H 3.104931 3.372026 -2.171021 0
M  V30 35 H 1.448739 3.666045 -2.865804 0
M  V30 36 H 1.745167 1.765117 -1.143799 0
M  V30 37 H 0.284892 2.752143 -1.118051 0
M  V30 38 H 2.041682 3.259439 3.106715 0
M  V30 39 H 1.533101 -0.764927 3.953861 0
M  V30 40 H -0.045717 -4.993014 1.301836 0
M  V30 41 H 1.072120 -3.775208 0.674658 0
M  V30 42 H 0.294441 -5.126215 -1.290013 0
M  V30 43 H -0.639126 -3.582466 -1.333704 0
M  V30 44 H -2.201690 -5.410784 -1.566779 0
M  V30 45 H -1.485365 -6.244380 -0.089496 0
M  V30 46 H -5.965139 -4.292932 0.976413 0
M  V30 47 H -5.196345 -2.428330 2.369296 0
M  V30 48 H -2.746283 -1.844096 2.421537 0
M  V30 END ATOM
M  V30 BEGIN BOND
M  V30 1 2 1 2
M  V30 2 1 2 3
M  V30 3 1 3 4
M  V30 4 2 4 5
M  V30 5 1 5 6
M  V30 6 1 6 7
M  V30 7 1 7 8
M  V30 8 1 8 9
M  V30 9 1 9 10
M  V30 10 1 10 11
M  V30 11 1 11 12
M  V30 12 2 6 13
M  V30 13 1 13 14
M  V30 14 2 14 15
M  V30 15 1 14 16
M  V30 16 1 2 17
M  V30 17 1 17 18
M  V30 18 1 18 19
M  V30 19 1 19 20
M  V30 20 1 20 21
M  V30 21 2 21 22
M  V30 22 1 22 23
M  V30 23 1 22 24
M  V30 24 2 24 25
M  V30 25 1 25 26
M  V30 26 2 26 27
M  V30 27 1 16 4
M  V30 28 1 27 17
M  V30 29 1 12 7
M  V30 30 1 27 21
M  V30 31 1 3 28
M  V30 32 1 3 29
M  V30 33 1 8 30
M  V30 34 1 8 31
M  V30 35 1 9 32
M  V30 36 1 9 33
M  V30 37 1 11 34
M  V30 38 1 11 35
M  V30 39 1 12 36
M  V30 40 1 12 37
M  V30 41 1 13 38
M  V30 42 1 16 39
M  V30 43 1 18 40
M  V30 44 1 18 41
M  V30 45 1 19 42
M  V30 46 1 19 43
M  V30 47 1 20 44
M  V30 48 1 20 45
M  V30 49 1 24 46
M  V30 50 1 25 47
M  V30 51 1 26 48
M  V30 END BOND
M  V30 END CTAB
M  END
>  <Dataset>  (392) 
ChEMBL_Kinases

>  <Ligand_Instance>  (392) 
nan

>  <PDB_ID>  (392) 
nan

>  <Standardized_SMILES>  (392) 
O=C(Cc1nc(N2CCOCC2)cc(=O)[nH]1)N1CCCc2c(Cl)cccc21

>  <Name>  (392) 
nan

>  <Pocket>  (392) 
nan

>  <ATP_Site>  (392) 
nan

>  <Peripheral>  (392) 
nan

>  <Num_H_Atoms_ProtBoundConf>  (392) 
nan

>  <Num_Resolved_Atoms>  (392) 
nan

>  <Num_Not_Resolved_Atoms>  (392) 
nan

$$$$
CHEMBL3699792
     RDKit          3D

  0  0  0  0  0  0  0  0  0  0999 V3000
M  V30 BEGIN CTAB
M  V30 COUNTS 47 50 0 0 0
M  V30 BEGIN ATOM
M  V30 1 C 1.159914 -5.311792 1.724867 0
M  V30 2 N 0.152622 -4.304860 1.473170 0
M  V30 3 C 0.595876 -3.056737 1.598252 0
M  V30 4 C 1.941259 -2.410944 1.869542 0
M  V30 5 C 2.236218 -1.486624 0.712606 0
M  V30 6 O 2.485949 -1.891524 -0.443415 0
M  V30 7 N 2.230986 -0.093311 0.900513 0
M  V30 8 C 2.444869 0.979027 0.005845 0
M  V30 9 C 2.743161 0.858198 -1.323320 0
M  V30 10 C 2.938638 1.784939 -2.289887 0
M  V30 11 C 2.817486 3.111428 -1.858075 0
M  V30 12 C 2.524898 3.290873 -0.554748 0
M  V30 13 S 2.279555 4.870365 0.373087 0
M  V30 14 C 1.923928 4.072017 2.043146 0
M  V30 15 C 2.030990 2.711770 1.703652 0
M  V30 16 C 2.321177 2.261185 0.452889 0
M  V30 17 N -0.271623 -2.018679 1.398595 0
M  V30 18 C -1.567526 -2.169126 1.076152 0
M  V30 19 N -2.376583 -0.986942 0.863636 0
M  V30 20 C -1.681099 0.285538 0.899317 0
M  V30 21 C -2.285635 1.125773 1.972828 0
M  V30 22 O -3.622012 0.846211 2.187122 0
M  V30 23 C -4.275746 0.421529 1.042892 0
M  V30 24 C -3.783143 -0.969699 0.618194 0
M  V30 25 C -2.023384 -3.466123 0.946138 0
M  V30 26 C -1.133081 -4.498303 1.153091 0
M  V30 27 O -1.489236 -5.682649 1.049891 0
M  V30 28 H 1.530458 -5.759042 0.793295 0
M  V30 29 H 0.630732 -6.133815 2.282494 0
M  V30 30 H 1.944735 -4.970422 2.428104 0
M  V30 31 H 2.712008 -3.203718 1.834653 0
M  V30 32 H 1.929035 -1.871178 2.805312 0
M  V30 33 H 2.032352 0.148941 1.904030 0
M  V30 34 H 2.859790 -0.143789 -1.764529 0
M  V30 35 H 3.169527 1.627540 -3.328424 0
M  V30 36 H 2.932567 3.993423 -2.460557 0
M  V30 37 H 1.729438 4.652021 2.860782 0
M  V30 38 H 1.848918 2.113777 2.578118 0
M  V30 39 H -0.596098 0.153158 1.150581 0
M  V30 40 H -1.676371 0.783621 -0.095357 0
M  V30 41 H -1.728706 0.920897 2.919856 0
M  V30 42 H -2.151828 2.212644 1.785088 0
M  V30 43 H -4.046344 1.179759 0.238070 0
M  V30 44 H -5.354258 0.442454 1.176689 0
M  V30 45 H -4.384648 -1.695992 1.187452 0
M  V30 46 H -4.051952 -1.047053 -0.456282 0
M  V30 47 H -3.057726 -3.619037 0.686241 0
M  V30 END ATOM
M  V30 BEGIN BOND
M  V30 1 1 1 2
M  V30 2 1 2 3
M  V30 3 1 3 4
M  V30 4 1 4 5
M  V30 5 2 5 6
M  V30 6 1 5 7
M  V30 7 1 7 8
M  V30 8 2 8 9
M  V30 9 1 9 10
M  V30 10 2 10 11
M  V30 11 1 11 12
M  V30 12 1 12 13
M  V30 13 1 13 14
M  V30 14 2 14 15
M  V30 15 1 15 16
M  V30 16 2 3 17
M  V30 17 1 17 18
M  V30 18 1 18 19
M  V30 19 1 19 20
M  V30 20 1 20 21
M  V30 21 1 21 22
M  V30 22 1 22 23
M  V30 23 1 23 24
M  V30 24 2 18 25
M  V30 25 1 25 26
M  V30 26 2 26 27
M  V30 27 1 26 2
M  V30 28 1 16 8
M  V30 29 1 24 19
M  V30 30 2 16 12
M  V30 31 1 1 28
M  V30 32 1 1 29
M  V30 33 1 1 30
M  V30 34 1 4 31
M  V30 35 1 4 32
M  V30 36 1 7 33
M  V30 37 1 9 34
M  V30 38 1 10 35
M  V30 39 1 11 36
M  V30 40 1 14 37
M  V30 41 1 15 38
M  V30 42 1 20 39
M  V30 43 1 20 40
M  V30 44 1 21 41
M  V30 45 1 21 42
M  V30 46 1 23 43
M  V30 47 1 23 44
M  V30 48 1 24 45
M  V30 49 1 24 46
M  V30 50 1 25 47
M  V30 END BOND
M  V30 END CTAB
M  END
>  <Dataset>  (393) 
ChEMBL_Kinases

>  <Ligand_Instance>  (393) 
nan

>  <PDB_ID>  (393) 
nan

>  <Standardized_SMILES>  (393) 
Cn1c(CC(=O)Nc2cccc3sccc23)nc(N2CCOCC2)cc1=O

>  <Name>  (393) 
nan

>  <Pocket>  (393) 
nan

>  <ATP_Site>  (393) 
nan

>  <Peripheral>  (393) 
nan

>  <Num_H_Atoms_ProtBoundConf>  (393) 
nan

>  <Num_Resolved_Atoms>  (393) 
nan

>  <Num_Not_Resolved_Atoms>  (393) 
nan

$$$$
CHEMBL3699791
     RDKit          3D

  0  0  0  0  0  0  0  0  0  0999 V3000
M  V30 BEGIN CTAB
M  V30 COUNTS 45 48 0 0 0
M  V30 BEGIN ATOM
M  V30 1 O 0.030541 0.294426 3.401423 0
M  V30 2 C -0.335659 -0.745030 2.768071 0
M  V30 3 C 0.189379 -1.762555 1.847992 0
M  V30 4 C 1.625507 -1.569610 1.500712 0
M  V30 5 N 1.919664 -0.813284 0.429908 0
M  V30 6 C 3.197426 -0.584544 0.041051 0
M  V30 7 N 3.489069 0.216064 -1.091092 0
M  V30 8 C 4.815504 0.519689 -1.590558 0
M  V30 9 C 4.783370 0.167272 -3.083738 0
M  V30 10 O 3.976625 1.179411 -3.648469 0
M  V30 11 C 2.662397 0.991046 -3.290011 0
M  V30 12 C 2.411177 0.792859 -1.832109 0
M  V30 13 C 4.142046 -1.194301 0.839731 0
M  V30 14 C 3.847477 -1.963010 1.927825 0
M  V30 15 O 4.759062 -2.489417 2.612072 0
M  V30 16 N 2.565804 -2.163204 2.277084 0
M  V30 17 N -1.725591 -1.011531 3.045888 0
M  V30 18 C -2.555411 -0.181761 3.932458 0
M  V30 19 C -3.763587 -0.008892 3.082029 0
M  V30 20 C -4.741455 0.954482 2.913009 0
M  V30 21 C -5.767029 0.803632 2.003636 0
M  V30 22 C -5.856764 -0.337176 1.213158 0
M  V30 23 C -4.887296 -1.319636 1.363474 0
M  V30 24 C -3.860768 -1.139716 2.291925 0
M  V30 25 C -2.714671 -2.021276 2.645931 0
M  V30 26 H -0.445258 -1.805682 0.936854 0
M  V30 27 H 0.103335 -2.756979 2.328708 0
M  V30 28 H 5.628079 0.013605 -1.073899 0
M  V30 29 H 4.895860 1.643862 -1.519534 0
M  V30 30 H 5.771348 0.123226 -3.537927 0
M  V30 31 H 4.239545 -0.808188 -3.165041 0
M  V30 32 H 2.155073 0.208965 -3.890503 0
M  V30 33 H 2.132694 1.947688 -3.570745 0
M  V30 34 H 1.499150 0.151800 -1.734514 0
M  V30 35 H 2.137115 1.763185 -1.323855 0
M  V30 36 H 5.183431 -1.061013 0.597004 0
M  V30 37 H 2.275866 -2.735910 3.091575 0
M  V30 38 H -2.819750 -0.833747 4.780594 0
M  V30 39 H -2.078859 0.755450 4.217304 0
M  V30 40 H -4.686609 1.851561 3.522099 0
M  V30 41 H -6.536545 1.542928 1.858761 0
M  V30 42 H -6.622564 -0.547478 0.472610 0
M  V30 43 H -4.914319 -2.234206 0.765430 0
M  V30 44 H -2.347608 -2.632615 1.802958 0
M  V30 45 H -2.947968 -2.573393 3.560869 0
M  V30 END ATOM
M  V30 BEGIN BOND
M  V30 1 2 1 2
M  V30 2 1 2 3
M  V30 3 1 3 4
M  V30 4 2 4 5
M  V30 5 1 5 6
M  V30 6 1 6 7
M  V30 7 1 7 8
M  V30 8 1 8 9
M  V30 9 1 9 10
M  V30 10 1 10 11
M  V30 11 1 11 12
M  V30 12 2 6 13
M  V30 13 1 13 14
M  V30 14 2 14 15
M  V30 15 1 14 16
M  V30 16 1 2 17
M  V30 17 1 17 18
M  V30 18 1 18 19
M  V30 19 2 19 20
M  V30 20 1 20 21
M  V30 21 2 21 22
M  V30 22 1 22 23
M  V30 23 2 23 24
M  V30 24 1 24 25
M  V30 25 1 16 4
M  V30 26 1 25 17
M  V30 27 1 12 7
M  V30 28 1 24 19
M  V30 29 1 3 26
M  V30 30 1 3 27
M  V30 31 1 8 28
M  V30 32 1 8 29
M  V30 33 1 9 30
M  V30 34 1 9 31
M  V30 35 1 11 32
M  V30 36 1 11 33
M  V30 37 1 12 34
M  V30 38 1 12 35
M  V30 39 1 13 36
M  V30 40 1 16 37
M  V30 41 1 18 38
M  V30 42 1 18 39
M  V30 43 1 20 40
M  V30 44 1 21 41
M  V30 45 1 22 42
M  V30 46 1 23 43
M  V30 47 1 25 44
M  V30 48 1 25 45
M  V30 END BOND
M  V30 END CTAB
M  END
>  <Dataset>  (394) 
ChEMBL_Kinases

>  <Ligand_Instance>  (394) 
nan

>  <PDB_ID>  (394) 
nan

>  <Standardized_SMILES>  (394) 
O=C(Cc1nc(N2CCOCC2)cc(=O)[nH]1)N1Cc2ccccc2C1

>  <Name>  (394) 
nan

>  <Pocket>  (394) 
nan

>  <ATP_Site>  (394) 
nan

>  <Peripheral>  (394) 
nan

>  <Num_H_Atoms_ProtBoundConf>  (394) 
nan

>  <Num_Resolved_Atoms>  (394) 
nan

>  <Num_Not_Resolved_Atoms>  (394) 
nan

$$$$
CHEMBL3699790
     RDKit          3D

  0  0  0  0  0  0  0  0  0  0999 V3000
M  V30 BEGIN CTAB
M  V30 COUNTS 48 51 0 0 0
M  V30 BEGIN ATOM
M  V30 1 C 1.410516 -3.775590 1.085916 0
M  V30 2 N 0.102458 -3.277309 0.729000 0
M  V30 3 C 0.018663 -2.019151 0.209777 0
M  V30 4 C 1.219560 -1.201268 0.021299 0
M  V30 5 C 1.543868 -0.369083 1.204494 0
M  V30 6 O 0.843467 -0.382936 2.249394 0
M  V30 7 N 2.688860 0.473432 1.151563 0
M  V30 8 C 3.617033 0.631776 0.048802 0
M  V30 9 C 4.001308 2.091575 0.168088 0
M  V30 10 C 3.917928 2.310544 1.634870 0
M  V30 11 C 3.122735 1.324751 2.206474 0
M  V30 12 C 2.922540 1.358105 3.578503 0
M  V30 13 C 3.506641 2.358288 4.363052 0
M  V30 14 C 4.297636 3.331387 3.761918 0
M  V30 15 F 4.886120 4.325169 4.492024 0
M  V30 16 C 4.518792 3.326617 2.386064 0
M  V30 17 F 5.287396 4.267716 1.782708 0
M  V30 18 N -1.206463 -1.523970 -0.136065 0
M  V30 19 C -2.321328 -2.260044 0.029582 0
M  V30 20 N -3.546148 -1.650796 -0.362383 0
M  V30 21 C -3.519053 -0.304066 -0.903975 0
M  V30 22 C -4.853146 0.384279 -0.728358 0
M  V30 23 O -5.900359 -0.346502 -1.260298 0
M  V30 24 C -5.685537 -1.699625 -1.364311 0
M  V30 25 C -4.843902 -2.291715 -0.257131 0
M  V30 26 C -2.293392 -3.537908 0.550170 0
M  V30 27 C -1.034768 -3.998261 0.885880 0
M  V30 28 O -0.956829 -5.162270 1.366315 0
M  V30 29 H 1.277917 -4.838090 1.425420 0
M  V30 30 H 2.138863 -3.786779 0.274490 0
M  V30 31 H 1.840385 -3.258533 1.979647 0
M  V30 32 H 2.077791 -1.827497 -0.299350 0
M  V30 33 H 1.017572 -0.493182 -0.824258 0
M  V30 34 H 3.137543 0.426049 -0.930484 0
M  V30 35 H 4.539838 0.042733 0.188310 0
M  V30 36 H 3.279998 2.732940 -0.397199 0
M  V30 37 H 5.033604 2.269997 -0.198817 0
M  V30 38 H 2.300860 0.580913 3.996846 0
M  V30 39 H 3.338740 2.367803 5.433459 0
M  V30 40 H -3.276746 -0.415373 -1.988117 0
M  V30 41 H -2.761346 0.252647 -0.331475 0
M  V30 42 H -4.983971 0.632502 0.337994 0
M  V30 43 H -4.797067 1.344484 -1.282043 0
M  V30 44 H -5.171929 -1.876248 -2.347657 0
M  V30 45 H -6.667154 -2.213994 -1.393443 0
M  V30 46 H -4.821612 -3.381115 -0.416427 0
M  V30 47 H -5.315543 -1.993843 0.696587 0
M  V30 48 H -3.188316 -4.115774 0.677868 0
M  V30 END ATOM
M  V30 BEGIN BOND
M  V30 1 1 1 2
M  V30 2 1 2 3
M  V30 3 1 3 4
M  V30 4 1 4 5
M  V30 5 2 5 6
M  V30 6 1 5 7
M  V30 7 1 7 8
M  V30 8 1 8 9
M  V30 9 1 9 10
M  V30 10 2 10 11
M  V30 11 1 11 12
M  V30 12 2 12 13
M  V30 13 1 13 14
M  V30 14 1 14 15
M  V30 15 2 14 16
M  V30 16 1 16 17
M  V30 17 2 3 18
M  V30 18 1 18 19
M  V30 19 1 19 20
M  V30 20 1 20 21
M  V30 21 1 21 22
M  V30 22 1 22 23
M  V30 23 1 23 24
M  V30 24 1 24 25
M  V30 25 2 19 26
M  V30 26 1 26 27
M  V30 27 2 27 28
M  V30 28 1 27 2
M  V30 29 1 11 7
M  V30 30 1 25 20
M  V30 31 1 16 10
M  V30 32 1 1 29
M  V30 33 1 1 30
M  V30 34 1 1 31
M  V30 35 1 4 32
M  V30 36 1 4 33
M  V30 37 1 8 34
M  V30 38 1 8 35
M  V30 39 1 9 36
M  V30 40 1 9 37
M  V30 41 1 12 38
M  V30 42 1 13 39
M  V30 43 1 21 40
M  V30 44 1 21 41
M  V30 45 1 22 42
M  V30 46 1 22 43
M  V30 47 1 24 44
M  V30 48 1 24 45
M  V30 49 1 25 46
M  V30 50 1 25 47
M  V30 51 1 26 48
M  V30 END BOND
M  V30 END CTAB
M  END
>  <Dataset>  (395) 
ChEMBL_Kinases

>  <Ligand_Instance>  (395) 
nan

>  <PDB_ID>  (395) 
nan

>  <Standardized_SMILES>  (395) 
Cn1c(CC(=O)N2CCc3c2ccc(F)c3F)nc(N2CCOCC2)cc1=O

>  <Name>  (395) 
nan

>  <Pocket>  (395) 
nan

>  <ATP_Site>  (395) 
nan

>  <Peripheral>  (395) 
nan

>  <Num_H_Atoms_ProtBoundConf>  (395) 
nan

>  <Num_Resolved_Atoms>  (395) 
nan

>  <Num_Not_Resolved_Atoms>  (395) 
nan

$$$$
CHEMBL3699789
     RDKit          3D

  0  0  0  0  0  0  0  0  0  0999 V3000
M  V30 BEGIN CTAB
M  V30 COUNTS 48 51 0 0 0
M  V30 BEGIN ATOM
M  V30 1 C 1.686703 -3.559608 1.452984 0
M  V30 2 N 0.376026 -3.227400 0.987520 0
M  V30 3 C 0.188689 -2.093196 0.291035 0
M  V30 4 C 1.333178 -1.188893 0.005002 0
M  V30 5 C 1.499829 -0.169603 1.094868 0
M  V30 6 O 0.827101 -0.024025 2.125959 0
M  V30 7 N 2.583093 0.748185 0.903365 0
M  V30 8 C 3.553494 0.848232 -0.188780 0
M  V30 9 C 3.749019 2.335268 -0.291789 0
M  V30 10 C 3.666840 2.812372 1.133680 0
M  V30 11 C 4.107189 3.913740 1.825334 0
M  V30 12 C 3.849744 4.045703 3.187115 0
M  V30 13 F 4.345623 5.178142 3.720580 0
M  V30 14 C 3.144839 3.055769 3.839886 0
M  V30 15 F 2.938516 3.262464 5.160973 0
M  V30 16 C 2.691354 1.935821 3.160113 0
M  V30 17 C 2.954499 1.811515 1.792242 0
M  V30 18 N -1.056047 -1.792564 -0.142384 0
M  V30 19 C -2.119702 -2.558040 0.079893 0
M  V30 20 N -3.399489 -2.192781 -0.398355 0
M  V30 21 C -3.669120 -0.983847 -1.154987 0
M  V30 22 C -4.593776 -0.125280 -0.318851 0
M  V30 23 O -5.641279 -0.875714 0.152497 0
M  V30 24 C -5.774019 -2.122472 -0.403687 0
M  V30 25 C -4.567762 -3.007880 -0.169564 0
M  V30 26 C -1.991578 -3.721622 0.781078 0
M  V30 27 C -0.695820 -4.012327 1.219371 0
M  V30 28 O -0.458098 -5.060021 1.876202 0
M  V30 29 H 1.604242 -4.495602 2.072056 0
M  V30 30 H 2.382885 -3.738936 0.608942 0
M  V30 31 H 2.121401 -2.811326 2.147079 0
M  V30 32 H 1.063927 -0.648489 -0.944786 0
M  V30 33 H 2.256729 -1.721882 -0.212460 0
M  V30 34 H 3.182478 0.362567 -1.097648 0
M  V30 35 H 4.501996 0.395001 0.179553 0
M  V30 36 H 4.724310 2.587096 -0.748148 0
M  V30 37 H 2.932202 2.766427 -0.899433 0
M  V30 38 H 4.644669 4.610895 1.196330 0
M  V30 39 H 2.139009 1.186242 3.731097 0
M  V30 40 H -4.116495 -1.209375 -2.152500 0
M  V30 41 H -2.671301 -0.483331 -1.273953 0
M  V30 42 H -4.972138 0.751559 -0.906816 0
M  V30 43 H -3.972484 0.252345 0.545460 0
M  V30 44 H -6.704836 -2.578457 -0.013299 0
M  V30 45 H -5.887277 -1.996325 -1.516865 0
M  V30 46 H -4.617424 -3.874889 -0.853347 0
M  V30 47 H -4.624097 -3.342493 0.894641 0
M  V30 48 H -2.772820 -4.410176 1.017521 0
M  V30 END ATOM
M  V30 BEGIN BOND
M  V30 1 1 1 2
M  V30 2 1 2 3
M  V30 3 1 3 4
M  V30 4 1 4 5
M  V30 5 2 5 6
M  V30 6 1 5 7
M  V30 7 1 7 8
M  V30 8 1 8 9
M  V30 9 1 9 10
M  V30 10 2 10 11
M  V30 11 1 11 12
M  V30 12 1 12 13
M  V30 13 2 12 14
M  V30 14 1 14 15
M  V30 15 1 14 16
M  V30 16 2 16 17
M  V30 17 2 3 18
M  V30 18 1 18 19
M  V30 19 1 19 20
M  V30 20 1 20 21
M  V30 21 1 21 22
M  V30 22 1 22 23
M  V30 23 1 23 24
M  V30 24 1 24 25
M  V30 25 2 19 26
M  V30 26 1 26 27
M  V30 27 2 27 28
M  V30 28 1 27 2
M  V30 29 1 17 7
M  V30 30 1 25 20
M  V30 31 1 17 10
M  V30 32 1 1 29
M  V30 33 1 1 30
M  V30 34 1 1 31
M  V30 35 1 4 32
M  V30 36 1 4 33
M  V30 37 1 8 34
M  V30 38 1 8 35
M  V30 39 1 9 36
M  V30 40 1 9 37
M  V30 41 1 11 38
M  V30 42 1 16 39
M  V30 43 1 21 40
M  V30 44 1 21 41
M  V30 45 1 22 42
M  V30 46 1 22 43
M  V30 47 1 24 44
M  V30 48 1 24 45
M  V30 49 1 25 46
M  V30 50 1 25 47
M  V30 51 1 26 48
M  V30 END BOND
M  V30 END CTAB
M  END
>  <Dataset>  (396) 
ChEMBL_Kinases

>  <Ligand_Instance>  (396) 
nan

>  <PDB_ID>  (396) 
nan

>  <Standardized_SMILES>  (396) 
Cn1c(CC(=O)N2CCc3cc(F)c(F)cc32)nc(N2CCOCC2)cc1=O

>  <Name>  (396) 
nan

>  <Pocket>  (396) 
nan

>  <ATP_Site>  (396) 
nan

>  <Peripheral>  (396) 
nan

>  <Num_H_Atoms_ProtBoundConf>  (396) 
nan

>  <Num_Resolved_Atoms>  (396) 
nan

>  <Num_Not_Resolved_Atoms>  (396) 
nan

$$$$
CHEMBL3699788
     RDKit          3D

  0  0  0  0  0  0  0  0  0  0999 V3000
M  V30 BEGIN CTAB
M  V30 COUNTS 48 51 0 0 0
M  V30 BEGIN ATOM
M  V30 1 C -1.624764 -4.563924 2.180373 0
M  V30 2 C -2.306904 -4.506736 0.831916 0 CFG=2
M  V30 3 C -1.459309 -3.799393 -0.197328 0
M  V30 4 N -1.816672 -2.389203 -0.061273 0
M  V30 5 C -0.851562 -1.413055 -0.379068 0
M  V30 6 O 0.333734 -1.564041 -0.780694 0
M  V30 7 C -0.944495 0.054734 -0.335303 0
M  V30 8 C 0.364849 0.654135 -0.767571 0
M  V30 9 N 1.275072 0.884614 0.206414 0
M  V30 10 C 2.463040 1.411632 -0.067669 0
M  V30 11 N 3.350882 1.616177 1.019029 0
M  V30 12 C 2.930933 1.243521 2.356435 0
M  V30 13 C 2.818411 2.542087 3.137300 0
M  V30 14 O 3.729105 3.492524 2.722733 0
M  V30 15 C 4.898589 2.954265 2.213705 0
M  V30 16 C 4.683819 2.180470 0.925779 0
M  V30 17 C 2.819668 1.746567 -1.357156 0
M  V30 18 C 1.874272 1.503434 -2.343336 0
M  V30 19 O 2.143632 1.790549 -3.550792 0
M  V30 20 N 0.672093 0.968921 -2.057879 0
M  V30 21 C -3.162053 -2.342966 0.395841 0
M  V30 22 C -4.008092 -1.268120 0.327289 0
M  V30 23 C -5.287476 -1.404423 0.822900 0
M  V30 24 C -5.670318 -2.628089 1.373587 0
M  V30 25 C -4.761766 -3.682779 1.413352 0
M  V30 26 C -3.485721 -3.579449 0.930149 0
M  V30 27 H -1.674980 -3.571939 2.690347 0
M  V30 28 H -2.124105 -5.340522 2.783763 0
M  V30 29 H -0.569548 -4.874770 2.016379 0
M  V30 30 H -2.574611 -5.523060 0.543096 0
M  V30 31 H -1.795478 -4.171087 -1.191188 0
M  V30 32 H -0.405023 -4.009492 -0.007917 0
M  V30 33 H -1.224843 0.455576 0.645600 0
M  V30 34 H -1.677733 0.441443 -1.099099 0
M  V30 35 H 3.751597 0.643099 2.806537 0
M  V30 36 H 1.958376 0.729612 2.355470 0
M  V30 37 H 2.794596 2.371303 4.227851 0
M  V30 38 H 1.807546 2.953853 2.848765 0
M  V30 39 H 5.453506 2.359896 2.980085 0
M  V30 40 H 5.548653 3.817667 1.965615 0
M  V30 41 H 5.379995 1.298714 0.988131 0
M  V30 42 H 4.863834 2.769067 0.024494 0
M  V30 43 H 3.772288 2.171401 -1.592416 0
M  V30 44 H -0.069026 0.770850 -2.779738 0
M  V30 45 H -3.714534 -0.321318 -0.097550 0
M  V30 46 H -5.998584 -0.598329 0.798335 0
M  V30 47 H -6.659637 -2.815284 1.784682 0
M  V30 48 H -5.077229 -4.625344 1.844751 0
M  V30 END ATOM
M  V30 BEGIN BOND
M  V30 1 1 1 2
M  V30 2 1 2 3
M  V30 3 1 3 4
M  V30 4 1 4 5
M  V30 5 2 5 6
M  V30 6 1 5 7
M  V30 7 1 7 8
M  V30 8 2 8 9
M  V30 9 1 9 10
M  V30 10 1 10 11
M  V30 11 1 11 12
M  V30 12 1 12 13
M  V30 13 1 13 14
M  V30 14 1 14 15
M  V30 15 1 15 16
M  V30 16 2 10 17
M  V30 17 1 17 18
M  V30 18 2 18 19
M  V30 19 1 18 20
M  V30 20 1 4 21
M  V30 21 2 21 22
M  V30 22 1 22 23
M  V30 23 2 23 24
M  V30 24 1 24 25
M  V30 25 2 25 26
M  V30 26 1 26 2
M  V30 27 1 20 8
M  V30 28 1 26 21
M  V30 29 1 16 11
M  V30 30 1 1 27
M  V30 31 1 1 28
M  V30 32 1 1 29
M  V30 33 1 2 30 CFG=3
M  V30 34 1 3 31
M  V30 35 1 3 32
M  V30 36 1 7 33
M  V30 37 1 7 34
M  V30 38 1 12 35
M  V30 39 1 12 36
M  V30 40 1 13 37
M  V30 41 1 13 38
M  V30 42 1 15 39
M  V30 43 1 15 40
M  V30 44 1 16 41
M  V30 45 1 16 42
M  V30 46 1 17 43
M  V30 47 1 20 44
M  V30 48 1 22 45
M  V30 49 1 23 46
M  V30 50 1 24 47
M  V30 51 1 25 48
M  V30 END BOND
M  V30 END CTAB
M  END
>  <Dataset>  (397) 
ChEMBL_Kinases

>  <Ligand_Instance>  (397) 
nan

>  <PDB_ID>  (397) 
nan

>  <Standardized_SMILES>  (397) 
C[C@@H]1CN(C(=O)Cc2nc(N3CCOCC3)cc(=O)[nH]2)c2ccccc21

>  <Name>  (397) 
nan

>  <Pocket>  (397) 
nan

>  <ATP_Site>  (397) 
nan

>  <Peripheral>  (397) 
nan

>  <Num_H_Atoms_ProtBoundConf>  (397) 
nan

>  <Num_Resolved_Atoms>  (397) 
nan

>  <Num_Not_Resolved_Atoms>  (397) 
nan

$$$$
CHEMBL3699787
     RDKit          3D

  0  0  0  0  0  0  0  0  0  0999 V3000
M  V30 BEGIN CTAB
M  V30 COUNTS 48 51 0 0 0
M  V30 BEGIN ATOM
M  V30 1 C 1.905510 -3.235070 1.529223 0
M  V30 2 N 0.484205 -2.987997 1.392060 0
M  V30 3 C 0.075561 -1.705858 1.337420 0
M  V30 4 C 0.970877 -0.526508 1.407273 0
M  V30 5 C 1.447876 -0.081677 0.102806 0
M  V30 6 O 0.838768 -0.962189 -0.577941 0
M  V30 7 N 2.289645 0.947577 -0.363573 0
M  V30 8 C 2.527060 1.068399 -1.790500 0
M  V30 9 C 3.958812 1.591025 -1.842472 0
M  V30 10 C 4.020277 2.376533 -0.581543 0
M  V30 11 C 4.820915 3.382653 -0.086330 0
M  V30 12 C 4.670530 3.961783 1.147789 0
M  V30 13 C 3.634233 3.505354 1.968238 0
M  V30 14 F 3.419572 4.026613 3.202082 0
M  V30 15 C 2.787832 2.497950 1.541881 0
M  V30 16 C 3.021983 1.981038 0.285177 0
M  V30 17 N -1.245829 -1.501393 1.210183 0
M  V30 18 C -2.115322 -2.526071 1.141005 0
M  V30 19 N -3.488795 -2.190626 1.007131 0
M  V30 20 C -3.887974 -0.794283 0.949551 0
M  V30 21 C -5.070406 -0.660386 1.886945 0
M  V30 22 O -6.122751 -1.421964 1.440120 0
M  V30 23 C -5.798692 -2.408017 0.532857 0
M  V30 24 C -4.550033 -3.177717 0.921688 0
M  V30 25 C -1.706586 -3.830811 1.195945 0
M  V30 26 C -0.351510 -4.030709 1.326300 0
M  V30 27 O 0.086981 -5.223980 1.382642 0
M  V30 28 H 2.129104 -4.317591 1.595285 0
M  V30 29 H 2.338048 -2.772547 2.450097 0
M  V30 30 H 2.486793 -2.829923 0.677638 0
M  V30 31 H 1.846408 -0.832651 2.016680 0
M  V30 32 H 0.466395 0.301820 1.987255 0
M  V30 33 H 1.912626 1.914224 -2.206481 0
M  V30 34 H 2.405584 0.149866 -2.358092 0
M  V30 35 H 4.131251 2.212142 -2.725758 0
M  V30 36 H 4.647354 0.714967 -1.822591 0
M  V30 37 H 5.637843 3.765784 -0.692733 0
M  V30 38 H 5.297163 4.749197 1.535286 0
M  V30 39 H 1.986341 2.139145 2.167072 0
M  V30 40 H -3.096796 -0.105778 1.314496 0
M  V30 41 H -4.163802 -0.543389 -0.110389 0
M  V30 42 H -4.711126 -1.076060 2.867863 0
M  V30 43 H -5.289013 0.424089 1.968911 0
M  V30 44 H -5.656455 -1.892108 -0.452945 0
M  V30 45 H -6.686214 -3.067680 0.437507 0
M  V30 46 H -4.358364 -3.923495 0.128332 0
M  V30 47 H -4.757674 -3.629145 1.915053 0
M  V30 48 H -2.444180 -4.621744 1.136287 0
M  V30 END ATOM
M  V30 BEGIN BOND
M  V30 1 1 1 2
M  V30 2 1 2 3
M  V30 3 1 3 4
M  V30 4 1 4 5
M  V30 5 2 5 6
M  V30 6 1 5 7
M  V30 7 1 7 8
M  V30 8 1 8 9
M  V30 9 1 9 10
M  V30 10 2 10 11
M  V30 11 1 11 12
M  V30 12 2 12 13
M  V30 13 1 13 14
M  V30 14 1 13 15
M  V30 15 2 15 16
M  V30 16 2 3 17
M  V30 17 1 17 18
M  V30 18 1 18 19
M  V30 19 1 19 20
M  V30 20 1 20 21
M  V30 21 1 21 22
M  V30 22 1 22 23
M  V30 23 1 23 24
M  V30 24 2 18 25
M  V30 25 1 25 26
M  V30 26 2 26 27
M  V30 27 1 26 2
M  V30 28 1 16 7
M  V30 29 1 24 19
M  V30 30 1 16 10
M  V30 31 1 1 28
M  V30 32 1 1 29
M  V30 33 1 1 30
M  V30 34 1 4 31
M  V30 35 1 4 32
M  V30 36 1 8 33
M  V30 37 1 8 34
M  V30 38 1 9 35
M  V30 39 1 9 36
M  V30 40 1 11 37
M  V30 41 1 12 38
M  V30 42 1 15 39
M  V30 43 1 20 40
M  V30 44 1 20 41
M  V30 45 1 21 42
M  V30 46 1 21 43
M  V30 47 1 23 44
M  V30 48 1 23 45
M  V30 49 1 24 46
M  V30 50 1 24 47
M  V30 51 1 25 48
M  V30 END BOND
M  V30 END CTAB
M  END
>  <Dataset>  (398) 
ChEMBL_Kinases

>  <Ligand_Instance>  (398) 
nan

>  <PDB_ID>  (398) 
nan

>  <Standardized_SMILES>  (398) 
Cn1c(CC(=O)N2CCc3ccc(F)cc32)nc(N2CCOCC2)cc1=O

>  <Name>  (398) 
nan

>  <Pocket>  (398) 
nan

>  <ATP_Site>  (398) 
nan

>  <Peripheral>  (398) 
nan

>  <Num_H_Atoms_ProtBoundConf>  (398) 
nan

>  <Num_Resolved_Atoms>  (398) 
nan

>  <Num_Not_Resolved_Atoms>  (398) 
nan

$$$$
CHEMBL3699786
     RDKit          3D

  0  0  0  0  0  0  0  0  0  0999 V3000
M  V30 BEGIN CTAB
M  V30 COUNTS 51 54 0 0 0
M  V30 BEGIN ATOM
M  V30 1 C 0.698322 0.024026 2.428063 0
M  V30 2 C 1.313449 1.176713 1.646545 0
M  V30 3 C 2.309082 1.856689 2.550769 0
M  V30 4 C 3.523683 0.999279 2.440643 0
M  V30 5 C 4.566695 0.982895 3.337318 0
M  V30 6 C 5.606740 0.118145 3.026958 0
M  V30 7 C 5.531140 -0.653743 1.860920 0
M  V30 8 C 4.444334 -0.581917 1.004982 0
M  V30 9 C 3.391212 0.266365 1.283193 0
M  V30 10 N 2.163064 0.557921 0.638472 0
M  V30 11 C 1.822370 0.266529 -0.707884 0
M  V30 12 O 2.716031 -0.381205 -1.340617 0
M  V30 13 C 0.526113 0.684976 -1.321495 0
M  V30 14 C -0.380422 -0.478339 -1.499543 0
M  V30 15 N -1.194945 -0.691704 -0.459883 0
M  V30 16 C -2.090693 -1.679995 -0.341882 0
M  V30 17 N -2.906174 -1.740897 0.837301 0
M  V30 18 C -3.333290 -2.959365 1.475892 0
M  V30 19 C -4.541889 -2.846000 2.321076 0
M  V30 20 O -5.335901 -1.755779 2.135659 0
M  V30 21 C -4.873373 -0.667417 1.492842 0
M  V30 22 C -3.371060 -0.500051 1.430781 0
M  V30 23 C -2.126202 -2.521458 -1.428702 0
M  V30 24 C -1.297312 -2.319128 -2.509279 0
M  V30 25 O -1.372226 -3.117613 -3.472837 0
M  V30 26 N -0.419073 -1.300663 -2.560888 0
M  V30 27 C 0.458324 -1.038875 -3.681574 0
M  V30 28 H 0.810491 -0.951033 1.881868 0
M  V30 29 H 1.153842 -0.116741 3.425653 0
M  V30 30 H -0.377781 0.167425 2.587243 0
M  V30 31 H 0.560005 1.856349 1.249200 0
M  V30 32 H 1.948915 1.961490 3.596471 0
M  V30 33 H 2.520824 2.862083 2.108339 0
M  V30 34 H 4.586046 1.594884 4.224601 0
M  V30 35 H 6.440842 0.080940 3.713611 0
M  V30 36 H 6.388968 -1.313743 1.673233 0
M  V30 37 H 4.405398 -1.186341 0.109052 0
M  V30 38 H 0.060191 1.417526 -0.646901 0
M  V30 39 H 0.688054 1.223232 -2.281518 0
M  V30 40 H -3.386657 -3.760522 0.693058 0
M  V30 41 H -2.443781 -3.265605 2.112013 0
M  V30 42 H -5.160687 -3.757289 2.188325 0
M  V30 43 H -4.255217 -2.852471 3.416209 0
M  V30 44 H -5.225875 -0.731169 0.417912 0
M  V30 45 H -5.337942 0.271045 1.867462 0
M  V30 46 H -2.905217 -0.353386 2.411360 0
M  V30 47 H -3.176592 0.370323 0.761492 0
M  V30 48 H -2.851876 -3.341251 -1.361632 0
M  V30 49 H 0.084275 -1.582322 -4.593255 0
M  V30 50 H 1.448551 -1.463370 -3.491114 0
M  V30 51 H 0.444925 0.043851 -3.924856 0
M  V30 END ATOM
M  V30 BEGIN BOND
M  V30 1 1 1 2
M  V30 2 1 2 3
M  V30 3 1 3 4
M  V30 4 2 4 5
M  V30 5 1 5 6
M  V30 6 2 6 7
M  V30 7 1 7 8
M  V30 8 2 8 9
M  V30 9 1 9 10
M  V30 10 1 10 11
M  V30 11 2 11 12
M  V30 12 1 11 13
M  V30 13 1 13 14
M  V30 14 2 14 15
M  V30 15 1 15 16
M  V30 16 1 16 17
M  V30 17 1 17 18
M  V30 18 1 18 19
M  V30 19 1 19 20
M  V30 20 1 20 21
M  V30 21 1 21 22
M  V30 22 2 16 23
M  V30 23 1 23 24
M  V30 24 2 24 25
M  V30 25 1 24 26
M  V30 26 1 26 27
M  V30 27 1 10 2
M  V30 28 1 26 14
M  V30 29 1 9 4
M  V30 30 1 22 17
M  V30 31 1 1 28
M  V30 32 1 1 29
M  V30 33 1 1 30
M  V30 34 1 2 31
M  V30 35 1 3 32
M  V30 36 1 3 33
M  V30 37 1 5 34
M  V30 38 1 6 35
M  V30 39 1 7 36
M  V30 40 1 8 37
M  V30 41 1 13 38
M  V30 42 1 13 39
M  V30 43 1 18 40
M  V30 44 1 18 41
M  V30 45 1 19 42
M  V30 46 1 19 43
M  V30 47 1 21 44
M  V30 48 1 21 45
M  V30 49 1 22 46
M  V30 50 1 22 47
M  V30 51 1 23 48
M  V30 52 1 27 49
M  V30 53 1 27 50
M  V30 54 1 27 51
M  V30 END BOND
M  V30 END CTAB
M  END
>  <Dataset>  (399) 
ChEMBL_Kinases

>  <Ligand_Instance>  (399) 
nan

>  <PDB_ID>  (399) 
nan

>  <Standardized_SMILES>  (399) 
CC1Cc2ccccc2N1C(=O)Cc1nc(N2CCOCC2)cc(=O)n1C

>  <Name>  (399) 
nan

>  <Pocket>  (399) 
nan

>  <ATP_Site>  (399) 
nan

>  <Peripheral>  (399) 
nan

>  <Num_H_Atoms_ProtBoundConf>  (399) 
nan

>  <Num_Resolved_Atoms>  (399) 
nan

>  <Num_Not_Resolved_Atoms>  (399) 
nan

$$$$
CHEMBL3699785
     RDKit          3D

  0  0  0  0  0  0  0  0  0  0999 V3000
M  V30 BEGIN CTAB
M  V30 COUNTS 49 52 0 0 0
M  V30 BEGIN ATOM
M  V30 1 N 2.100825 1.419310 3.641838 0
M  V30 2 C 1.545862 1.759383 2.386160 0
M  V30 3 O 0.858626 2.826444 2.271810 0
M  V30 4 C 1.593506 1.100242 1.092634 0
M  V30 5 C 2.298072 1.973865 0.077109 0
M  V30 6 C 3.572268 1.240842 -0.166768 0
M  V30 7 C 4.721691 1.558511 -0.857884 0
M  V30 8 C 5.828913 0.757767 -0.993207 0
M  V30 9 C 5.790022 -0.484881 -0.380796 0
M  V30 10 C 4.652323 -0.864181 0.332273 0
M  V30 11 C 3.574165 0.015373 0.417454 0
M  V30 12 N 2.344411 -0.160496 1.086896 0
M  V30 13 C 1.831634 -1.342349 1.659986 0
M  V30 14 O 2.517218 -2.409573 1.488017 0
M  V30 15 C 0.639509 -1.615875 2.435998 0
M  V30 16 C -0.397028 -2.441234 1.808647 0
M  V30 17 N -1.423089 -1.816716 1.216540 0
M  V30 18 C -2.457628 -2.404905 0.604730 0
M  V30 19 N -3.466833 -1.587303 0.029398 0
M  V30 20 C -3.376065 -0.141569 0.097806 0
M  V30 21 C -4.731834 0.453884 0.496355 0
M  V30 22 O -5.762804 -0.008675 -0.307026 0
M  V30 23 C -5.347413 -0.929653 -1.275631 0
M  V30 24 C -4.635040 -2.119258 -0.642168 0
M  V30 25 C -2.500497 -3.781063 0.563164 0
M  V30 26 C -1.449904 -4.467771 1.169355 0
M  V30 27 O -1.446983 -5.725426 1.156393 0
M  V30 28 N -0.443309 -3.810076 1.765776 0
M  V30 29 H 2.688214 1.132699 4.435567 0
M  V30 30 H 1.387567 1.528971 4.426455 0
M  V30 31 H 0.608941 0.852391 0.631788 0
M  V30 32 H 1.770543 2.032149 -0.895502 0
M  V30 33 H 2.436221 3.006159 0.425532 0
M  V30 34 H 4.793662 2.530476 -1.356937 0
M  V30 35 H 6.722184 1.014008 -1.535074 0
M  V30 36 H 6.630143 -1.137165 -0.463970 0
M  V30 37 H 4.670738 -1.835397 0.786169 0
M  V30 38 H 0.188916 -0.635361 2.755547 0
M  V30 39 H 0.981707 -2.072987 3.420703 0
M  V30 40 H -2.974478 0.308753 -0.811673 0
M  V30 41 H -2.715024 0.086873 0.982933 0
M  V30 42 H -4.598364 1.553276 0.466084 0
M  V30 43 H -4.903343 0.106415 1.548098 0
M  V30 44 H -6.247097 -1.233837 -1.834757 0
M  V30 45 H -4.588828 -0.397550 -1.895735 0
M  V30 46 H -5.326796 -2.545204 0.118913 0
M  V30 47 H -4.392753 -2.836736 -1.440730 0
M  V30 48 H -3.329728 -4.269041 0.071730 0
M  V30 49 H 0.359856 -4.290963 2.235597 0
M  V30 END ATOM
M  V30 BEGIN BOND
M  V30 1 1 1 2
M  V30 2 2 2 3
M  V30 3 1 2 4
M  V30 4 1 4 5
M  V30 5 1 5 6
M  V30 6 2 6 7
M  V30 7 1 7 8
M  V30 8 2 8 9
M  V30 9 1 9 10
M  V30 10 2 10 11
M  V30 11 1 11 12
M  V30 12 1 12 13
M  V30 13 2 13 14
M  V30 14 1 13 15
M  V30 15 1 15 16
M  V30 16 2 16 17
M  V30 17 1 17 18
M  V30 18 1 18 19
M  V30 19 1 19 20
M  V30 20 1 20 21
M  V30 21 1 21 22
M  V30 22 1 22 23
M  V30 23 1 23 24
M  V30 24 2 18 25
M  V30 25 1 25 26
M  V30 26 2 26 27
M  V30 27 1 26 28
M  V30 28 1 12 4
M  V30 29 1 28 16
M  V30 30 1 11 6
M  V30 31 1 24 19
M  V30 32 1 1 29
M  V30 33 1 1 30
M  V30 34 1 4 31
M  V30 35 1 5 32
M  V30 36 1 5 33
M  V30 37 1 7 34
M  V30 38 1 8 35
M  V30 39 1 9 36
M  V30 40 1 10 37
M  V30 41 1 15 38
M  V30 42 1 15 39
M  V30 43 1 20 40
M  V30 44 1 20 41
M  V30 45 1 21 42
M  V30 46 1 21 43
M  V30 47 1 23 44
M  V30 48 1 23 45
M  V30 49 1 24 46
M  V30 50 1 24 47
M  V30 51 1 25 48
M  V30 52 1 28 49
M  V30 END BOND
M  V30 END CTAB
M  END
>  <Dataset>  (400) 
ChEMBL_Kinases

>  <Ligand_Instance>  (400) 
nan

>  <PDB_ID>  (400) 
nan

>  <Standardized_SMILES>  (400) 
NC(=O)C1Cc2ccccc2N1C(=O)Cc1nc(N2CCOCC2)cc(=O)[nH]1

>  <Name>  (400) 
nan

>  <Pocket>  (400) 
nan

>  <ATP_Site>  (400) 
nan

>  <Peripheral>  (400) 
nan

>  <Num_H_Atoms_ProtBoundConf>  (400) 
nan

>  <Num_Resolved_Atoms>  (400) 
nan

>  <Num_Not_Resolved_Atoms>  (400) 
nan

$$$$
CHEMBL3699784
     RDKit          3D

  0  0  0  0  0  0  0  0  0  0999 V3000
M  V30 BEGIN CTAB
M  V30 COUNTS 52 55 0 0 0
M  V30 BEGIN ATOM
M  V30 1 C 1.790850 2.306745 8.518496 0
M  V30 2 C 2.391517 1.897541 7.204644 0
M  V30 3 O 1.406951 1.434141 6.274212 0
M  V30 4 C 1.778323 1.019705 5.000427 0
M  V30 5 C 3.112855 1.038078 4.580921 0
M  V30 6 C 3.466588 0.621391 3.304761 0
M  V30 7 C 2.496639 0.183212 2.433375 0
M  V30 8 C 1.203290 0.184285 2.892801 0
M  V30 9 C 0.765240 0.578313 4.138032 0
M  V30 10 C -0.695964 0.417177 4.223185 0
M  V30 11 C -1.119071 0.369995 2.754447 0
M  V30 12 N 0.052947 -0.235721 2.126009 0
M  V30 13 C -0.131549 -1.033574 0.977271 0
M  V30 14 O -1.221497 -1.371948 0.425184 0
M  V30 15 C 0.800017 -1.706211 0.077100 0
M  V30 16 C 0.101734 -2.483561 -0.988571 0
M  V30 17 N -0.328348 -1.896423 -2.118994 0
M  V30 18 C -0.953986 -2.607311 -3.088156 0
M  V30 19 N -1.419693 -1.981741 -4.273934 0
M  V30 20 C -1.315407 -0.571391 -4.576466 0
M  V30 21 C -2.684145 0.064883 -4.727723 0
M  V30 22 O -3.564912 -0.808636 -5.382406 0
M  V30 23 C -2.865409 -1.731027 -6.162807 0
M  V30 24 C -2.069535 -2.719714 -5.329717 0
M  V30 25 C -1.158608 -3.961763 -2.922723 0
M  V30 26 C -0.722018 -4.584773 -1.763173 0
M  V30 27 O -0.885831 -5.828174 -1.560896 0
M  V30 28 N -0.105266 -3.804315 -0.841351 0
M  V30 29 H 1.801016 1.500232 9.273024 0
M  V30 30 H 0.734956 2.644699 8.306724 0
M  V30 31 H 2.312508 3.165103 8.965783 0
M  V30 32 H 3.021826 2.674473 6.777240 0
M  V30 33 H 3.063350 1.020156 7.437198 0
M  V30 34 H 3.801588 1.405721 5.350187 0
M  V30 35 H 4.513269 0.661460 3.048003 0
M  V30 36 H 2.777537 -0.141028 1.443652 0
M  V30 37 H -1.179209 1.283781 4.740368 0
M  V30 38 H -0.917533 -0.555399 4.699968 0
M  V30 39 H -1.107942 1.432073 2.419604 0
M  V30 40 H -2.050740 -0.159754 2.580841 0
M  V30 41 H 1.493066 -0.953346 -0.394573 0
M  V30 42 H 1.422758 -2.423850 0.641197 0
M  V30 43 H -0.725786 -0.449726 -5.507446 0
M  V30 44 H -0.767645 -0.015549 -3.777523 0
M  V30 45 H -2.556884 1.000863 -5.321217 0
M  V30 46 H -3.131463 0.318452 -3.749143 0
M  V30 47 H -2.182491 -1.198959 -6.872621 0
M  V30 48 H -3.621771 -2.311918 -6.736728 0
M  V30 49 H -1.282213 -3.137046 -5.989795 0
M  V30 50 H -2.747059 -3.508640 -4.937854 0
M  V30 51 H -1.643227 -4.612418 -3.637067 0
M  V30 52 H 0.210715 -4.325106 0.029918 0
M  V30 END ATOM
M  V30 BEGIN BOND
M  V30 1 1 1 2
M  V30 2 1 2 3
M  V30 3 1 3 4
M  V30 4 2 4 5
M  V30 5 1 5 6
M  V30 6 2 6 7
M  V30 7 1 7 8
M  V30 8 2 8 9
M  V30 9 1 9 10
M  V30 10 1 10 11
M  V30 11 1 11 12
M  V30 12 1 12 13
M  V30 13 2 13 14
M  V30 14 1 13 15
M  V30 15 1 15 16
M  V30 16 2 16 17
M  V30 17 1 17 18
M  V30 18 1 18 19
M  V30 19 1 19 20
M  V30 20 1 20 21
M  V30 21 1 21 22
M  V30 22 1 22 23
M  V30 23 1 23 24
M  V30 24 2 18 25
M  V30 25 1 25 26
M  V30 26 2 26 27
M  V30 27 1 26 28
M  V30 28 1 9 4
M  V30 29 1 28 16
M  V30 30 1 12 8
M  V30 31 1 24 19
M  V30 32 1 1 29
M  V30 33 1 1 30
M  V30 34 1 1 31
M  V30 35 1 2 32
M  V30 36 1 2 33
M  V30 37 1 5 34
M  V30 38 1 6 35
M  V30 39 1 7 36
M  V30 40 1 10 37
M  V30 41 1 10 38
M  V30 42 1 11 39
M  V30 43 1 11 40
M  V30 44 1 15 41
M  V30 45 1 15 42
M  V30 46 1 20 43
M  V30 47 1 20 44
M  V30 48 1 21 45
M  V30 49 1 21 46
M  V30 50 1 23 47
M  V30 51 1 23 48
M  V30 52 1 24 49
M  V30 53 1 24 50
M  V30 54 1 25 51
M  V30 55 1 28 52
M  V30 END BOND
M  V30 END CTAB
M  END
>  <Dataset>  (401) 
ChEMBL_Kinases

>  <Ligand_Instance>  (401) 
nan

>  <PDB_ID>  (401) 
nan

>  <Standardized_SMILES>  (401) 
CCOc1cccc2c1CCN2C(=O)Cc1nc(N2CCOCC2)cc(=O)[nH]1

>  <Name>  (401) 
nan

>  <Pocket>  (401) 
nan

>  <ATP_Site>  (401) 
nan

>  <Peripheral>  (401) 
nan

>  <Num_H_Atoms_ProtBoundConf>  (401) 
nan

>  <Num_Resolved_Atoms>  (401) 
nan

>  <Num_Not_Resolved_Atoms>  (401) 
nan

$$$$
CHEMBL3699783
     RDKit          3D

  0  0  0  0  0  0  0  0  0  0999 V3000
M  V30 BEGIN CTAB
M  V30 COUNTS 52 55 0 0 0
M  V30 BEGIN ATOM
M  V30 1 C -0.969862 1.740682 1.094229 0
M  V30 2 O 0.304155 2.181055 1.072063 0
M  V30 3 C 1.222894 1.612271 0.261302 0
M  V30 4 C 1.449810 0.123269 0.457248 0
M  V30 5 C 2.893392 -0.191098 -0.069973 0
M  V30 6 C 3.627490 0.814542 0.801342 0
M  V30 7 C 4.725942 1.646292 0.730828 0
M  V30 8 C 5.063460 2.436960 1.818147 0
M  V30 9 C 4.364915 2.457884 3.007046 0
M  V30 10 C 3.240692 1.637829 3.134996 0
M  V30 11 C 2.914176 0.840043 2.012606 0
M  V30 12 N 1.783215 -0.040067 1.893646 0
M  V30 13 C 1.169601 -0.850830 2.902796 0
M  V30 14 O 1.814679 -0.722688 4.026469 0
M  V30 15 C 0.059572 -1.752841 3.033550 0
M  V30 16 C -0.393894 -2.474545 1.805597 0
M  V30 17 N -1.315220 -2.020172 0.927942 0
M  V30 18 C -1.644601 -2.778434 -0.119562 0
M  V30 19 N -2.585839 -2.322892 -1.053351 0
M  V30 20 C -2.968771 -0.925221 -0.957124 0
M  V30 21 C -4.408729 -0.868333 -0.530530 0
M  V30 22 O -5.050748 -2.062859 -0.876449 0
M  V30 23 C -4.686297 -2.494441 -2.150243 0
M  V30 24 C -3.244341 -3.009399 -2.112887 0
M  V30 25 C -1.085742 -4.022752 -0.354390 0
M  V30 26 C -0.145552 -4.497605 0.532816 0
M  V30 27 O 0.410140 -5.617896 0.389291 0
M  V30 28 N 0.152126 -3.699226 1.567664 0
M  V30 29 H -1.515523 2.372648 1.869573 0
M  V30 30 H -1.115554 0.703844 1.474295 0
M  V30 31 H -1.558254 1.918729 0.149151 0
M  V30 32 H 2.190907 2.121353 0.442631 0
M  V30 33 H 1.023342 1.818803 -0.841397 0
M  V30 34 H 0.743932 -0.538665 0.050820 0
M  V30 35 H 3.153413 -1.175505 0.281153 0
M  V30 36 H 2.982645 0.026768 -1.126902 0
M  V30 37 H 5.255534 1.617439 -0.205861 0
M  V30 38 H 5.928872 3.077945 1.723224 0
M  V30 39 H 4.621083 3.058209 3.866510 0
M  V30 40 H 2.661569 1.615188 4.038216 0
M  V30 41 H -0.836117 -1.267091 3.465930 0
M  V30 42 H 0.323985 -2.535416 3.821782 0
M  V30 43 H -2.277043 -0.337779 -0.343304 0
M  V30 44 H -2.915968 -0.475419 -1.994802 0
M  V30 45 H -4.470186 -0.783441 0.573440 0
M  V30 46 H -4.955005 -0.051670 -1.048001 0
M  V30 47 H -4.720129 -1.554668 -2.784194 0
M  V30 48 H -5.406914 -3.223053 -2.513908 0
M  V30 49 H -3.182690 -4.083026 -2.112025 0
M  V30 50 H -2.750443 -2.668801 -3.068477 0
M  V30 51 H -1.376135 -4.611720 -1.217378 0
M  V30 52 H 0.862358 -4.060740 2.238143 0
M  V30 END ATOM
M  V30 BEGIN BOND
M  V30 1 1 1 2
M  V30 2 1 2 3
M  V30 3 1 3 4
M  V30 4 1 4 5
M  V30 5 1 5 6
M  V30 6 2 6 7
M  V30 7 1 7 8
M  V30 8 2 8 9
M  V30 9 1 9 10
M  V30 10 2 10 11
M  V30 11 1 11 12
M  V30 12 1 12 13
M  V30 13 2 13 14
M  V30 14 1 13 15
M  V30 15 1 15 16
M  V30 16 2 16 17
M  V30 17 1 17 18
M  V30 18 1 18 19
M  V30 19 1 19 20
M  V30 20 1 20 21
M  V30 21 1 21 22
M  V30 22 1 22 23
M  V30 23 1 23 24
M  V30 24 2 18 25
M  V30 25 1 25 26
M  V30 26 2 26 27
M  V30 27 1 26 28
M  V30 28 1 12 4
M  V30 29 1 28 16
M  V30 30 1 11 6
M  V30 31 1 24 19
M  V30 32 1 1 29
M  V30 33 1 1 30
M  V30 34 1 1 31
M  V30 35 1 3 32
M  V30 36 1 3 33
M  V30 37 1 4 34
M  V30 38 1 5 35
M  V30 39 1 5 36
M  V30 40 1 7 37
M  V30 41 1 8 38
M  V30 42 1 9 39
M  V30 43 1 10 40
M  V30 44 1 15 41
M  V30 45 1 15 42
M  V30 46 1 20 43
M  V30 47 1 20 44
M  V30 48 1 21 45
M  V30 49 1 21 46
M  V30 50 1 23 47
M  V30 51 1 23 48
M  V30 52 1 24 49
M  V30 53 1 24 50
M  V30 54 1 25 51
M  V30 55 1 28 52
M  V30 END BOND
M  V30 END CTAB
M  END
>  <Dataset>  (402) 
ChEMBL_Kinases

>  <Ligand_Instance>  (402) 
nan

>  <PDB_ID>  (402) 
nan

>  <Standardized_SMILES>  (402) 
COCC1Cc2ccccc2N1C(=O)Cc1nc(N2CCOCC2)cc(=O)[nH]1

>  <Name>  (402) 
nan

>  <Pocket>  (402) 
nan

>  <ATP_Site>  (402) 
nan

>  <Peripheral>  (402) 
nan

>  <Num_H_Atoms_ProtBoundConf>  (402) 
nan

>  <Num_Resolved_Atoms>  (402) 
nan

>  <Num_Not_Resolved_Atoms>  (402) 
nan

$$$$
CHEMBL3699782
     RDKit          3D

  0  0  0  0  0  0  0  0  0  0999 V3000
M  V30 BEGIN CTAB
M  V30 COUNTS 51 54 0 0 0
M  V30 BEGIN ATOM
M  V30 1 C -2.690013 -4.927330 1.943545 0
M  V30 2 C -1.203354 -5.100725 1.674507 0
M  V30 3 C -0.514133 -3.784635 1.983688 0
M  V30 4 N -0.540195 -3.095133 0.702635 0
M  V30 5 C -0.525304 -1.679869 0.709068 0
M  V30 6 O -0.496299 -0.899809 1.687977 0
M  V30 7 C -0.538526 -0.696877 -0.392741 0
M  V30 8 C -0.519842 0.700538 0.121617 0
M  V30 9 N 0.661273 1.308834 0.332665 0
M  V30 10 C 0.771067 2.569125 0.795701 0
M  V30 11 N 2.014255 3.222819 1.022211 0
M  V30 12 C 2.123401 4.574362 1.535347 0
M  V30 13 C 3.454772 4.839539 2.174273 0
M  V30 14 O 4.501360 4.101647 1.679376 0
M  V30 15 C 4.246774 2.738084 1.794625 0
M  V30 16 C 3.214943 2.437452 0.700441 0
M  V30 17 C -0.448113 3.170818 1.030721 0
M  V30 18 C -1.672984 2.569112 0.822598 0
M  V30 19 O -2.773463 3.117421 1.036723 0
M  V30 20 N -1.695771 1.309708 0.358980 0
M  V30 21 C -2.923983 0.584028 0.105364 0
M  V30 22 C -0.576318 -4.089507 -0.318919 0
M  V30 23 C -0.271107 -3.892994 -1.649006 0
M  V30 24 C -0.377592 -5.014769 -2.463437 0
M  V30 25 C -0.766154 -6.243734 -1.958339 0
M  V30 26 C -1.061619 -6.390302 -0.618062 0
M  V30 27 C -0.966568 -5.296858 0.220627 0
M  V30 28 H -2.836611 -5.049091 3.037276 0
M  V30 29 H -2.958620 -3.899699 1.620455 0
M  V30 30 H -3.303620 -5.715252 1.439184 0
M  V30 31 H -0.795753 -5.935977 2.244956 0
M  V30 32 H 0.553826 -3.955616 2.262347 0
M  V30 33 H -0.988966 -3.245300 2.800676 0
M  V30 34 H 0.387248 -0.810226 -1.020776 0
M  V30 35 H -1.399247 -0.882085 -1.033716 0
M  V30 36 H 1.971456 5.254290 0.670016 0
M  V30 37 H 1.274655 4.743821 2.229354 0
M  V30 38 H 3.340981 4.515243 3.250254 0
M  V30 39 H 3.629066 5.914837 2.208346 0
M  V30 40 H 3.790150 2.468176 2.767680 0
M  V30 41 H 5.176809 2.185732 1.593330 0
M  V30 42 H 3.016743 1.357444 0.746725 0
M  V30 43 H 3.632564 2.772108 -0.257748 0
M  V30 44 H -0.496449 4.179587 1.402301 0
M  V30 45 H -3.053309 0.343732 -0.967928 0
M  V30 46 H -2.993370 -0.376853 0.660754 0
M  V30 47 H -3.803677 1.175532 0.437256 0
M  V30 48 H 0.030205 -2.941182 -2.043396 0
M  V30 49 H -0.149015 -4.918460 -3.521087 0
M  V30 50 H -0.833065 -7.084264 -2.634791 0
M  V30 51 H -1.370807 -7.354151 -0.198990 0
M  V30 END ATOM
M  V30 BEGIN BOND
M  V30 1 1 1 2
M  V30 2 1 2 3
M  V30 3 1 3 4
M  V30 4 1 4 5
M  V30 5 2 5 6
M  V30 6 1 5 7
M  V30 7 1 7 8
M  V30 8 2 8 9
M  V30 9 1 9 10
M  V30 10 1 10 11
M  V30 11 1 11 12
M  V30 12 1 12 13
M  V30 13 1 13 14
M  V30 14 1 14 15
M  V30 15 1 15 16
M  V30 16 2 10 17
M  V30 17 1 17 18
M  V30 18 2 18 19
M  V30 19 1 18 20
M  V30 20 1 20 21
M  V30 21 1 4 22
M  V30 22 2 22 23
M  V30 23 1 23 24
M  V30 24 2 24 25
M  V30 25 1 25 26
M  V30 26 2 26 27
M  V30 27 1 27 2
M  V30 28 1 20 8
M  V30 29 1 27 22
M  V30 30 1 16 11
M  V30 31 1 1 28
M  V30 32 1 1 29
M  V30 33 1 1 30
M  V30 34 1 2 31
M  V30 35 1 3 32
M  V30 36 1 3 33
M  V30 37 1 7 34
M  V30 38 1 7 35
M  V30 39 1 12 36
M  V30 40 1 12 37
M  V30 41 1 13 38
M  V30 42 1 13 39
M  V30 43 1 15 40
M  V30 44 1 15 41
M  V30 45 1 16 42
M  V30 46 1 16 43
M  V30 47 1 17 44
M  V30 48 1 21 45
M  V30 49 1 21 46
M  V30 50 1 21 47
M  V30 51 1 23 48
M  V30 52 1 24 49
M  V30 53 1 25 50
M  V30 54 1 26 51
M  V30 END BOND
M  V30 END CTAB
M  END
>  <Dataset>  (403) 
ChEMBL_Kinases

>  <Ligand_Instance>  (403) 
nan

>  <PDB_ID>  (403) 
nan

>  <Standardized_SMILES>  (403) 
CC1CN(C(=O)Cc2nc(N3CCOCC3)cc(=O)n2C)c2ccccc21

>  <Name>  (403) 
nan

>  <Pocket>  (403) 
nan

>  <ATP_Site>  (403) 
nan

>  <Peripheral>  (403) 
nan

>  <Num_H_Atoms_ProtBoundConf>  (403) 
nan

>  <Num_Resolved_Atoms>  (403) 
nan

>  <Num_Not_Resolved_Atoms>  (403) 
nan

$$$$
CHEMBL3699781
     RDKit          3D

  0  0  0  0  0  0  0  0  0  0999 V3000
M  V30 BEGIN CTAB
M  V30 COUNTS 48 51 0 0 0
M  V30 BEGIN ATOM
M  V30 1 C 1.574989 -3.231950 2.259019 0
M  V30 2 N 0.261097 -2.930837 1.815069 0
M  V30 3 C -0.053988 -1.670813 1.530410 0
M  V30 4 C 0.872663 -0.547415 1.643321 0
M  V30 5 C 1.617754 -0.324209 0.379130 0
M  V30 6 O 1.075650 -1.278188 -0.240126 0
M  V30 7 N 2.594763 0.595218 -0.061075 0
M  V30 8 C 3.077641 0.461454 -1.422526 0
M  V30 9 C 3.502409 1.860300 -1.837903 0
M  V30 10 C 3.824769 2.452694 -0.514163 0
M  V30 11 C 4.522352 3.556710 -0.090738 0
M  V30 12 Br 5.339822 4.716524 -1.389250 0
M  V30 13 C 4.677675 3.894384 1.235097 0
M  V30 14 C 4.111588 3.097190 2.214647 0
M  V30 15 C 3.395470 1.969212 1.852445 0
M  V30 16 C 3.285269 1.699245 0.505675 0
M  V30 17 N -1.335265 -1.454961 1.109158 0
M  V30 18 C -2.219959 -2.434527 0.987612 0
M  V30 19 N -3.522972 -2.080029 0.539116 0
M  V30 20 C -3.815144 -0.689694 0.241861 0
M  V30 21 C -4.891263 -0.284977 1.227829 0
M  V30 22 O -5.941135 -1.167583 1.202239 0
M  V30 23 C -5.879538 -2.155468 0.253827 0
M  V30 24 C -4.616927 -3.013659 0.347460 0
M  V30 25 C -1.893249 -3.738694 1.282421 0
M  V30 26 C -0.607729 -3.960107 1.705795 0
M  V30 27 O -0.299052 -5.162406 1.979841 0
M  V30 28 H 1.892035 -4.183487 1.777663 0
M  V30 29 H 2.372076 -2.520382 2.093933 0
M  V30 30 H 1.538720 -3.469226 3.354137 0
M  V30 31 H 1.605979 -0.608407 2.452588 0
M  V30 32 H 0.270056 0.369016 1.818890 0
M  V30 33 H 2.272898 0.179709 -2.129025 0
M  V30 34 H 3.915381 -0.249481 -1.523999 0
M  V30 35 H 4.464955 1.792615 -2.379745 0
M  V30 36 H 2.749292 2.408878 -2.403891 0
M  V30 37 H 5.231572 4.766836 1.515325 0
M  V30 38 H 4.252935 3.391272 3.243344 0
M  V30 39 H 2.952819 1.346627 2.616282 0
M  V30 40 H -2.933410 -0.041111 0.366014 0
M  V30 41 H -4.215295 -0.611676 -0.796780 0
M  V30 42 H -5.171436 0.782624 1.114029 0
M  V30 43 H -4.407065 -0.412950 2.240366 0
M  V30 44 H -6.782067 -2.786947 0.386590 0
M  V30 45 H -5.979664 -1.717219 -0.766951 0
M  V30 46 H -4.546592 -3.556337 -0.620067 0
M  V30 47 H -4.770124 -3.698471 1.201786 0
M  V30 48 H -2.626728 -4.526511 1.178046 0
M  V30 END ATOM
M  V30 BEGIN BOND
M  V30 1 1 1 2
M  V30 2 1 2 3
M  V30 3 1 3 4
M  V30 4 1 4 5
M  V30 5 2 5 6
M  V30 6 1 5 7
M  V30 7 1 7 8
M  V30 8 1 8 9
M  V30 9 1 9 10
M  V30 10 2 10 11
M  V30 11 1 11 12
M  V30 12 1 11 13
M  V30 13 2 13 14
M  V30 14 1 14 15
M  V30 15 2 15 16
M  V30 16 2 3 17
M  V30 17 1 17 18
M  V30 18 1 18 19
M  V30 19 1 19 20
M  V30 20 1 20 21
M  V30 21 1 21 22
M  V30 22 1 22 23
M  V30 23 1 23 24
M  V30 24 2 18 25
M  V30 25 1 25 26
M  V30 26 2 26 27
M  V30 27 1 26 2
M  V30 28 1 16 7
M  V30 29 1 24 19
M  V30 30 1 16 10
M  V30 31 1 1 28
M  V30 32 1 1 29
M  V30 33 1 1 30
M  V30 34 1 4 31
M  V30 35 1 4 32
M  V30 36 1 8 33
M  V30 37 1 8 34
M  V30 38 1 9 35
M  V30 39 1 9 36
M  V30 40 1 13 37
M  V30 41 1 14 38
M  V30 42 1 15 39
M  V30 43 1 20 40
M  V30 44 1 20 41
M  V30 45 1 21 42
M  V30 46 1 21 43
M  V30 47 1 23 44
M  V30 48 1 23 45
M  V30 49 1 24 46
M  V30 50 1 24 47
M  V30 51 1 25 48
M  V30 END BOND
M  V30 END CTAB
M  END
>  <Dataset>  (404) 
ChEMBL_Kinases

>  <Ligand_Instance>  (404) 
nan

>  <PDB_ID>  (404) 
nan

>  <Standardized_SMILES>  (404) 
Cn1c(CC(=O)N2CCc3c(Br)cccc32)nc(N2CCOCC2)cc1=O

>  <Name>  (404) 
nan

>  <Pocket>  (404) 
nan

>  <ATP_Site>  (404) 
nan

>  <Peripheral>  (404) 
nan

>  <Num_H_Atoms_ProtBoundConf>  (404) 
nan

>  <Num_Resolved_Atoms>  (404) 
nan

>  <Num_Not_Resolved_Atoms>  (404) 
nan

$$$$
CHEMBL3699780
     RDKit          3D

  0  0  0  0  0  0  0  0  0  0999 V3000
M  V30 BEGIN CTAB
M  V30 COUNTS 56 59 0 0 0
M  V30 BEGIN ATOM
M  V30 1 C 0.746967 -4.291811 3.801133 0
M  V30 2 N 1.142461 -3.482120 2.617186 0
M  V30 3 C 0.427997 -2.216718 2.861869 0
M  V30 4 C 2.549206 -3.332655 2.714169 0
M  V30 5 C 3.277903 -2.662374 1.620539 0
M  V30 6 C 2.956090 -1.269515 1.276717 0
M  V30 7 N 2.201067 -1.289256 0.018065 0
M  V30 8 C 1.359113 -0.254170 -0.407969 0
M  V30 9 O 1.178965 0.789049 0.277583 0
M  V30 10 C 0.562354 -0.132287 -1.621995 0
M  V30 11 C -0.147192 1.192698 -1.530253 0
M  V30 12 N -1.366644 1.150353 -0.950097 0
M  V30 13 C -2.131179 2.234688 -0.785584 0
M  V30 14 N -3.404835 2.111164 -0.168038 0
M  V30 15 C -4.317179 3.197503 0.133450 0
M  V30 16 C -5.072682 2.735935 1.388719 0
M  V30 17 O -5.952759 1.701845 1.087695 0
M  V30 18 C -5.452930 0.807457 0.156334 0
M  V30 19 C -3.938136 0.823963 0.235362 0
M  V30 20 C -1.691188 3.468509 -1.213594 0
M  V30 21 C -0.444438 3.484529 -1.801963 0
M  V30 22 O 0.040547 4.571975 -2.224915 0
M  V30 23 N 0.316662 2.388055 -1.962594 0
M  V30 24 C 2.536016 -2.529541 -0.583447 0
M  V30 25 C 2.328421 -2.987900 -1.867618 0
M  V30 26 C 2.765723 -4.262740 -2.188418 0
M  V30 27 C 3.399004 -5.093599 -1.281549 0
M  V30 28 C 3.614400 -4.642625 0.018268 0
M  V30 29 C 3.172401 -3.373297 0.316645 0
M  V30 30 H -0.321327 -4.052832 4.070402 0
M  V30 31 H 0.855735 -5.361641 3.623223 0
M  V30 32 H 1.373967 -3.912578 4.632426 0
M  V30 33 H 0.216031 -1.704521 1.908746 0
M  V30 34 H 0.932342 -1.599532 3.625812 0
M  V30 35 H -0.580764 -2.439386 3.299848 0
M  V30 36 H 3.022180 -4.331886 2.911148 0
M  V30 37 H 2.747620 -2.734514 3.654876 0
M  V30 38 H 4.383094 -2.699282 1.880337 0
M  V30 39 H 2.355092 -0.688378 1.992952 0
M  V30 40 H 3.892157 -0.682779 1.011382 0
M  V30 41 H 1.228602 -0.038408 -2.506600 0
M  V30 42 H -0.113746 -0.951528 -1.832335 0
M  V30 43 H -3.762029 4.106079 0.477481 0
M  V30 44 H -4.994702 3.450055 -0.685374 0
M  V30 45 H -4.305832 2.405839 2.128500 0
M  V30 46 H -5.637028 3.571414 1.798870 0
M  V30 47 H -5.773479 -0.240730 0.308959 0
M  V30 48 H -5.691743 1.142460 -0.894958 0
M  V30 49 H -3.629027 0.655253 1.286397 0
M  V30 50 H -3.493755 0.025812 -0.394772 0
M  V30 51 H -2.257832 4.376275 -1.110117 0
M  V30 52 H 1.262467 2.355503 -2.400625 0
M  V30 53 H 1.835697 -2.353728 -2.588015 0
M  V30 54 H 2.587845 -4.590591 -3.202185 0
M  V30 55 H 3.732731 -6.084450 -1.551681 0
M  V30 56 H 4.103073 -5.264904 0.742446 0
M  V30 END ATOM
M  V30 BEGIN BOND
M  V30 1 1 1 2
M  V30 2 1 2 3
M  V30 3 1 2 4
M  V30 4 1 4 5
M  V30 5 1 5 6
M  V30 6 1 6 7
M  V30 7 1 7 8
M  V30 8 2 8 9
M  V30 9 1 8 10
M  V30 10 1 10 11
M  V30 11 2 11 12
M  V30 12 1 12 13
M  V30 13 1 13 14
M  V30 14 1 14 15
M  V30 15 1 15 16
M  V30 16 1 16 17
M  V30 17 1 17 18
M  V30 18 1 18 19
M  V30 19 2 13 20
M  V30 20 1 20 21
M  V30 21 2 21 22
M  V30 22 1 21 23
M  V30 23 1 7 24
M  V30 24 2 24 25
M  V30 25 1 25 26
M  V30 26 2 26 27
M  V30 27 1 27 28
M  V30 28 2 28 29
M  V30 29 1 29 5
M  V30 30 1 23 11
M  V30 31 1 29 24
M  V30 32 1 19 14
M  V30 33 1 1 30
M  V30 34 1 1 31
M  V30 35 1 1 32
M  V30 36 1 3 33
M  V30 37 1 3 34
M  V30 38 1 3 35
M  V30 39 1 4 36
M  V30 40 1 4 37
M  V30 41 1 5 38
M  V30 42 1 6 39
M  V30 43 1 6 40
M  V30 44 1 10 41
M  V30 45 1 10 42
M  V30 46 1 15 43
M  V30 47 1 15 44
M  V30 48 1 16 45
M  V30 49 1 16 46
M  V30 50 1 18 47
M  V30 51 1 18 48
M  V30 52 1 19 49
M  V30 53 1 19 50
M  V30 54 1 20 51
M  V30 55 1 23 52
M  V30 56 1 25 53
M  V30 57 1 26 54
M  V30 58 1 27 55
M  V30 59 1 28 56
M  V30 END BOND
M  V30 END CTAB
M  END
>  <Dataset>  (405) 
ChEMBL_Kinases

>  <Ligand_Instance>  (405) 
nan

>  <PDB_ID>  (405) 
nan

>  <Standardized_SMILES>  (405) 
CN(C)CC1CN(C(=O)Cc2nc(N3CCOCC3)cc(=O)[nH]2)c2ccccc21

>  <Name>  (405) 
nan

>  <Pocket>  (405) 
nan

>  <ATP_Site>  (405) 
nan

>  <Peripheral>  (405) 
nan

>  <Num_H_Atoms_ProtBoundConf>  (405) 
nan

>  <Num_Resolved_Atoms>  (405) 
nan

>  <Num_Not_Resolved_Atoms>  (405) 
nan

$$$$
CHEMBL3699137
     RDKit          3D

  0  0  0  0  0  0  0  0  0  0999 V3000
M  V30 BEGIN CTAB
M  V30 COUNTS 69 73 0 0 0
M  V30 BEGIN ATOM
M  V30 1 C 8.999870 1.973543 6.288957 0
M  V30 2 C 8.998316 0.908793 5.235507 0
M  V30 3 N 7.708336 0.731227 4.586498 0
M  V30 4 C 7.157431 1.847737 3.900272 0
M  V30 5 O 7.760652 2.973718 3.847431 0
M  V30 6 C 5.888783 1.808085 3.213950 0
M  V30 7 C 4.823377 1.778926 2.644646 0
M  V30 8 C 3.563694 1.735886 1.950828 0
M  V30 9 C 3.463314 1.063630 0.722120 0
M  V30 10 C 2.233929 1.049336 0.100242 0
M  V30 11 C 1.157649 1.665161 0.661375 0
M  V30 12 C 1.276405 2.319553 1.864323 0
M  V30 13 C 2.482024 2.366380 2.531537 0
M  V30 14 N 0.049742 2.914935 2.268390 0
M  V30 15 C -0.912945 2.622130 1.262925 0
M  V30 16 O -2.118503 2.973559 1.251302 0
M  V30 17 C -0.219420 1.843292 0.268017 0
M  V30 18 C -0.694088 1.279060 -0.816222 0
M  V30 19 N -2.079321 1.507086 -1.161358 0
M  V30 20 C -2.963633 0.372181 -1.172653 0
M  V30 21 C -3.560307 0.026215 0.021986 0
M  V30 22 C -4.422811 -1.035086 0.149508 0
M  V30 23 C -4.735562 -1.815814 -0.932825 0
M  V30 24 N -5.602281 -2.951190 -0.953590 0
M  V30 25 C -6.004503 -3.754905 -2.090276 0
M  V30 26 C -5.261521 -5.076713 -1.978180 0
M  V30 27 N -4.986341 -5.422166 -0.621082 0
M  V30 28 C -3.649855 -5.079278 -0.234398 0
M  V30 29 C -5.989841 -4.993039 0.328260 0
M  V30 30 C -6.236678 -3.501055 0.251640 0
M  V30 31 C -4.147487 -1.484919 -2.140805 0
M  V30 32 C -3.275926 -0.414112 -2.273905 0
M  V30 33 C -0.145599 0.320966 -1.753184 0
M  V30 34 C 0.325672 -0.989275 -1.555131 0
M  V30 35 C 0.824423 -1.731347 -2.602426 0
M  V30 36 C 0.880642 -1.222930 -3.873897 0
M  V30 37 C 0.428487 0.074642 -4.142377 0
M  V30 38 C -0.067306 0.789983 -3.058850 0
M  V30 39 H 8.784195 1.492730 7.286445 0
M  V30 40 H 8.162693 2.662193 6.125092 0
M  V30 41 H 9.997753 2.476019 6.362678 0
M  V30 42 H 9.789210 1.057072 4.470762 0
M  V30 43 H 9.244276 -0.056836 5.721572 0
M  V30 44 H 7.157654 -0.169851 4.592308 0
M  V30 45 H 4.382956 0.611498 0.376837 0
M  V30 46 H 2.306918 0.545102 -0.809446 0
M  V30 47 H 2.590556 2.866733 3.461240 0
M  V30 48 H -0.153699 3.473193 3.135550 0
M  V30 49 H -2.323184 2.518928 -1.381520 0
M  V30 50 H -3.388073 0.566528 0.935360 0
M  V30 51 H -4.879357 -1.293491 1.081706 0
M  V30 52 H -5.787649 -3.282906 -3.070549 0
M  V30 53 H -7.096237 -3.995048 -2.038087 0
M  V30 54 H -4.277277 -5.041193 -2.505532 0
M  V30 55 H -5.826339 -5.909392 -2.483332 0
M  V30 56 H -3.073782 -6.004846 -0.039485 0
M  V30 57 H -3.659481 -4.418608 0.664001 0
M  V30 58 H -3.156926 -4.578447 -1.088607 0
M  V30 59 H -5.606448 -5.208415 1.342813 0
M  V30 60 H -6.910162 -5.563411 0.164612 0
M  V30 61 H -5.974842 -2.980525 1.168296 0
M  V30 62 H -7.324407 -3.357692 0.089503 0
M  V30 63 H -4.265812 -1.973768 -3.095960 0
M  V30 64 H -2.794164 -0.111260 -3.185460 0
M  V30 65 H 0.231420 -1.282098 -0.514878 0
M  V30 66 H 1.151078 -2.721660 -2.304110 0
M  V30 67 H 1.284375 -1.860873 -4.654214 0
M  V30 68 H 0.473751 0.472911 -5.144308 0
M  V30 69 H -0.398974 1.787439 -3.347519 0
M  V30 END ATOM
M  V30 BEGIN BOND
M  V30 1 1 1 2
M  V30 2 1 2 3
M  V30 3 1 3 4
M  V30 4 2 4 5
M  V30 5 1 4 6
M  V30 6 3 6 7
M  V30 7 1 7 8
M  V30 8 2 8 9
M  V30 9 1 9 10
M  V30 10 2 10 11
M  V30 11 1 11 12
M  V30 12 2 12 13
M  V30 13 1 12 14
M  V30 14 1 14 15
M  V30 15 2 15 16
M  V30 16 1 15 17
M  V30 17 2 17 18
M  V30 18 1 18 19
M  V30 19 1 19 20
M  V30 20 2 20 21
M  V30 21 1 21 22
M  V30 22 2 22 23
M  V30 23 1 23 24
M  V30 24 1 24 25
M  V30 25 1 25 26
M  V30 26 1 26 27
M  V30 27 1 27 28
M  V30 28 1 27 29
M  V30 29 1 29 30
M  V30 30 1 23 31
M  V30 31 2 31 32
M  V30 32 1 18 33
M  V30 33 2 33 34
M  V30 34 1 34 35
M  V30 35 2 35 36
M  V30 36 1 36 37
M  V30 37 2 37 38
M  V30 38 1 13 8
M  V30 39 1 32 20
M  V30 40 1 38 33
M  V30 41 1 17 11
M  V30 42 1 30 24
M  V30 43 1 1 39
M  V30 44 1 1 40
M  V30 45 1 1 41
M  V30 46 1 2 42
M  V30 47 1 2 43
M  V30 48 1 3 44
M  V30 49 1 9 45
M  V30 50 1 10 46
M  V30 51 1 13 47
M  V30 52 1 14 48
M  V30 53 1 19 49
M  V30 54 1 21 50
M  V30 55 1 22 51
M  V30 56 1 25 52
M  V30 57 1 25 53
M  V30 58 1 26 54
M  V30 59 1 26 55
M  V30 60 1 28 56
M  V30 61 1 28 57
M  V30 62 1 28 58
M  V30 63 1 29 59
M  V30 64 1 29 60
M  V30 65 1 30 61
M  V30 66 1 30 62
M  V30 67 1 31 63
M  V30 68 1 32 64
M  V30 69 1 34 65
M  V30 70 1 35 66
M  V30 71 1 36 67
M  V30 72 1 37 68
M  V30 73 1 38 69
M  V30 END BOND
M  V30 END CTAB
M  END
>  <Dataset>  (406) 
ChEMBL_Kinases

>  <Ligand_Instance>  (406) 
nan

>  <PDB_ID>  (406) 
nan

>  <Standardized_SMILES>  (406) 
CCNC(=O)C#Cc1ccc2c(c1)NC(=O)/C2=C(\Nc1ccc(N2CCN(C)CC2)cc1)c1ccccc1

>  <Name>  (406) 
nan

>  <Pocket>  (406) 
nan

>  <ATP_Site>  (406) 
nan

>  <Peripheral>  (406) 
nan

>  <Num_H_Atoms_ProtBoundConf>  (406) 
nan

>  <Num_Resolved_Atoms>  (406) 
nan

>  <Num_Not_Resolved_Atoms>  (406) 
nan

$$$$
CHEMBL3699138
     RDKit          3D

  0  0  0  0  0  0  0  0  0  0999 V3000
M  V30 BEGIN CTAB
M  V30 COUNTS 63 66 0 0 0
M  V30 BEGIN ATOM
M  V30 1 C 0.229269 4.791115 6.404789 0
M  V30 2 N 0.770141 4.129256 5.238524 0
M  V30 3 C 0.517325 2.721881 5.360680 0
M  V30 4 C 0.261522 4.711743 4.022368 0
M  V30 5 C 0.836452 4.005584 2.838445 0
M  V30 6 C 0.083435 2.913648 2.404022 0
M  V30 7 C 0.542540 2.196463 1.307782 0
M  V30 8 C 1.707171 2.510566 0.626665 0
M  V30 9 N 2.187434 1.790363 -0.488341 0
M  V30 10 C 1.470283 0.645870 -0.997467 0
M  V30 11 C 1.540380 -0.440711 -0.273365 0
M  V30 12 C 2.224461 -0.732793 0.968966 0
M  V30 13 O 2.958658 0.066195 1.587912 0
M  V30 14 N 1.914283 -2.054056 1.338574 0
M  V30 15 C 1.049658 -2.554174 0.328965 0
M  V30 16 C 0.471123 -3.803754 0.270984 0
M  V30 17 C -0.364736 -4.112700 -0.780077 0
M  V30 18 C -0.952721 -5.420537 -0.819168 0
M  V30 19 C -1.454071 -6.515543 -0.871380 0
M  V30 20 C -2.047391 -7.827034 -0.956384 0
M  V30 21 O -1.283634 -8.821291 -0.970885 0
M  V30 22 N -3.472189 -8.029130 -1.024605 0
M  V30 23 C -3.881917 -9.418828 -1.106162 0
M  V30 24 C -5.401020 -9.417067 -1.170682 0
M  V30 25 F -5.777563 -8.711090 -2.289505 0
M  V30 26 F -5.908339 -10.697695 -1.137988 0
M  V30 27 C -0.635683 -3.176220 -1.789589 0
M  V30 28 C -0.031402 -1.943902 -1.683026 0
M  V30 29 C 0.800795 -1.621766 -0.650629 0
M  V30 30 C 0.930581 0.956844 -2.274743 0
M  V30 31 C 1.182361 0.440510 -3.555853 0
M  V30 32 C 0.562752 0.851271 -4.706290 0
M  V30 33 C -0.380843 1.843058 -4.625953 0
M  V30 34 C -0.684702 2.401465 -3.404391 0
M  V30 35 C -0.040516 1.964720 -2.256854 0
M  V30 36 C 2.403921 3.598776 1.105050 0
M  V30 37 C 2.001557 4.353978 2.190435 0
M  V30 38 H -0.802154 5.174736 6.247888 0
M  V30 39 H 0.164547 4.115311 7.286759 0
M  V30 40 H 0.915633 5.615882 6.679709 0
M  V30 41 H 0.939910 2.399060 6.332499 0
M  V30 42 H 1.039180 2.153121 4.565070 0
M  V30 43 H -0.573634 2.526484 5.417153 0
M  V30 44 H -0.845773 4.671645 4.010119 0
M  V30 45 H 0.577196 5.765113 3.990902 0
M  V30 46 H -0.853988 2.580231 2.872872 0
M  V30 47 H -0.006121 1.342271 0.933674 0
M  V30 48 H 3.069056 2.084382 -0.952217 0
M  V30 49 H 2.277310 -2.521242 2.196416 0
M  V30 50 H 0.660957 -4.543755 1.033374 0
M  V30 51 H -4.105652 -7.199459 -1.011998 0
M  V30 52 H -3.628217 -9.972852 -0.162801 0
M  V30 53 H -3.424850 -9.965438 -1.933472 0
M  V30 54 H -5.754094 -8.830195 -0.279560 0
M  V30 55 H -1.311633 -3.539797 -2.564272 0
M  V30 56 H -0.351398 -1.353948 -2.489470 0
M  V30 57 H 1.940891 -0.335408 -3.510976 0
M  V30 58 H 0.894832 0.327373 -5.608390 0
M  V30 59 H -0.834857 2.124729 -5.565728 0
M  V30 60 H -1.439555 3.171258 -3.458001 0
M  V30 61 H -0.415291 2.524650 -1.395024 0
M  V30 62 H 3.340990 3.950200 0.653472 0
M  V30 63 H 2.541874 5.208066 2.571474 0
M  V30 END ATOM
M  V30 BEGIN BOND
M  V30 1 1 1 2
M  V30 2 1 2 3
M  V30 3 1 2 4
M  V30 4 1 4 5
M  V30 5 2 5 6
M  V30 6 1 6 7
M  V30 7 2 7 8
M  V30 8 1 8 9
M  V30 9 1 9 10
M  V30 10 2 10 11
M  V30 11 1 11 12
M  V30 12 2 12 13
M  V30 13 1 12 14
M  V30 14 1 14 15
M  V30 15 2 15 16
M  V30 16 1 16 17
M  V30 17 1 17 18
M  V30 18 3 18 19
M  V30 19 1 19 20
M  V30 20 2 20 21
M  V30 21 1 20 22
M  V30 22 1 22 23
M  V30 23 1 23 24
M  V30 24 1 24 25
M  V30 25 1 24 26
M  V30 26 2 17 27
M  V30 27 1 27 28
M  V30 28 2 28 29
M  V30 29 1 10 30
M  V30 30 2 30 31
M  V30 31 1 31 32
M  V30 32 2 32 33
M  V30 33 1 33 34
M  V30 34 2 34 35
M  V30 35 1 8 36
M  V30 36 2 36 37
M  V30 37 1 37 5
M  V30 38 1 29 11
M  V30 39 1 35 30
M  V30 40 1 29 15
M  V30 41 1 1 38
M  V30 42 1 1 39
M  V30 43 1 1 40
M  V30 44 1 3 41
M  V30 45 1 3 42
M  V30 46 1 3 43
M  V30 47 1 4 44
M  V30 48 1 4 45
M  V30 49 1 6 46
M  V30 50 1 7 47
M  V30 51 1 9 48
M  V30 52 1 14 49
M  V30 53 1 16 50
M  V30 54 1 22 51
M  V30 55 1 23 52
M  V30 56 1 23 53
M  V30 57 1 24 54
M  V30 58 1 27 55
M  V30 59 1 28 56
M  V30 60 1 31 57
M  V30 61 1 32 58
M  V30 62 1 33 59
M  V30 63 1 34 60
M  V30 64 1 35 61
M  V30 65 1 36 62
M  V30 66 1 37 63
M  V30 END BOND
M  V30 END CTAB
M  END
>  <Dataset>  (407) 
ChEMBL_Kinases

>  <Ligand_Instance>  (407) 
nan

>  <PDB_ID>  (407) 
nan

>  <Standardized_SMILES>  (407) 
CN(C)Cc1ccc(N/C(=C2\C(=O)Nc3cc(C#CC(=O)NCC(F)F)ccc32)c2ccccc2)cc1

>  <Name>  (407) 
nan

>  <Pocket>  (407) 
nan

>  <ATP_Site>  (407) 
nan

>  <Peripheral>  (407) 
nan

>  <Num_H_Atoms_ProtBoundConf>  (407) 
nan

>  <Num_Resolved_Atoms>  (407) 
nan

>  <Num_Not_Resolved_Atoms>  (407) 
nan

$$$$
CHEMBL3699139
     RDKit          3D

  0  0  0  0  0  0  0  0  0  0999 V3000
M  V30 BEGIN CTAB
M  V30 COUNTS 67 71 0 0 0
M  V30 BEGIN ATOM
M  V30 1 O 7.947606 -1.090485 4.374658 0
M  V30 2 C 6.842510 -1.628245 4.553730 0
M  V30 3 C 5.758134 -1.117331 3.726232 0
M  V30 4 C 4.858748 -0.709412 3.034342 0
M  V30 5 C 3.782320 -0.228743 2.219454 0
M  V30 6 C 2.977819 0.840984 2.639717 0
M  V30 7 C 1.960633 1.248352 1.803267 0
M  V30 8 C 1.765370 0.622962 0.621676 0
M  V30 9 C 2.551252 -0.427099 0.206600 0
M  V30 10 C 3.577823 -0.863754 1.014057 0
M  V30 11 N 2.146845 -0.939407 -1.053850 0
M  V30 12 C 1.044677 -0.176301 -1.469041 0
M  V30 13 O 0.435788 -0.350579 -2.530573 0
M  V30 14 C 0.796976 0.806144 -0.430262 0
M  V30 15 C -0.086610 1.773364 -0.420164 0
M  V30 16 N -0.999960 1.822885 -1.534551 0
M  V30 17 C -2.032397 0.827890 -1.599365 0
M  V30 18 C -2.939021 0.770532 -2.620194 0
M  V30 19 C -3.932234 -0.187845 -2.683017 0
M  V30 20 C -4.036406 -1.136274 -1.690153 0
M  V30 21 C -5.017100 -2.251345 -1.577515 0
M  V30 22 N -4.472837 -3.438033 -2.178410 0
M  V30 23 C -5.336329 -4.580251 -2.127963 0
M  V30 24 C -6.216096 -4.419441 -3.347537 0
M  V30 25 C -5.545315 -3.392681 -4.238392 0
M  V30 26 C -4.188147 -3.283675 -3.588190 0
M  V30 27 C -3.137491 -1.107553 -0.644281 0
M  V30 28 C -2.154664 -0.140205 -0.604741 0
M  V30 29 C -0.279222 2.897006 0.434334 0
M  V30 30 C -1.543535 3.013283 1.025299 0
M  V30 31 C -1.922085 4.072146 1.825954 0
M  V30 32 C -1.027608 5.089938 2.077774 0
M  V30 33 C 0.236233 5.049651 1.533235 0
M  V30 34 C 0.565651 3.975004 0.743127 0
M  V30 35 N 6.479825 -2.669347 5.447474 0
M  V30 36 C 7.613026 -3.145969 6.256081 0
M  V30 37 C 7.037485 -4.249111 7.150635 0
M  V30 38 F 6.511532 -5.270472 6.385596 0
M  V30 39 F 5.977264 -3.758745 7.904509 0
M  V30 40 H 3.256847 1.251473 3.623848 0
M  V30 41 H 1.440258 2.028132 2.262815 0
M  V30 42 H 4.205952 -1.685173 0.706665 0
M  V30 43 H 2.580040 -1.735606 -1.584210 0
M  V30 44 H -0.973926 2.521003 -2.299737 0
M  V30 45 H -2.892718 1.507112 -3.432182 0
M  V30 46 H -4.668529 -0.275219 -3.460543 0
M  V30 47 H -5.338477 -2.431820 -0.553807 0
M  V30 48 H -5.952074 -1.976101 -2.149748 0
M  V30 49 H -5.928958 -4.641214 -1.191108 0
M  V30 50 H -4.689672 -5.482227 -2.248490 0
M  V30 51 H -7.245700 -4.116717 -3.044464 0
M  V30 52 H -6.268493 -5.416512 -3.870545 0
M  V30 53 H -6.067042 -2.425850 -4.201138 0
M  V30 54 H -5.487472 -3.718720 -5.302810 0
M  V30 55 H -3.623021 -2.384669 -3.842429 0
M  V30 56 H -3.630277 -4.200052 -3.912441 0
M  V30 57 H -3.120963 -1.803172 0.195693 0
M  V30 58 H -1.433682 -0.085173 0.195637 0
M  V30 59 H -2.350815 2.298422 0.922185 0
M  V30 60 H -2.889034 4.183919 2.291989 0
M  V30 61 H -1.223279 5.960221 2.688713 0
M  V30 62 H 1.056037 5.770332 1.636076 0
M  V30 63 H 1.550220 3.853690 0.264363 0
M  V30 64 H 5.506985 -3.041238 5.507368 0
M  V30 65 H 8.332070 -3.677475 5.591497 0
M  V30 66 H 8.059235 -2.346287 6.855953 0
M  V30 67 H 7.806788 -4.679134 7.816075 0
M  V30 END ATOM
M  V30 BEGIN BOND
M  V30 1 2 1 2
M  V30 2 1 2 3
M  V30 3 3 3 4
M  V30 4 1 4 5
M  V30 5 2 5 6
M  V30 6 1 6 7
M  V30 7 2 7 8
M  V30 8 1 8 9
M  V30 9 2 9 10
M  V30 10 1 9 11
M  V30 11 1 11 12
M  V30 12 2 12 13
M  V30 13 1 12 14
M  V30 14 2 14 15
M  V30 15 1 15 16
M  V30 16 1 16 17
M  V30 17 2 17 18
M  V30 18 1 18 19
M  V30 19 2 19 20
M  V30 20 1 20 21
M  V30 21 1 21 22
M  V30 22 1 22 23
M  V30 23 1 23 24
M  V30 24 1 24 25
M  V30 25 1 25 26
M  V30 26 1 20 27
M  V30 27 2 27 28
M  V30 28 1 15 29
M  V30 29 2 29 30
M  V30 30 1 30 31
M  V30 31 2 31 32
M  V30 32 1 32 33
M  V30 33 2 33 34
M  V30 34 1 2 35
M  V30 35 1 35 36
M  V30 36 1 36 37
M  V30 37 1 37 38
M  V30 38 1 37 39
M  V30 39 1 10 5
M  V30 40 1 28 17
M  V30 41 1 34 29
M  V30 42 1 14 8
M  V30 43 1 26 22
M  V30 44 1 6 40
M  V30 45 1 7 41
M  V30 46 1 10 42
M  V30 47 1 11 43
M  V30 48 1 16 44
M  V30 49 1 18 45
M  V30 50 1 19 46
M  V30 51 1 21 47
M  V30 52 1 21 48
M  V30 53 1 23 49
M  V30 54 1 23 50
M  V30 55 1 24 51
M  V30 56 1 24 52
M  V30 57 1 25 53
M  V30 58 1 25 54
M  V30 59 1 26 55
M  V30 60 1 26 56
M  V30 61 1 27 57
M  V30 62 1 28 58
M  V30 63 1 30 59
M  V30 64 1 31 60
M  V30 65 1 32 61
M  V30 66 1 33 62
M  V30 67 1 34 63
M  V30 68 1 35 64
M  V30 69 1 36 65
M  V30 70 1 36 66
M  V30 71 1 37 67
M  V30 END BOND
M  V30 END CTAB
M  END
>  <Dataset>  (408) 
ChEMBL_Kinases

>  <Ligand_Instance>  (408) 
nan

>  <PDB_ID>  (408) 
nan

>  <Standardized_SMILES>  (408) 
O=C(C#Cc1ccc2c(c1)NC(=O)/C2=C(\Nc1ccc(CN2CCCC2)cc1)c1ccccc1)NCC(F)F

>  <Name>  (408) 
nan

>  <Pocket>  (408) 
nan

>  <ATP_Site>  (408) 
nan

>  <Peripheral>  (408) 
nan

>  <Num_H_Atoms_ProtBoundConf>  (408) 
nan

>  <Num_Resolved_Atoms>  (408) 
nan

>  <Num_Not_Resolved_Atoms>  (408) 
nan

$$$$
CHEMBL3699140
     RDKit          3D

  0  0  0  0  0  0  0  0  0  0999 V3000
M  V30 BEGIN CTAB
M  V30 COUNTS 67 71 0 0 0
M  V30 BEGIN ATOM
M  V30 1 O 6.761945 -2.263833 5.827364 0
M  V30 2 C 5.782329 -2.946862 5.382736 0
M  V30 3 C 4.910187 -2.230889 4.483625 0
M  V30 4 C 4.189938 -1.641050 3.714855 0
M  V30 5 C 3.321446 -0.943443 2.807103 0
M  V30 6 C 2.574503 0.160014 3.244328 0
M  V30 7 C 1.758430 0.791032 2.329887 0
M  V30 8 C 1.695367 0.339485 1.042254 0
M  V30 9 C 2.432197 -0.745047 0.626326 0
M  V30 10 C 3.260832 -1.405234 1.508702 0
M  V30 11 N 2.183947 -1.038228 -0.742121 0
M  V30 12 C 1.250475 -0.104057 -1.228133 0
M  V30 13 O 0.786968 -0.035477 -2.372493 0
M  V30 14 C 0.944301 0.760510 -0.114980 0
M  V30 15 C 0.183510 1.820086 -0.092349 0
M  V30 16 N -0.535502 2.147401 -1.299273 0
M  V30 17 C -1.660620 1.319504 -1.646278 0
M  V30 18 C -2.410857 1.540604 -2.787409 0
M  V30 19 C -3.488088 0.755017 -3.127357 0
M  V30 20 C -3.859964 -0.298360 -2.323864 0
M  V30 21 C -4.969632 -1.270334 -2.497801 0
M  V30 22 N -4.521990 -2.444499 -3.215890 0
M  V30 23 C -5.602014 -3.412724 -3.373244 0
M  V30 24 C -5.122482 -4.328579 -4.507547 0
M  V30 25 C -4.381202 -3.345931 -5.397482 0
M  V30 26 C -4.094795 -2.120129 -4.545706 0
M  V30 27 C -3.125146 -0.538319 -1.178275 0
M  V30 28 C -2.047268 0.247247 -0.837607 0
M  V30 29 C -0.035452 2.852757 0.861952 0
M  V30 30 C -1.338841 3.097244 1.301813 0
M  V30 31 C -1.733949 4.096817 2.165600 0
M  V30 32 C -0.752538 4.938153 2.643968 0
M  V30 33 C 0.564528 4.790070 2.277688 0
M  V30 34 C 0.878503 3.768704 1.412005 0
M  V30 35 N 5.562973 -4.296428 5.738033 0
M  V30 36 C 6.446602 -5.007487 6.643087 0
M  V30 37 C 6.460363 -4.302107 7.970707 0
M  V30 38 F 5.138000 -4.318224 8.434112 0
M  V30 39 H 2.721762 0.413945 4.300531 0
M  V30 40 H 1.248788 1.570843 2.801119 0
M  V30 41 H 3.835591 -2.252458 1.178149 0
M  V30 42 H 2.595169 -1.802631 -1.334630 0
M  V30 43 H -0.321651 2.929986 -1.952594 0
M  V30 44 H -2.152396 2.365477 -3.455206 0
M  V30 45 H -4.105738 0.881133 -3.997815 0
M  V30 46 H -5.440753 -1.530918 -1.533970 0
M  V30 47 H -5.767858 -0.799507 -3.122295 0
M  V30 48 H -6.535845 -2.953280 -3.713478 0
M  V30 49 H -5.721002 -4.069340 -2.498736 0
M  V30 50 H -5.969909 -4.818514 -5.023515 0
M  V30 51 H -4.383905 -5.080985 -4.104590 0
M  V30 52 H -3.437528 -3.796037 -5.774339 0
M  V30 53 H -4.984493 -3.068022 -6.292933 0
M  V30 54 H -3.007796 -1.879796 -4.596603 0
M  V30 55 H -4.642446 -1.243831 -4.949149 0
M  V30 56 H -3.305497 -1.331235 -0.455940 0
M  V30 57 H -1.438921 0.094227 0.056934 0
M  V30 58 H -2.181221 2.481705 0.975593 0
M  V30 59 H -2.753989 4.248167 2.478180 0
M  V30 60 H -0.952493 5.752799 3.325245 0
M  V30 61 H 1.396314 5.410372 2.609433 0
M  V30 62 H 1.912320 3.587627 1.073020 0
M  V30 63 H 4.704761 -4.735516 5.288704 0
M  V30 64 H 5.993344 -6.009263 6.803068 0
M  V30 65 H 7.453081 -5.154682 6.218745 0
M  V30 66 H 6.797199 -3.263706 7.939683 0
M  V30 67 H 7.048871 -4.834182 8.733827 0
M  V30 END ATOM
M  V30 BEGIN BOND
M  V30 1 2 1 2
M  V30 2 1 2 3
M  V30 3 3 3 4
M  V30 4 1 4 5
M  V30 5 2 5 6
M  V30 6 1 6 7
M  V30 7 2 7 8
M  V30 8 1 8 9
M  V30 9 2 9 10
M  V30 10 1 9 11
M  V30 11 1 11 12
M  V30 12 2 12 13
M  V30 13 1 12 14
M  V30 14 2 14 15
M  V30 15 1 15 16
M  V30 16 1 16 17
M  V30 17 2 17 18
M  V30 18 1 18 19
M  V30 19 2 19 20
M  V30 20 1 20 21
M  V30 21 1 21 22
M  V30 22 1 22 23
M  V30 23 1 23 24
M  V30 24 1 24 25
M  V30 25 1 25 26
M  V30 26 1 20 27
M  V30 27 2 27 28
M  V30 28 1 15 29
M  V30 29 2 29 30
M  V30 30 1 30 31
M  V30 31 2 31 32
M  V30 32 1 32 33
M  V30 33 2 33 34
M  V30 34 1 2 35
M  V30 35 1 35 36
M  V30 36 1 36 37
M  V30 37 1 37 38
M  V30 38 1 10 5
M  V30 39 1 28 17
M  V30 40 1 34 29
M  V30 41 1 14 8
M  V30 42 1 26 22
M  V30 43 1 6 39
M  V30 44 1 7 40
M  V30 45 1 10 41
M  V30 46 1 11 42
M  V30 47 1 16 43
M  V30 48 1 18 44
M  V30 49 1 19 45
M  V30 50 1 21 46
M  V30 51 1 21 47
M  V30 52 1 23 48
M  V30 53 1 23 49
M  V30 54 1 24 50
M  V30 55 1 24 51
M  V30 56 1 25 52
M  V30 57 1 25 53
M  V30 58 1 26 54
M  V30 59 1 26 55
M  V30 60 1 27 56
M  V30 61 1 28 57
M  V30 62 1 30 58
M  V30 63 1 31 59
M  V30 64 1 32 60
M  V30 65 1 33 61
M  V30 66 1 34 62
M  V30 67 1 35 63
M  V30 68 1 36 64
M  V30 69 1 36 65
M  V30 70 1 37 66
M  V30 71 1 37 67
M  V30 END BOND
M  V30 END CTAB
M  END
>  <Dataset>  (409) 
ChEMBL_Kinases

>  <Ligand_Instance>  (409) 
nan

>  <PDB_ID>  (409) 
nan

>  <Standardized_SMILES>  (409) 
O=C(C#Cc1ccc2c(c1)NC(=O)/C2=C(\Nc1ccc(CN2CCCC2)cc1)c1ccccc1)NCCF

>  <Name>  (409) 
nan

>  <Pocket>  (409) 
nan

>  <ATP_Site>  (409) 
nan

>  <Peripheral>  (409) 
nan

>  <Num_H_Atoms_ProtBoundConf>  (409) 
nan

>  <Num_Resolved_Atoms>  (409) 
nan

>  <Num_Not_Resolved_Atoms>  (409) 
nan

$$$$
CHEMBL3699141
     RDKit          3D

  0  0  0  0  0  0  0  0  0  0999 V3000
M  V30 BEGIN CTAB
M  V30 COUNTS 67 71 0 0 0
M  V30 BEGIN ATOM
M  V30 1 C 7.284511 3.231384 7.990777 0
M  V30 2 C 6.918067 4.045068 6.769851 0
M  V30 3 N 5.824960 3.426334 6.023614 0
M  V30 4 C 5.470271 4.187309 4.866713 0
M  V30 5 O 6.006320 5.262814 4.498057 0
M  V30 6 C 4.404696 3.711823 4.018697 0
M  V30 7 C 3.501563 3.308376 3.325432 0
M  V30 8 C 2.437411 2.839179 2.482346 0
M  V30 9 C 2.719931 2.097428 1.325050 0
M  V30 10 C 1.663835 1.667609 0.550316 0
M  V30 11 C 0.388499 1.974680 0.933075 0
M  V30 12 C 0.110975 2.703449 2.066734 0
M  V30 13 C 1.147257 3.148324 2.863399 0
M  V30 14 N -1.290100 2.896163 2.212432 0
M  V30 15 C -1.970378 2.266141 1.128944 0
M  V30 16 O -3.189285 2.172344 0.836736 0
M  V30 17 C -0.895587 1.691787 0.339462 0
M  V30 18 C -1.059255 0.944025 -0.725743 0
M  V30 19 N -2.333680 0.662266 -1.338038 0
M  V30 20 C -2.869641 -0.566753 -1.758579 0
M  V30 21 C -2.794292 -1.166093 -2.989409 0
M  V30 22 C -3.394383 -2.394716 -3.196757 0
M  V30 23 C -4.071111 -3.030949 -2.180756 0
M  V30 24 C -4.659824 -4.347209 -2.564233 0
M  V30 25 N -3.697395 -5.415348 -2.314889 0
M  V30 26 C -4.273476 -6.688003 -2.689008 0
M  V30 27 C -3.378910 -7.702959 -1.986677 0
M  V30 28 C -2.933937 -6.979902 -0.726761 0
M  V30 29 C -3.400259 -5.544360 -0.909469 0
M  V30 30 C -4.163761 -2.450547 -0.929056 0
M  V30 31 C -3.549000 -1.209208 -0.745565 0
M  V30 32 C -0.108028 0.125204 -1.451694 0
M  V30 33 C 0.406074 -0.902914 -0.640061 0
M  V30 34 C 1.337699 -1.798227 -1.154523 0
M  V30 35 C 1.780733 -1.709869 -2.453971 0
M  V30 36 C 1.257335 -0.682395 -3.240675 0
M  V30 37 C 0.337286 0.211175 -2.751871 0
M  V30 38 H 6.796856 2.216691 7.981016 0
M  V30 39 H 8.372911 3.048893 8.063574 0
M  V30 40 H 6.936985 3.706504 8.946257 0
M  V30 41 H 7.833579 4.120507 6.154557 0
M  V30 42 H 6.524605 5.026484 7.117024 0
M  V30 43 H 5.328806 2.538845 6.261960 0
M  V30 44 H 3.790383 1.920081 1.133729 0
M  V30 45 H 2.020714 1.151451 -0.297830 0
M  V30 46 H 0.918622 3.717632 3.749552 0
M  V30 47 H -1.791148 3.412848 2.978715 0
M  V30 48 H -3.032279 1.438805 -1.536568 0
M  V30 49 H -2.254400 -0.614185 -3.731192 0
M  V30 50 H -3.292419 -2.811035 -4.202858 0
M  V30 51 H -4.968135 -4.356318 -3.617467 0
M  V30 52 H -5.517599 -4.533670 -1.906919 0
M  V30 53 H -5.313025 -6.788383 -2.342742 0
M  V30 54 H -4.192533 -6.798593 -3.801815 0
M  V30 55 H -3.898287 -8.653875 -1.788016 0
M  V30 56 H -2.528510 -7.934513 -2.661903 0
M  V30 57 H -1.835476 -7.073723 -0.654946 0
M  V30 58 H -3.447997 -7.490853 0.114947 0
M  V30 59 H -4.281959 -5.397738 -0.257266 0
M  V30 60 H -2.563200 -4.905332 -0.590488 0
M  V30 61 H -4.705366 -2.993635 -0.173572 0
M  V30 62 H -3.684027 -0.846052 0.273164 0
M  V30 63 H 0.138558 -1.082619 0.403144 0
M  V30 64 H 1.744515 -2.603287 -0.528855 0
M  V30 65 H 2.511242 -2.391356 -2.898830 0
M  V30 66 H 1.551127 -0.533491 -4.288015 0
M  V30 67 H -0.116899 1.026269 -3.277480 0
M  V30 END ATOM
M  V30 BEGIN BOND
M  V30 1 1 1 2
M  V30 2 1 2 3
M  V30 3 1 3 4
M  V30 4 2 4 5
M  V30 5 1 4 6
M  V30 6 3 6 7
M  V30 7 1 7 8
M  V30 8 2 8 9
M  V30 9 1 9 10
M  V30 10 2 10 11
M  V30 11 1 11 12
M  V30 12 2 12 13
M  V30 13 1 12 14
M  V30 14 1 14 15
M  V30 15 2 15 16
M  V30 16 1 15 17
M  V30 17 2 17 18
M  V30 18 1 18 19
M  V30 19 1 19 20
M  V30 20 2 20 21
M  V30 21 1 21 22
M  V30 22 2 22 23
M  V30 23 1 23 24
M  V30 24 1 24 25
M  V30 25 1 25 26
M  V30 26 1 26 27
M  V30 27 1 27 28
M  V30 28 1 28 29
M  V30 29 1 23 30
M  V30 30 2 30 31
M  V30 31 1 18 32
M  V30 32 2 32 33
M  V30 33 1 33 34
M  V30 34 2 34 35
M  V30 35 1 35 36
M  V30 36 2 36 37
M  V30 37 1 13 8
M  V30 38 1 31 20
M  V30 39 1 37 32
M  V30 40 1 17 11
M  V30 41 1 29 25
M  V30 42 1 1 38
M  V30 43 1 1 39
M  V30 44 1 1 40
M  V30 45 1 2 41
M  V30 46 1 2 42
M  V30 47 1 3 43
M  V30 48 1 9 44
M  V30 49 1 10 45
M  V30 50 1 13 46
M  V30 51 1 14 47
M  V30 52 1 19 48
M  V30 53 1 21 49
M  V30 54 1 22 50
M  V30 55 1 24 51
M  V30 56 1 24 52
M  V30 57 1 26 53
M  V30 58 1 26 54
M  V30 59 1 27 55
M  V30 60 1 27 56
M  V30 61 1 28 57
M  V30 62 1 28 58
M  V30 63 1 29 59
M  V30 64 1 29 60
M  V30 65 1 30 61
M  V30 66 1 31 62
M  V30 67 1 33 63
M  V30 68 1 34 64
M  V30 69 1 35 65
M  V30 70 1 36 66
M  V30 71 1 37 67
M  V30 END BOND
M  V30 END CTAB
M  END
>  <Dataset>  (410) 
ChEMBL_Kinases

>  <Ligand_Instance>  (410) 
nan

>  <PDB_ID>  (410) 
nan

>  <Standardized_SMILES>  (410) 
CCNC(=O)C#Cc1ccc2c(c1)NC(=O)/C2=C(\Nc1ccc(CN2CCCC2)cc1)c1ccccc1

>  <Name>  (410) 
nan

>  <Pocket>  (410) 
nan

>  <ATP_Site>  (410) 
nan

>  <Peripheral>  (410) 
nan

>  <Num_H_Atoms_ProtBoundConf>  (410) 
nan

>  <Num_Resolved_Atoms>  (410) 
nan

>  <Num_Not_Resolved_Atoms>  (410) 
nan

$$$$
CHEMBL369936
     RDKit          3D

  0  0  0  0  0  0  0  0  0  0999 V3000
M  V30 BEGIN CTAB
M  V30 COUNTS 51 54 0 0 0
M  V30 BEGIN ATOM
M  V30 1 C 2.079899 -0.656357 -4.997147 0
M  V30 2 C 2.150971 -1.771617 -3.984039 0
M  V30 3 C 2.018046 -1.184189 -2.624608 0
M  V30 4 N 2.664447 -0.752673 -1.772848 0
M  V30 5 C 2.269933 -0.272829 -0.604614 0
M  V30 6 C 3.241748 0.237705 0.356086 0
M  V30 7 C 4.140200 -0.650658 0.962019 0
M  V30 8 C 5.072531 -0.152034 1.877804 0
M  V30 9 C 5.145849 1.172244 2.209796 0
M  V30 10 C 4.268823 2.053517 1.621321 0
M  V30 11 O 4.368021 3.387823 1.978578 0
M  V30 12 C 3.517795 4.384797 1.436951 0
M  V30 13 C 3.350779 1.562074 0.719106 0
M  V30 14 C 0.955519 -0.270695 -0.338508 0
M  V30 15 C 0.080357 0.115045 0.720588 0
M  V30 16 C -0.191131 1.336417 1.301228 0
M  V30 17 C -1.089412 1.482064 2.328878 0
M  V30 18 N -1.752340 0.416074 2.817511 0
M  V30 19 C -1.526837 -0.797565 2.288868 0
M  V30 20 N -2.271012 -1.892063 2.856924 0
M  V30 21 C -3.489506 -1.966971 2.091535 0
M  V30 22 O -3.500821 -1.066746 1.193909 0
M  V30 23 C -4.555256 -2.961927 2.341299 0
M  V30 24 C -4.591219 -3.947806 3.289507 0
M  V30 25 C -5.699189 -4.772804 3.344307 0
M  V30 26 C -6.760967 -4.638219 2.483920 0
M  V30 27 C -6.727886 -3.651191 1.532628 0
M  V30 28 C -5.631676 -2.821307 1.464930 0
M  V30 29 C -0.623969 -0.975422 1.249235 0
M  V30 30 S 0.285542 -1.002723 -1.868286 0
M  V30 31 H 1.184531 -0.750324 -5.670605 0
M  V30 32 H 3.008596 -0.600034 -5.593683 0
M  V30 33 H 1.956160 0.352633 -4.510390 0
M  V30 34 H 3.080515 -2.338770 -3.984692 0
M  V30 35 H 1.315132 -2.480253 -4.205132 0
M  V30 36 H 4.118509 -1.726904 0.726358 0
M  V30 37 H 5.777865 -0.828506 2.358232 0
M  V30 38 H 5.886859 1.514036 2.926181 0
M  V30 39 H 3.507133 5.298193 2.069191 0
M  V30 40 H 2.491644 3.994030 1.369406 0
M  V30 41 H 3.905571 4.652387 0.445303 0
M  V30 42 H 2.682994 2.284871 0.275118 0
M  V30 43 H 0.379614 2.137371 0.851403 0
M  V30 44 H -1.245290 2.474687 2.729934 0
M  V30 45 H -2.149235 -2.600734 3.641204 0
M  V30 46 H -3.726015 -3.979423 3.913237 0
M  V30 47 H -5.685350 -5.536521 4.106478 0
M  V30 48 H -7.612826 -5.296202 2.549575 0
M  V30 49 H -7.584119 -3.564334 0.859934 0
M  V30 50 H -5.707589 -2.072640 0.673763 0
M  V30 51 H -0.536236 -2.002233 0.916965 0
M  V30 END ATOM
M  V30 BEGIN BOND
M  V30 1 1 1 2
M  V30 2 1 2 3
M  V30 3 2 3 4
M  V30 4 1 4 5
M  V30 5 1 5 6
M  V30 6 2 6 7
M  V30 7 1 7 8
M  V30 8 2 8 9
M  V30 9 1 9 10
M  V30 10 1 10 11
M  V30 11 1 11 12
M  V30 12 2 10 13
M  V30 13 2 5 14
M  V30 14 1 14 15
M  V30 15 2 15 16
M  V30 16 1 16 17
M  V30 17 2 17 18
M  V30 18 1 18 19
M  V30 19 1 19 20
M  V30 20 1 20 21
M  V30 21 2 21 22
M  V30 22 1 21 23
M  V30 23 2 23 24
M  V30 24 1 24 25
M  V30 25 2 25 26
M  V30 26 1 26 27
M  V30 27 2 27 28
M  V30 28 2 19 29
M  V30 29 1 14 30
M  V30 30 1 30 3
M  V30 31 1 13 6
M  V30 32 1 29 15
M  V30 33 1 28 23
M  V30 34 1 1 31
M  V30 35 1 1 32
M  V30 36 1 1 33
M  V30 37 1 2 34
M  V30 38 1 2 35
M  V30 39 1 7 36
M  V30 40 1 8 37
M  V30 41 1 9 38
M  V30 42 1 12 39
M  V30 43 1 12 40
M  V30 44 1 12 41
M  V30 45 1 13 42
M  V30 46 1 16 43
M  V30 47 1 17 44
M  V30 48 1 20 45
M  V30 49 1 24 46
M  V30 50 1 25 47
M  V30 51 1 26 48
M  V30 52 1 27 49
M  V30 53 1 28 50
M  V30 54 1 29 51
M  V30 END BOND
M  V30 END CTAB
M  END
>  <Dataset>  (411) 
ChEMBL_Kinases

>  <Ligand_Instance>  (411) 
nan

>  <PDB_ID>  (411) 
nan

>  <Standardized_SMILES>  (411) 
CCc1nc(-c2cccc(OC)c2)c(-c2ccnc(NC(=O)c3ccccc3)c2)s1

>  <Name>  (411) 
nan

>  <Pocket>  (411) 
nan

>  <ATP_Site>  (411) 
nan

>  <Peripheral>  (411) 
nan

>  <Num_H_Atoms_ProtBoundConf>  (411) 
nan

>  <Num_Resolved_Atoms>  (411) 
nan

>  <Num_Not_Resolved_Atoms>  (411) 
nan

$$$$
CHEMBL3699443
     RDKit          3D

  0  0  0  0  0  0  0  0  0  0999 V3000
M  V30 BEGIN CTAB
M  V30 COUNTS 75 78 0 0 0
M  V30 BEGIN ATOM
M  V30 1 C 3.496599 1.868669 2.260023 0
M  V30 2 O 4.429906 0.873667 1.978245 0
M  V30 3 C 4.598354 0.236793 0.784696 0
M  V30 4 C 3.862881 0.448738 -0.393476 0
M  V30 5 C 4.138580 -0.273427 -1.558232 0
M  V30 6 C 3.235045 0.167389 -2.609448 0
M  V30 7 C 1.949716 0.452029 -2.664665 0
M  V30 8 C 0.928981 0.416347 -1.633828 0
M  V30 9 C -0.015878 1.248371 -1.079209 0
M  V30 10 N -0.778056 0.636129 -0.132097 0
M  V30 11 C -1.801440 1.425800 0.473416 0
M  V30 12 C -3.074892 1.605772 -0.217225 0
M  V30 13 C -3.965175 0.468170 -0.568103 0
M  V30 14 O -4.453088 -0.287381 0.403453 0
M  V30 15 C -4.914817 -1.005174 1.325978 0
M  V30 16 O -4.004818 -0.580909 0.578848 0
M  V30 17 C -5.024694 -1.989214 2.417133 0
M  V30 18 N -3.886236 -2.864854 2.457311 0
M  V30 19 C -6.261113 -2.847987 2.280389 0
M  V30 20 C -7.542869 -2.068711 2.315740 0
M  V30 21 C -7.744554 -1.299237 3.590345 0
M  V30 22 C -7.617572 -1.122409 1.135230 0
M  V30 23 C -0.301924 -0.616916 -0.086400 0
M  V30 24 C -0.779604 -1.601771 0.744928 0
M  V30 25 C -0.199912 -2.846840 0.690031 0
M  V30 26 C 0.841317 -3.087656 -0.186985 0
M  V30 27 C 1.276677 -2.057855 -0.993349 0
M  V30 28 C 0.748091 -0.797091 -0.992039 0
M  V30 29 C 1.597724 0.856114 -4.044932 0
M  V30 30 O 0.457707 1.202729 -4.489383 0
M  V30 31 N 2.803697 0.790819 -4.835484 0
M  V30 32 C 3.819523 0.362694 -3.939312 0
M  V30 33 O 5.005908 0.216488 -4.372423 0
M  V30 34 C 5.130984 -1.212713 -1.594809 0
M  V30 35 C 5.866886 -1.449002 -0.471673 0
M  V30 36 O 6.878350 -2.394346 -0.481264 0
M  V30 37 C 7.124086 -3.104985 -1.676490 0
M  V30 38 C 5.601824 -0.740864 0.678933 0
M  V30 39 O 6.361592 -0.981809 1.843214 0
M  V30 40 C 7.545161 -0.257896 2.140675 0
M  V30 41 H 2.534929 1.484260 2.655721 0
M  V30 42 H 3.342564 2.476870 1.341097 0
M  V30 43 H 3.909015 2.579439 3.017490 0
M  V30 44 H 3.105485 1.218554 -0.236066 0
M  V30 45 H -0.016730 2.278236 -1.483791 0
M  V30 46 H -1.366636 2.428813 0.774660 0
M  V30 47 H -1.992245 0.946917 1.482075 0
M  V30 48 H -3.717468 2.291730 0.452758 0
M  V30 49 H -2.969188 2.293986 -1.130321 0
M  V30 50 H -4.802688 0.959872 -1.188849 0
M  V30 51 H -3.453465 -0.169611 -1.396025 0
M  V30 52 H -5.005683 -1.448638 3.395295 0
M  V30 53 H -3.566653 -3.162529 3.363551 0
M  V30 54 H -3.345492 -2.984014 1.612911 0
M  V30 55 H -6.203766 -3.326128 1.276455 0
M  V30 56 H -6.233772 -3.663915 3.021977 0
M  V30 57 H -8.382376 -2.784381 2.210887 0
M  V30 58 H -8.836957 -1.111472 3.703506 0
M  V30 59 H -7.426671 -1.827513 4.489160 0
M  V30 60 H -7.272688 -0.283303 3.495453 0
M  V30 61 H -8.681260 -1.032073 0.819436 0
M  V30 62 H -7.210422 -0.127921 1.338474 0
M  V30 63 H -7.102300 -1.623868 0.262414 0
M  V30 64 H -1.583906 -1.432790 1.442094 0
M  V30 65 H -0.502392 -3.693880 1.299387 0
M  V30 66 H 1.301659 -4.078339 -0.231640 0
M  V30 67 H 2.084052 -2.281183 -1.666812 0
M  V30 68 H 2.802197 1.040618 -5.872044 0
M  V30 69 H 5.247361 -1.701714 -2.546210 0
M  V30 70 H 7.117420 -2.492100 -2.585645 0
M  V30 71 H 6.314913 -3.863109 -1.784314 0
M  V30 72 H 8.127490 -3.588752 -1.569186 0
M  V30 73 H 8.416291 -0.919145 1.986766 0
M  V30 74 H 7.582700 0.084432 3.198084 0
M  V30 75 H 7.609851 0.643864 1.474340 0
M  V30 END ATOM
M  V30 BEGIN BOND
M  V30 1 1 1 2
M  V30 2 1 2 3
M  V30 3 2 3 4
M  V30 4 1 4 5
M  V30 5 1 5 6
M  V30 6 2 6 7
M  V30 7 1 7 8
M  V30 8 2 8 9
M  V30 9 1 9 10
M  V30 10 1 10 11
M  V30 11 1 11 12
M  V30 12 1 12 13
M  V30 13 1 13 14
M  V30 14 1 14 15
M  V30 15 2 15 16
M  V30 16 1 15 17
M  V30 17 1 17 18
M  V30 18 1 17 19
M  V30 19 1 19 20
M  V30 20 1 20 21
M  V30 21 1 20 22
M  V30 22 1 10 23
M  V30 23 2 23 24
M  V30 24 1 24 25
M  V30 25 2 25 26
M  V30 26 1 26 27
M  V30 27 2 27 28
M  V30 28 1 7 29
M  V30 29 2 29 30
M  V30 30 1 29 31
M  V30 31 1 31 32
M  V30 32 2 32 33
M  V30 33 2 5 34
M  V30 34 1 34 35
M  V30 35 1 35 36
M  V30 36 1 36 37
M  V30 37 2 35 38
M  V30 38 1 38 39
M  V30 39 1 39 40
M  V30 40 1 38 3
M  V30 41 1 32 6
M  V30 42 1 28 8
M  V30 43 1 28 23
M  V30 44 1 1 41
M  V30 45 1 1 42
M  V30 46 1 1 43
M  V30 47 1 4 44
M  V30 48 1 9 45
M  V30 49 1 11 46
M  V30 50 1 11 47
M  V30 51 1 12 48
M  V30 52 1 12 49
M  V30 53 1 13 50
M  V30 54 1 13 51
M  V30 55 1 17 52
M  V30 56 1 18 53
M  V30 57 1 18 54
M  V30 58 1 19 55
M  V30 59 1 19 56
M  V30 60 1 20 57
M  V30 61 1 21 58
M  V30 62 1 21 59
M  V30 63 1 21 60
M  V30 64 1 22 61
M  V30 65 1 22 62
M  V30 66 1 22 63
M  V30 67 1 24 64
M  V30 68 1 25 65
M  V30 69 1 26 66
M  V30 70 1 27 67
M  V30 71 1 31 68
M  V30 72 1 34 69
M  V30 73 1 37 70
M  V30 74 1 37 71
M  V30 75 1 37 72
M  V30 76 1 40 73
M  V30 77 1 40 74
M  V30 78 1 40 75
M  V30 END BOND
M  V30 END CTAB
M  END
>  <Dataset>  (412) 
ChEMBL_Kinases

>  <Ligand_Instance>  (412) 
nan

>  <PDB_ID>  (412) 
nan

>  <Standardized_SMILES>  (412) 
COc1cc(C2=C(c3cn(CCCOC(=O)C(N)CC(C)C)c4ccccc34)C(=O)NC2=O)cc(OC)c1OC

>  <Name>  (412) 
nan

>  <Pocket>  (412) 
nan

>  <ATP_Site>  (412) 
nan

>  <Peripheral>  (412) 
nan

>  <Num_H_Atoms_ProtBoundConf>  (412) 
nan

>  <Num_Resolved_Atoms>  (412) 
nan

>  <Num_Not_Resolved_Atoms>  (412) 
nan

$$$$
CHEMBL3699444
     RDKit          3D

  0  0  0  0  0  0  0  0  0  0999 V3000
M  V30 BEGIN CTAB
M  V30 COUNTS 72 75 0 0 0
M  V30 BEGIN ATOM
M  V30 1 C 2.538088 -4.615810 4.194665 0
M  V30 2 O 2.871239 -3.507952 3.426258 0
M  V30 3 C 2.009844 -2.468029 3.106792 0
M  V30 4 C 0.715160 -2.515627 3.576170 0
M  V30 5 C -0.129148 -1.477641 3.250214 0
M  V30 6 C -1.515093 -1.279345 3.653322 0
M  V30 7 C -2.617904 -0.949798 3.049810 0
M  V30 8 C -2.915070 -0.636556 1.652405 0
M  V30 9 C -3.606376 0.427279 1.096038 0
M  V30 10 N -3.653685 0.241576 -0.248373 0
M  V30 11 C -4.283634 1.115694 -1.235678 0
M  V30 12 C -3.306764 2.135505 -1.765904 0
M  V30 13 O -2.262464 1.407194 -2.377495 0
M  V30 14 C -1.168530 1.959936 -2.969156 0
M  V30 15 O -1.576338 3.133426 -2.691139 0
M  V30 16 C -0.010626 1.326151 -3.644805 0
M  V30 17 N 0.970909 2.300973 -4.008109 0
M  V30 18 C 0.559760 0.271085 -2.758885 0
M  V30 19 C 1.760723 -0.445273 -3.335934 0
M  V30 20 C 1.346451 -1.111636 -4.623611 0
M  V30 21 C 2.105111 -1.549947 -2.331231 0
M  V30 22 C -3.009586 -0.907444 -0.514350 0
M  V30 23 C -2.789737 -1.541621 -1.743927 0
M  V30 24 C -2.111215 -2.735307 -1.868925 0
M  V30 25 C -1.635389 -3.311858 -0.704864 0
M  V30 26 C -1.858531 -2.680571 0.483681 0
M  V30 27 C -2.531164 -1.490871 0.637632 0
M  V30 28 C -3.733494 -0.911079 4.023377 0
M  V30 29 O -4.948784 -0.641463 3.862105 0
M  V30 30 N -3.184073 -1.259894 5.309706 0
M  V30 31 C -1.788922 -1.489739 5.067748 0
M  V30 32 O -1.072618 -1.817868 6.067059 0
M  V30 33 C 0.326130 -0.409575 2.464047 0
M  V30 34 C 1.631384 -0.384622 2.005721 0
M  V30 35 O 2.221546 0.601204 1.227758 0
M  V30 36 C 1.593804 1.766417 0.767955 0
M  V30 37 C 2.509300 -1.431402 2.324450 0
M  V30 38 O 3.828019 -1.454018 1.888366 0
M  V30 39 C 4.789226 -0.831798 2.737443 0
M  V30 40 H 3.187543 -5.498168 3.939720 0
M  V30 41 H 2.821043 -4.389761 5.260809 0
M  V30 42 H 1.489256 -4.914907 4.202217 0
M  V30 43 H 0.280363 -3.280560 4.177255 0
M  V30 44 H -4.025248 1.255267 1.665570 0
M  V30 45 H -4.643980 0.470819 -2.057760 0
M  V30 46 H -5.170077 1.628421 -0.817739 0
M  V30 47 H -2.976786 2.851350 -1.008239 0
M  V30 48 H -3.819318 2.667426 -2.599798 0
M  V30 49 H -0.327741 0.839286 -4.607021 0
M  V30 50 H 1.528309 2.639837 -3.173265 0
M  V30 51 H 0.594990 3.119670 -4.503606 0
M  V30 52 H -0.241153 -0.500155 -2.627670 0
M  V30 53 H 0.789938 0.639083 -1.754264 0
M  V30 54 H 2.598203 0.229625 -3.537914 0
M  V30 55 H 1.552104 -0.472323 -5.488799 0
M  V30 56 H 1.857464 -2.097657 -4.751556 0
M  V30 57 H 0.271021 -1.325526 -4.589620 0
M  V30 58 H 2.503546 -2.450202 -2.816702 0
M  V30 59 H 2.796034 -1.153717 -1.529667 0
M  V30 60 H 1.178685 -1.853761 -1.788389 0
M  V30 61 H -3.135805 -1.154766 -2.714170 0
M  V30 62 H -1.942019 -3.224163 -2.819649 0
M  V30 63 H -1.095155 -4.256912 -0.778761 0
M  V30 64 H -1.474138 -3.166874 1.367988 0
M  V30 65 H -3.739966 -1.316850 6.202196 0
M  V30 66 H -0.265803 0.443991 2.161450 0
M  V30 67 H 1.959419 2.073129 -0.245483 0
M  V30 68 H 0.483259 1.654791 0.704183 0
M  V30 69 H 1.789543 2.634145 1.419051 0
M  V30 70 H 4.529256 0.267569 2.763534 0
M  V30 71 H 5.810580 -0.942834 2.374483 0
M  V30 72 H 4.651357 -1.163098 3.791917 0
M  V30 END ATOM
M  V30 BEGIN BOND
M  V30 1 1 1 2
M  V30 2 1 2 3
M  V30 3 2 3 4
M  V30 4 1 4 5
M  V30 5 1 5 6
M  V30 6 2 6 7
M  V30 7 1 7 8
M  V30 8 2 8 9
M  V30 9 1 9 10
M  V30 10 1 10 11
M  V30 11 1 11 12
M  V30 12 1 12 13
M  V30 13 1 13 14
M  V30 14 2 14 15
M  V30 15 1 14 16
M  V30 16 1 16 17
M  V30 17 1 16 18
M  V30 18 1 18 19
M  V30 19 1 19 20
M  V30 20 1 19 21
M  V30 21 1 10 22
M  V30 22 2 22 23
M  V30 23 1 23 24
M  V30 24 2 24 25
M  V30 25 1 25 26
M  V30 26 2 26 27
M  V30 27 1 7 28
M  V30 28 2 28 29
M  V30 29 1 28 30
M  V30 30 1 30 31
M  V30 31 2 31 32
M  V30 32 2 5 33
M  V30 33 1 33 34
M  V30 34 1 34 35
M  V30 35 1 35 36
M  V30 36 2 34 37
M  V30 37 1 37 38
M  V30 38 1 38 39
M  V30 39 1 37 3
M  V30 40 1 31 6
M  V30 41 1 27 8
M  V30 42 1 27 22
M  V30 43 1 1 40
M  V30 44 1 1 41
M  V30 45 1 1 42
M  V30 46 1 4 43
M  V30 47 1 9 44
M  V30 48 1 11 45
M  V30 49 1 11 46
M  V30 50 1 12 47
M  V30 51 1 12 48
M  V30 52 1 16 49
M  V30 53 1 17 50
M  V30 54 1 17 51
M  V30 55 1 18 52
M  V30 56 1 18 53
M  V30 57 1 19 54
M  V30 58 1 20 55
M  V30 59 1 20 56
M  V30 60 1 20 57
M  V30 61 1 21 58
M  V30 62 1 21 59
M  V30 63 1 21 60
M  V30 64 1 23 61
M  V30 65 1 24 62
M  V30 66 1 25 63
M  V30 67 1 26 64
M  V30 68 1 30 65
M  V30 69 1 33 66
M  V30 70 1 36 67
M  V30 71 1 36 68
M  V30 72 1 36 69
M  V30 73 1 39 70
M  V30 74 1 39 71
M  V30 75 1 39 72
M  V30 END BOND
M  V30 END CTAB
M  END
>  <Dataset>  (413) 
ChEMBL_Kinases

>  <Ligand_Instance>  (413) 
nan

>  <PDB_ID>  (413) 
nan

>  <Standardized_SMILES>  (413) 
COc1cc(C2=C(c3cn(CCOC(=O)C(N)CC(C)C)c4ccccc34)C(=O)NC2=O)cc(OC)c1OC

>  <Name>  (413) 
nan

>  <Pocket>  (413) 
nan

>  <ATP_Site>  (413) 
nan

>  <Peripheral>  (413) 
nan

>  <Num_H_Atoms_ProtBoundConf>  (413) 
nan

>  <Num_Resolved_Atoms>  (413) 
nan

>  <Num_Not_Resolved_Atoms>  (413) 
nan

$$$$
CHEMBL3699779
     RDKit          3D

  0  0  0  0  0  0  0  0  0  0999 V3000
M  V30 BEGIN CTAB
M  V30 COUNTS 51 54 0 0 0
M  V30 BEGIN ATOM
M  V30 1 C 5.848809 -3.458337 2.730731 0
M  V30 2 C 4.779569 -3.340556 1.713521 0
M  V30 3 C 4.517584 -4.421646 0.901062 0
M  V30 4 C 3.528786 -4.363083 -0.064982 0
M  V30 5 C 2.808791 -3.170207 -0.184705 0
M  V30 6 C 3.065768 -2.067866 0.633472 0
M  V30 7 C 4.066166 -2.158986 1.594672 0
M  V30 8 C 4.098851 -0.836888 2.298215 0
M  V30 9 C 3.384235 0.085729 1.334960 0
M  V30 10 N 2.437453 -0.776164 0.656257 0
M  V30 11 C 1.157219 -0.491164 0.106859 0
M  V30 12 O 0.532193 -1.427190 -0.433968 0
M  V30 13 C 0.662827 0.912919 0.222803 0
M  V30 14 C -0.685671 1.053263 -0.396194 0
M  V30 15 N -1.740483 0.834939 0.438642 0
M  V30 16 C -3.007798 0.930978 0.000740 0
M  V30 17 N -4.046480 0.688077 0.935409 0
M  V30 18 C -3.671581 0.354992 2.296431 0
M  V30 19 C -4.566481 -0.683723 2.910138 0
M  V30 20 O -5.896699 -0.575045 2.521133 0
M  V30 21 C -6.028218 -0.590219 1.130088 0
M  V30 22 C -5.462328 0.744895 0.643898 0
M  V30 23 C -3.208909 1.257918 -1.322113 0
M  V30 24 C -2.144727 1.480771 -2.174811 0
M  V30 25 O -2.331330 1.780542 -3.387848 0
M  V30 26 N -0.890079 1.373619 -1.692706 0
M  V30 27 C 0.284301 1.593733 -2.529275 0
M  V30 28 H 6.767626 -3.852047 2.222434 0
M  V30 29 H 6.094201 -2.473647 3.172743 0
M  V30 30 H 5.538284 -4.193113 3.520149 0
M  V30 31 H 5.081769 -5.337740 1.004335 0
M  V30 32 H 3.292409 -5.195832 -0.725668 0
M  V30 33 H 2.039967 -3.155561 -0.951555 0
M  V30 34 H 3.517128 -0.884619 3.253568 0
M  V30 35 H 5.137139 -0.526111 2.489895 0
M  V30 36 H 2.878306 0.930059 1.815292 0
M  V30 37 H 4.088494 0.470489 0.556747 0
M  V30 38 H 1.375289 1.614542 -0.290435 0
M  V30 39 H 0.631687 1.202066 1.290211 0
M  V30 40 H -2.626160 -0.009478 2.326677 0
M  V30 41 H -3.730954 1.272457 2.931093 0
M  V30 42 H -4.539222 -0.553779 4.007914 0
M  V30 43 H -4.164878 -1.688274 2.676314 0
M  V30 44 H -7.071886 -0.746480 0.853676 0
M  V30 45 H -5.422869 -1.440573 0.770156 0
M  V30 46 H -5.913250 1.499202 1.338614 0
M  V30 47 H -5.721141 0.950406 -0.391094 0
M  V30 48 H -4.202003 1.339588 -1.691035 0
M  V30 49 H 0.648126 2.636924 -2.471324 0
M  V30 50 H 0.005323 1.426775 -3.595778 0
M  V30 51 H 1.052548 0.856740 -2.270700 0
M  V30 END ATOM
M  V30 BEGIN BOND
M  V30 1 1 1 2
M  V30 2 2 2 3
M  V30 3 1 3 4
M  V30 4 2 4 5
M  V30 5 1 5 6
M  V30 6 2 6 7
M  V30 7 1 7 8
M  V30 8 1 8 9
M  V30 9 1 9 10
M  V30 10 1 10 11
M  V30 11 2 11 12
M  V30 12 1 11 13
M  V30 13 1 13 14
M  V30 14 2 14 15
M  V30 15 1 15 16
M  V30 16 1 16 17
M  V30 17 1 17 18
M  V30 18 1 18 19
M  V30 19 1 19 20
M  V30 20 1 20 21
M  V30 21 1 21 22
M  V30 22 2 16 23
M  V30 23 1 23 24
M  V30 24 2 24 25
M  V30 25 1 24 26
M  V30 26 1 26 27
M  V30 27 1 7 2
M  V30 28 1 26 14
M  V30 29 1 10 6
M  V30 30 1 22 17
M  V30 31 1 1 28
M  V30 32 1 1 29
M  V30 33 1 1 30
M  V30 34 1 3 31
M  V30 35 1 4 32
M  V30 36 1 5 33
M  V30 37 1 8 34
M  V30 38 1 8 35
M  V30 39 1 9 36
M  V30 40 1 9 37
M  V30 41 1 13 38
M  V30 42 1 13 39
M  V30 43 1 18 40
M  V30 44 1 18 41
M  V30 45 1 19 42
M  V30 46 1 19 43
M  V30 47 1 21 44
M  V30 48 1 21 45
M  V30 49 1 22 46
M  V30 50 1 22 47
M  V30 51 1 23 48
M  V30 52 1 27 49
M  V30 53 1 27 50
M  V30 54 1 27 51
M  V30 END BOND
M  V30 END CTAB
M  END
>  <Dataset>  (414) 
ChEMBL_Kinases

>  <Ligand_Instance>  (414) 
nan

>  <PDB_ID>  (414) 
nan

>  <Standardized_SMILES>  (414) 
Cc1cccc2c1CCN2C(=O)Cc1nc(N2CCOCC2)cc(=O)n1C

>  <Name>  (414) 
nan

>  <Pocket>  (414) 
nan

>  <ATP_Site>  (414) 
nan

>  <Peripheral>  (414) 
nan

>  <Num_H_Atoms_ProtBoundConf>  (414) 
nan

>  <Num_Resolved_Atoms>  (414) 
nan

>  <Num_Not_Resolved_Atoms>  (414) 
nan

$$$$
CHEMBL3699446
     RDKit          3D

  0  0  0  0  0  0  0  0  0  0999 V3000
M  V30 BEGIN CTAB
M  V30 COUNTS 56 59 0 0 0
M  V30 BEGIN ATOM
M  V30 1 C 2.694646 -0.014777 -0.796683 0
M  V30 2 O 1.838051 -0.666810 -1.722424 0
M  V30 3 C 0.988675 -1.655090 -1.236045 0
M  V30 4 C 0.930340 -2.025625 0.090305 0
M  V30 5 C 0.055580 -3.032883 0.520891 0
M  V30 6 C 0.188940 -3.208515 1.975970 0
M  V30 7 C 0.236609 -2.243626 2.913232 0
M  V30 8 C 0.154285 -0.820891 2.621352 0
M  V30 9 C 0.868084 0.333151 2.840261 0
M  V30 10 N 0.258813 1.466444 2.370254 0
M  V30 11 C 0.891927 2.752075 2.534286 0
M  V30 12 C 1.782517 3.183573 1.430326 0
M  V30 13 C 1.155969 3.370166 0.091565 0
M  V30 14 O 0.174731 4.337529 0.069281 0
M  V30 15 C -0.882322 0.997533 1.837299 0
M  V30 16 C -1.865760 1.751752 1.237582 0
M  V30 17 C -2.999780 1.149240 0.741942 0
M  V30 18 C -3.165210 -0.227596 0.841509 0
M  V30 19 C -2.147836 -0.913055 1.449684 0
M  V30 20 C -0.991833 -0.365669 1.962640 0
M  V30 21 C 0.375675 -2.914295 4.209538 0
M  V30 22 O 0.453879 -2.315816 5.327474 0
M  V30 23 N 0.413218 -4.325361 4.064248 0
M  V30 24 C 0.295203 -4.494152 2.656119 0
M  V30 25 O 0.279947 -5.593500 2.030248 0
M  V30 26 C -0.769995 -3.681149 -0.361228 0
M  V30 27 C -0.704605 -3.303780 -1.681887 0
M  V30 28 O -1.516321 -3.926432 -2.602659 0
M  V30 29 C -2.444225 -4.940854 -2.363948 0
M  V30 30 C 0.147562 -2.313431 -2.142409 0
M  V30 31 O 0.196057 -1.948877 -3.483206 0
M  V30 32 C -0.595570 -0.943146 -4.042208 0
M  V30 33 H 3.299918 -0.805231 -0.260900 0
M  V30 34 H 2.091517 0.464670 -0.027631 0
M  V30 35 H 3.452506 0.613624 -1.293339 0
M  V30 36 H 1.616098 -1.456179 0.697568 0
M  V30 37 H 1.820898 0.216710 3.353615 0
M  V30 38 H 0.100495 3.521394 2.717665 0
M  V30 39 H 1.513193 2.724803 3.474073 0
M  V30 40 H 2.666016 2.506431 1.397500 0
M  V30 41 H 2.192058 4.191316 1.727743 0
M  V30 42 H 0.719714 2.402651 -0.281818 0
M  V30 43 H 1.962387 3.678305 -0.622886 0
M  V30 44 H 0.343626 4.970560 -0.670161 0
M  V30 45 H -1.790787 2.824290 1.139538 0
M  V30 46 H -3.780297 1.747053 0.264784 0
M  V30 47 H -4.046009 -0.706992 0.458824 0
M  V30 48 H -2.325590 -1.971506 1.521770 0
M  V30 49 H 0.501190 -5.093610 4.738503 0
M  V30 50 H -1.394221 -4.430392 0.077182 0
M  V30 51 H -2.726341 -5.062969 -1.305460 0
M  V30 52 H -3.396662 -4.742804 -2.907906 0
M  V30 53 H -2.070104 -5.925803 -2.758379 0
M  V30 54 H 0.055291 -0.340293 -4.725015 0
M  V30 55 H -1.052687 -0.245297 -3.315439 0
M  V30 56 H -1.425957 -1.352726 -4.660294 0
M  V30 END ATOM
M  V30 BEGIN BOND
M  V30 1 1 1 2
M  V30 2 1 2 3
M  V30 3 2 3 4
M  V30 4 1 4 5
M  V30 5 1 5 6
M  V30 6 2 6 7
M  V30 7 1 7 8
M  V30 8 2 8 9
M  V30 9 1 9 10
M  V30 10 1 10 11
M  V30 11 1 11 12
M  V30 12 1 12 13
M  V30 13 1 13 14
M  V30 14 1 10 15
M  V30 15 2 15 16
M  V30 16 1 16 17
M  V30 17 2 17 18
M  V30 18 1 18 19
M  V30 19 2 19 20
M  V30 20 1 7 21
M  V30 21 2 21 22
M  V30 22 1 21 23
M  V30 23 1 23 24
M  V30 24 2 24 25
M  V30 25 2 5 26
M  V30 26 1 26 27
M  V30 27 1 27 28
M  V30 28 1 28 29
M  V30 29 2 27 30
M  V30 30 1 30 31
M  V30 31 1 31 32
M  V30 32 1 30 3
M  V30 33 1 24 6
M  V30 34 1 20 8
M  V30 35 1 20 15
M  V30 36 1 1 33
M  V30 37 1 1 34
M  V30 38 1 1 35
M  V30 39 1 4 36
M  V30 40 1 9 37
M  V30 41 1 11 38
M  V30 42 1 11 39
M  V30 43 1 12 40
M  V30 44 1 12 41
M  V30 45 1 13 42
M  V30 46 1 13 43
M  V30 47 1 14 44
M  V30 48 1 16 45
M  V30 49 1 17 46
M  V30 50 1 18 47
M  V30 51 1 19 48
M  V30 52 1 23 49
M  V30 53 1 26 50
M  V30 54 1 29 51
M  V30 55 1 29 52
M  V30 56 1 29 53
M  V30 57 1 32 54
M  V30 58 1 32 55
M  V30 59 1 32 56
M  V30 END BOND
M  V30 END CTAB
M  END
>  <Dataset>  (415) 
ChEMBL_Kinases

>  <Ligand_Instance>  (415) 
nan

>  <PDB_ID>  (415) 
nan

>  <Standardized_SMILES>  (415) 
COc1cc(C2=C(c3cn(CCCO)c4ccccc34)C(=O)NC2=O)cc(OC)c1OC

>  <Name>  (415) 
nan

>  <Pocket>  (415) 
nan

>  <ATP_Site>  (415) 
nan

>  <Peripheral>  (415) 
nan

>  <Num_H_Atoms_ProtBoundConf>  (415) 
nan

>  <Num_Resolved_Atoms>  (415) 
nan

>  <Num_Not_Resolved_Atoms>  (415) 
nan

$$$$
CHEMBL3699706
     RDKit          3D

  0  0  0  0  0  0  0  0  0  0999 V3000
M  V30 BEGIN CTAB
M  V30 COUNTS 53 57 0 0 0
M  V30 BEGIN ATOM
M  V30 1 C 1.807393 -1.789137 6.901350 0
M  V30 2 C 3.241083 -2.096613 6.592619 0
M  V30 3 O 3.884665 -1.014150 5.902911 0
M  V30 4 C 3.387667 -0.596785 4.673344 0
M  V30 5 C 3.926516 0.434180 3.920753 0
M  V30 6 C 3.400645 0.815846 2.704193 0
M  V30 7 N 2.324495 0.140799 2.261713 0
M  V30 8 C 1.610862 0.292354 1.126631 0
M  V30 9 C 1.767532 1.220030 0.024851 0
M  V30 10 C 0.827910 2.168460 -0.336864 0
M  V30 11 C 1.041845 3.024067 -1.401018 0
M  V30 12 C 2.190169 2.980291 -2.152304 0
M  V30 13 C 3.160117 2.044432 -1.825158 0
M  V30 14 C 2.926408 1.188996 -0.747448 0
M  V30 15 C 0.595313 -0.625267 1.103851 0
M  V30 16 C -0.490327 -0.971363 0.190241 0
M  V30 17 C -1.780318 -0.857385 0.684469 0
M  V30 18 C -2.847445 -1.157483 -0.095538 0
M  V30 19 C -2.715411 -1.583971 -1.396491 0
M  V30 20 C -3.710074 -1.958230 -2.400226 0
M  V30 21 N -3.538525 -1.267856 -3.690394 0
M  V30 22 C -5.135416 -1.882559 -1.901352 0
M  V30 23 C -5.426865 -3.100533 -2.754145 0
M  V30 24 C -3.937422 -3.423858 -2.652691 0
M  V30 25 C -1.433874 -1.700329 -1.897109 0
M  V30 26 C -0.308829 -1.398474 -1.118465 0
M  V30 27 N 0.703489 -1.341833 2.250448 0
M  V30 28 C 1.766552 -0.865990 2.955561 0
M  V30 29 N 2.299062 -1.218870 4.140212 0
M  V30 30 H 1.609849 -1.977865 7.976349 0
M  V30 31 H 1.589241 -0.702035 6.743354 0
M  V30 32 H 1.096666 -2.343789 6.251757 0
M  V30 33 H 3.795335 -2.277376 7.528539 0
M  V30 34 H 3.333801 -3.020682 5.969907 0
M  V30 35 H 4.779965 0.944966 4.306212 0
M  V30 36 H 3.827545 1.621828 2.122784 0
M  V30 37 H -0.074714 2.198206 0.258626 0
M  V30 38 H 0.301690 3.751265 -1.664805 0
M  V30 39 H 2.365171 3.644377 -2.984408 0
M  V30 40 H 4.095338 1.926776 -2.349103 0
M  V30 41 H 3.669223 0.446725 -0.469280 0
M  V30 42 H -1.971341 -0.526952 1.703256 0
M  V30 43 H -3.867224 -1.088281 0.228210 0
M  V30 44 H -4.286261 -1.592264 -4.330584 0
M  V30 45 H -3.728409 -0.258834 -3.483115 0
M  V30 46 H -5.668830 -0.958160 -2.198042 0
M  V30 47 H -5.193713 -2.171294 -0.842772 0
M  V30 48 H -6.040874 -3.872721 -2.230793 0
M  V30 49 H -5.799149 -2.819943 -3.737709 0
M  V30 50 H -3.622225 -3.811220 -3.647393 0
M  V30 51 H -3.745536 -4.095970 -1.799134 0
M  V30 52 H -1.131897 -2.017763 -2.889654 0
M  V30 53 H 0.715198 -1.471748 -1.458541 0
M  V30 END ATOM
M  V30 BEGIN BOND
M  V30 1 1 1 2
M  V30 2 1 2 3
M  V30 3 1 3 4
M  V30 4 1 4 5
M  V30 5 2 5 6
M  V30 6 1 6 7
M  V30 7 1 7 8
M  V30 8 1 8 9
M  V30 9 2 9 10
M  V30 10 1 10 11
M  V30 11 2 11 12
M  V30 12 1 12 13
M  V30 13 2 13 14
M  V30 14 2 8 15
M  V30 15 1 15 16
M  V30 16 2 16 17
M  V30 17 1 17 18
M  V30 18 2 18 19
M  V30 19 1 19 20
M  V30 20 1 20 21
M  V30 21 1 20 22
M  V30 22 1 22 23
M  V30 23 1 23 24
M  V30 24 1 19 25
M  V30 25 2 25 26
M  V30 26 1 15 27
M  V30 27 2 27 28
M  V30 28 1 28 29
M  V30 29 2 29 4
M  V30 30 1 28 7
M  V30 31 1 14 9
M  V30 32 1 26 16
M  V30 33 1 24 20
M  V30 34 1 1 30
M  V30 35 1 1 31
M  V30 36 1 1 32
M  V30 37 1 2 33
M  V30 38 1 2 34
M  V30 39 1 5 35
M  V30 40 1 6 36
M  V30 41 1 10 37
M  V30 42 1 11 38
M  V30 43 1 12 39
M  V30 44 1 13 40
M  V30 45 1 14 41
M  V30 46 1 17 42
M  V30 47 1 18 43
M  V30 48 1 21 44
M  V30 49 1 21 45
M  V30 50 1 22 46
M  V30 51 1 22 47
M  V30 52 1 23 48
M  V30 53 1 23 49
M  V30 54 1 24 50
M  V30 55 1 24 51
M  V30 56 1 25 52
M  V30 57 1 26 53
M  V30 END BOND
M  V30 END CTAB
M  END
>  <Dataset>  (416) 
ChEMBL_Kinases

>  <Ligand_Instance>  (416) 
nan

>  <PDB_ID>  (416) 
nan

>  <Standardized_SMILES>  (416) 
CCOc1ccn2c(-c3ccccc3)c(-c3ccc(C4(N)CCC4)cc3)nc2n1

>  <Name>  (416) 
nan

>  <Pocket>  (416) 
nan

>  <ATP_Site>  (416) 
nan

>  <Peripheral>  (416) 
nan

>  <Num_H_Atoms_ProtBoundConf>  (416) 
nan

>  <Num_Resolved_Atoms>  (416) 
nan

>  <Num_Not_Resolved_Atoms>  (416) 
nan

$$$$
CHEMBL3699717
     RDKit          3D

  0  0  0  0  0  0  0  0  0  0999 V3000
M  V30 BEGIN CTAB
M  V30 COUNTS 47 51 0 0 0
M  V30 BEGIN ATOM
M  V30 1 N 1.394490 -4.794557 2.933720 0
M  V30 2 C 0.251268 -4.482400 2.101093 0
M  V30 3 C 0.438125 -3.267534 1.285329 0
M  V30 4 C 0.201860 -3.068998 -0.039388 0
M  V30 5 C 0.420572 -1.883256 -0.684274 0
M  V30 6 C 0.910128 -0.817834 0.042559 0
M  V30 7 C 1.162096 0.478550 -0.592848 0
M  V30 8 N 1.943995 0.885803 -1.606715 0
M  V30 9 C 1.784866 2.231353 -1.781025 0
M  V30 10 C 2.375057 3.093879 -2.694723 0
M  V30 11 C 1.983082 4.416551 -2.593701 0
M  V30 12 Br 2.771600 5.647233 -3.835675 0
M  V30 13 C 1.079752 4.914038 -1.680359 0
M  V30 14 C 0.522508 3.991695 -0.789013 0
M  V30 15 N 0.894234 2.697009 -0.873981 0
M  V30 16 C 0.504382 1.624286 -0.136670 0
M  V30 17 C -0.472882 1.714308 0.971079 0
M  V30 18 C -1.683597 1.046261 0.890046 0
M  V30 19 C -2.549331 1.170017 1.956844 0
M  V30 20 C -2.190013 1.945314 3.060333 0
M  V30 21 C -0.968189 2.599657 3.104878 0
M  V30 22 C -0.080864 2.489906 2.043207 0
M  V30 23 C 1.163417 -0.969947 1.379899 0
M  V30 24 C 0.934255 -2.185899 2.019882 0
M  V30 25 C -0.252750 -5.695827 1.352646 0
M  V30 26 C -1.670842 -5.285476 1.697080 0
M  V30 27 C -1.064024 -4.488379 2.861474 0
M  V30 28 H 2.250513 -4.331610 2.528559 0
M  V30 29 H 1.214782 -4.459121 3.904405 0
M  V30 30 H -0.176327 -3.914190 -0.565870 0
M  V30 31 H 0.212515 -1.788007 -1.742306 0
M  V30 32 H 3.084000 2.737508 -3.421245 0
M  V30 33 H 0.837645 5.969602 -1.681366 0
M  V30 34 H -0.190043 4.347185 -0.059055 0
M  V30 35 H -1.945764 0.448189 0.024511 0
M  V30 36 H -3.522425 0.674067 1.967828 0
M  V30 37 H -2.837360 2.077790 3.933380 0
M  V30 38 H -0.636298 3.214342 3.934276 0
M  V30 39 H 0.891363 2.994106 2.047507 0
M  V30 40 H 1.550807 -0.101898 1.921786 0
M  V30 41 H 1.167077 -2.204085 3.083229 0
M  V30 42 H -0.034335 -5.751779 0.281175 0
M  V30 43 H 0.033959 -6.647550 1.880032 0
M  V30 44 H -2.362897 -6.080758 1.990144 0
M  V30 45 H -2.150587 -4.636424 0.920737 0
M  V30 46 H -1.069778 -5.018637 3.824307 0
M  V30 47 H -1.529956 -3.478752 2.957865 0
M  V30 END ATOM
M  V30 BEGIN BOND
M  V30 1 1 1 2
M  V30 2 1 2 3
M  V30 3 2 3 4
M  V30 4 1 4 5
M  V30 5 2 5 6
M  V30 6 1 6 7
M  V30 7 1 7 8
M  V30 8 2 8 9
M  V30 9 1 9 10
M  V30 10 2 10 11
M  V30 11 1 11 12
M  V30 12 1 11 13
M  V30 13 2 13 14
M  V30 14 1 14 15
M  V30 15 1 15 16
M  V30 16 1 16 17
M  V30 17 2 17 18
M  V30 18 1 18 19
M  V30 19 2 19 20
M  V30 20 1 20 21
M  V30 21 2 21 22
M  V30 22 1 6 23
M  V30 23 2 23 24
M  V30 24 1 2 25
M  V30 25 1 25 26
M  V30 26 1 26 27
M  V30 27 1 27 2
M  V30 28 1 24 3
M  V30 29 2 16 7
M  V30 30 1 22 17
M  V30 31 1 15 9
M  V30 32 1 1 28
M  V30 33 1 1 29
M  V30 34 1 4 30
M  V30 35 1 5 31
M  V30 36 1 10 32
M  V30 37 1 13 33
M  V30 38 1 14 34
M  V30 39 1 18 35
M  V30 40 1 19 36
M  V30 41 1 20 37
M  V30 42 1 21 38
M  V30 43 1 22 39
M  V30 44 1 23 40
M  V30 45 1 24 41
M  V30 46 1 25 42
M  V30 47 1 25 43
M  V30 48 1 26 44
M  V30 49 1 26 45
M  V30 50 1 27 46
M  V30 51 1 27 47
M  V30 END BOND
M  V30 END CTAB
M  END
>  <Dataset>  (417) 
ChEMBL_Kinases

>  <Ligand_Instance>  (417) 
nan

>  <PDB_ID>  (417) 
nan

>  <Standardized_SMILES>  (417) 
NC1(c2ccc(-c3nc4cc(Br)ccn4c3-c3ccccc3)cc2)CCC1

>  <Name>  (417) 
nan

>  <Pocket>  (417) 
nan

>  <ATP_Site>  (417) 
nan

>  <Peripheral>  (417) 
nan

>  <Num_H_Atoms_ProtBoundConf>  (417) 
nan

>  <Num_Resolved_Atoms>  (417) 
nan

>  <Num_Not_Resolved_Atoms>  (417) 
nan

$$$$
CHEMBL3699718
     RDKit          3D

  0  0  0  0  0  0  0  0  0  0999 V3000
M  V30 BEGIN CTAB
M  V30 COUNTS 61 66 0 0 0
M  V30 BEGIN ATOM
M  V30 1 N -3.472955 -2.143581 4.832802 0
M  V30 2 C -4.061544 -2.349565 3.521655 0
M  V30 3 C -3.173512 -2.039340 2.399410 0
M  V30 4 C -3.002046 -2.709109 1.215764 0
M  V30 5 C -2.127888 -2.268856 0.248799 0
M  V30 6 C -1.372754 -1.126096 0.410419 0
M  V30 7 C -0.417446 -0.572438 -0.533865 0
M  V30 8 N 0.868200 -0.224607 -0.421811 0
M  V30 9 C 1.340194 0.270690 -1.574601 0
M  V30 10 C 2.594427 0.747775 -1.911503 0
M  V30 11 C 2.814518 1.210889 -3.196917 0
M  V30 12 C 4.070403 1.744433 -3.717007 0
M  V30 13 O 4.724583 1.523959 -4.767260 0
M  V30 14 N 4.702571 2.718548 -2.874679 0
M  V30 15 C 5.952122 3.323569 -3.275809 0
M  V30 16 C 5.936359 4.748369 -2.769482 0
M  V30 17 C 5.002605 4.694798 -1.602726 0
M  V30 18 C 4.400486 3.321200 -1.572989 0
M  V30 19 C 1.770435 1.180257 -4.098232 0
M  V30 20 C 0.528167 0.705062 -3.759699 0
M  V30 21 N 0.341044 0.259394 -2.498719 0
M  V30 22 C -0.735247 -0.262908 -1.842606 0
M  V30 23 C -2.012769 -0.440650 -2.541001 0
M  V30 24 C -3.225485 0.092765 -2.258490 0
M  V30 25 C -4.324111 -0.197901 -3.036155 0
M  V30 26 C -4.214968 -1.044610 -4.125902 0
M  V30 27 C -2.976018 -1.601670 -4.428796 0
M  V30 28 C -1.900381 -1.294387 -3.640427 0
M  V30 29 C -1.536457 -0.429434 1.615347 0
M  V30 30 C -2.423740 -0.893706 2.578075 0
M  V30 31 C -5.341133 -1.521978 3.368980 0
M  V30 32 C -5.982823 -2.760093 2.744032 0
M  V30 33 C -4.927408 -3.572052 3.428585 0
M  V30 34 H -3.530441 -3.074398 5.319821 0
M  V30 35 H -2.463098 -1.887091 4.721780 0
M  V30 36 H -3.603665 -3.596111 1.109201 0
M  V30 37 H -1.998485 -2.801096 -0.688484 0
M  V30 38 H 3.430954 0.784839 -1.224163 0
M  V30 39 H 6.070532 3.288180 -4.390423 0
M  V30 40 H 6.774412 2.730969 -2.863575 0
M  V30 41 H 5.512004 5.455600 -3.524479 0
M  V30 42 H 6.949877 5.057854 -2.479993 0
M  V30 43 H 4.205594 5.491269 -1.637165 0
M  V30 44 H 5.593712 4.925249 -0.676442 0
M  V30 45 H 4.917980 2.691748 -0.817290 0
M  V30 46 H 3.320183 3.427216 -1.401996 0
M  V30 47 H 1.883793 1.529929 -5.111596 0
M  V30 48 H -0.295457 0.683153 -4.477488 0
M  V30 49 H -3.215181 0.734331 -1.388390 0
M  V30 50 H -5.264902 0.251664 -2.757747 0
M  V30 51 H -5.129096 -1.234012 -4.699399 0
M  V30 52 H -2.966178 -2.244157 -5.278191 0
M  V30 53 H -0.989252 -1.764683 -3.944907 0
M  V30 54 H -0.961939 0.475791 1.781715 0
M  V30 55 H -2.475944 -0.268467 3.487622 0
M  V30 56 H -5.787425 -1.175994 4.305780 0
M  V30 57 H -5.257939 -0.710836 2.621156 0
M  V30 58 H -5.923565 -2.774015 1.634009 0
M  V30 59 H -6.990915 -2.927412 3.131049 0
M  V30 60 H -4.548851 -4.445816 2.881589 0
M  V30 61 H -5.257604 -3.862212 4.441937 0
M  V30 END ATOM
M  V30 BEGIN BOND
M  V30 1 1 1 2
M  V30 2 1 2 3
M  V30 3 2 3 4
M  V30 4 1 4 5
M  V30 5 2 5 6
M  V30 6 1 6 7
M  V30 7 1 7 8
M  V30 8 2 8 9
M  V30 9 1 9 10
M  V30 10 2 10 11
M  V30 11 1 11 12
M  V30 12 2 12 13
M  V30 13 1 12 14
M  V30 14 1 14 15
M  V30 15 1 15 16
M  V30 16 1 16 17
M  V30 17 1 17 18
M  V30 18 1 11 19
M  V30 19 2 19 20
M  V30 20 1 20 21
M  V30 21 1 21 22
M  V30 22 1 22 23
M  V30 23 2 23 24
M  V30 24 1 24 25
M  V30 25 2 25 26
M  V30 26 1 26 27
M  V30 27 2 27 28
M  V30 28 1 6 29
M  V30 29 2 29 30
M  V30 30 1 2 31
M  V30 31 1 31 32
M  V30 32 1 32 33
M  V30 33 1 33 2
M  V30 34 1 30 3
M  V30 35 2 22 7
M  V30 36 1 28 23
M  V30 37 1 21 9
M  V30 38 1 18 14
M  V30 39 1 1 34
M  V30 40 1 1 35
M  V30 41 1 4 36
M  V30 42 1 5 37
M  V30 43 1 10 38
M  V30 44 1 15 39
M  V30 45 1 15 40
M  V30 46 1 16 41
M  V30 47 1 16 42
M  V30 48 1 17 43
M  V30 49 1 17 44
M  V30 50 1 18 45
M  V30 51 1 18 46
M  V30 52 1 19 47
M  V30 53 1 20 48
M  V30 54 1 24 49
M  V30 55 1 25 50
M  V30 56 1 26 51
M  V30 57 1 27 52
M  V30 58 1 28 53
M  V30 59 1 29 54
M  V30 60 1 30 55
M  V30 61 1 31 56
M  V30 62 1 31 57
M  V30 63 1 32 58
M  V30 64 1 32 59
M  V30 65 1 33 60
M  V30 66 1 33 61
M  V30 END BOND
M  V30 END CTAB
M  END
>  <Dataset>  (418) 
ChEMBL_Kinases

>  <Ligand_Instance>  (418) 
nan

>  <PDB_ID>  (418) 
nan

>  <Standardized_SMILES>  (418) 
NC1(c2ccc(-c3nc4cc(C(=O)N5CCCC5)ccn4c3-c3ccccc3)cc2)CCC1

>  <Name>  (418) 
nan

>  <Pocket>  (418) 
nan

>  <ATP_Site>  (418) 
nan

>  <Peripheral>  (418) 
nan

>  <Num_H_Atoms_ProtBoundConf>  (418) 
nan

>  <Num_Resolved_Atoms>  (418) 
nan

>  <Num_Not_Resolved_Atoms>  (418) 
nan

$$$$
CHEMBL3699759
     RDKit          3D

  0  0  0  0  0  0  0  0  0  0999 V3000
M  V30 BEGIN CTAB
M  V30 COUNTS 47 51 0 0 0
M  V30 BEGIN ATOM
M  V30 1 N -2.165891 -4.256285 2.307740 0
M  V30 2 C -1.142293 -4.436059 1.293850 0
M  V30 3 C -0.502194 -3.187800 0.833110 0
M  V30 4 C -0.399092 -2.715773 -0.459843 0
M  V30 5 C 0.232430 -1.522499 -0.745791 0
M  V30 6 C 0.783025 -0.763951 0.271933 0
M  V30 7 C 1.443317 0.494086 -0.072869 0
M  V30 8 N 2.508118 0.764588 -0.841975 0
M  V30 9 C 2.749944 2.095442 -0.862852 0
M  V30 10 C 3.738178 2.812355 -1.520065 0
M  V30 11 Br 5.068515 1.968994 -2.624138 0
M  V30 12 C 3.798409 4.203783 -1.396714 0
M  V30 13 C 2.819989 4.763280 -0.592096 0
M  V30 14 Cl 2.861650 6.510032 -0.411467 0
M  V30 15 C 1.836667 4.057350 0.062742 0
M  V30 16 N 1.825878 2.701292 -0.093569 0
M  V30 17 C 1.021599 1.735083 0.395059 0
M  V30 18 C -0.125086 1.990806 1.289831 0
M  V30 19 C -1.438791 1.707028 0.966009 0
M  V30 20 C -2.447119 1.989219 1.886601 0
M  V30 21 C -2.117538 2.544050 3.098724 0
M  V30 22 C -0.812824 2.832960 3.436939 0
M  V30 23 C 0.194254 2.555045 2.526595 0
M  V30 24 C 0.688855 -1.223846 1.582006 0
M  V30 25 C 0.048685 -2.434247 1.875421 0
M  V30 26 C -1.732066 -5.243996 0.160286 0
M  V30 27 C -1.369623 -6.478480 1.000200 0
M  V30 28 C -0.220648 -5.612689 1.534947 0
M  V30 29 H -1.974803 -3.437621 2.943745 0
M  V30 30 H -3.043015 -3.975613 1.776907 0
M  V30 31 H -0.845027 -3.346306 -1.210283 0
M  V30 32 H 0.294614 -1.183264 -1.770624 0
M  V30 33 H 4.555589 4.785832 -1.896352 0
M  V30 34 H 1.095092 4.563747 0.682470 0
M  V30 35 H -1.589553 1.268391 -0.020587 0
M  V30 36 H -3.450602 1.738757 1.560406 0
M  V30 37 H -2.927865 2.756071 3.803897 0
M  V30 38 H -0.624343 3.273572 4.418619 0
M  V30 39 H 1.206693 2.799252 2.835823 0
M  V30 40 H 1.140191 -0.583608 2.331661 0
M  V30 41 H 0.044964 -2.674127 2.923492 0
M  V30 42 H -2.809151 -5.098976 0.012827 0
M  V30 43 H -1.099609 -5.318629 -0.762201 0
M  V30 44 H -1.026926 -7.347548 0.410671 0
M  V30 45 H -2.153985 -6.643595 1.741217 0
M  V30 46 H 0.631626 -5.566150 0.840288 0
M  V30 47 H 0.019848 -5.804225 2.599007 0
M  V30 END ATOM
M  V30 BEGIN BOND
M  V30 1 1 1 2
M  V30 2 1 2 3
M  V30 3 2 3 4
M  V30 4 1 4 5
M  V30 5 2 5 6
M  V30 6 1 6 7
M  V30 7 1 7 8
M  V30 8 2 8 9
M  V30 9 1 9 10
M  V30 10 1 10 11
M  V30 11 2 10 12
M  V30 12 1 12 13
M  V30 13 1 13 14
M  V30 14 2 13 15
M  V30 15 1 15 16
M  V30 16 1 16 17
M  V30 17 1 17 18
M  V30 18 2 18 19
M  V30 19 1 19 20
M  V30 20 2 20 21
M  V30 21 1 21 22
M  V30 22 2 22 23
M  V30 23 1 6 24
M  V30 24 2 24 25
M  V30 25 1 2 26
M  V30 26 1 26 27
M  V30 27 1 27 28
M  V30 28 1 28 2
M  V30 29 1 25 3
M  V30 30 2 17 7
M  V30 31 1 23 18
M  V30 32 1 16 9
M  V30 33 1 1 29
M  V30 34 1 1 30
M  V30 35 1 4 31
M  V30 36 1 5 32
M  V30 37 1 12 33
M  V30 38 1 15 34
M  V30 39 1 19 35
M  V30 40 1 20 36
M  V30 41 1 21 37
M  V30 42 1 22 38
M  V30 43 1 23 39
M  V30 44 1 24 40
M  V30 45 1 25 41
M  V30 46 1 26 42
M  V30 47 1 26 43
M  V30 48 1 27 44
M  V30 49 1 27 45
M  V30 50 1 28 46
M  V30 51 1 28 47
M  V30 END BOND
M  V30 END CTAB
M  END
>  <Dataset>  (419) 
ChEMBL_Kinases

>  <Ligand_Instance>  (419) 
nan

>  <PDB_ID>  (419) 
nan

>  <Standardized_SMILES>  (419) 
NC1(c2ccc(-c3nc4c(Br)cc(Cl)cn4c3-c3ccccc3)cc2)CCC1

>  <Name>  (419) 
nan

>  <Pocket>  (419) 
nan

>  <ATP_Site>  (419) 
nan

>  <Peripheral>  (419) 
nan

>  <Num_H_Atoms_ProtBoundConf>  (419) 
nan

>  <Num_Resolved_Atoms>  (419) 
nan

>  <Num_Not_Resolved_Atoms>  (419) 
nan

$$$$
CHEMBL369976
     RDKit          3D

  0  0  0  0  0  0  0  0  0  0999 V3000
M  V30 BEGIN CTAB
M  V30 COUNTS 45 49 0 0 0
M  V30 BEGIN ATOM
M  V30 1 N 2.164147 -1.153697 4.176181 0
M  V30 2 C 2.581972 -1.117273 2.819713 0
M  V30 3 N 3.838313 -1.088062 2.352313 0
M  V30 4 N 3.868215 -1.058210 1.028195 0
M  V30 5 C 5.060623 -1.021630 0.185893 0
M  V30 6 C 5.482404 0.403809 -0.096050 0
M  V30 7 O 6.634330 0.385581 -0.910512 0
M  V30 8 C 2.572314 -1.068242 0.605648 0
M  V30 9 N 2.067167 -1.047881 -0.654019 0
M  V30 10 N 0.744248 -1.063176 -0.859468 0
M  V30 11 C -0.079855 -1.099299 0.211209 0
M  V30 12 C -1.537424 -1.118945 0.115161 0
M  V30 13 C -2.335181 -0.089482 0.629528 0
M  V30 14 C -1.889416 1.136022 1.323626 0
M  V30 15 C -1.120156 1.954582 0.544994 0
M  V30 16 C -0.615267 3.144175 1.028774 0
M  V30 17 C -0.900700 3.508529 2.336565 0
M  V30 18 C -1.677610 2.659681 3.089143 0
M  V30 19 C -2.193096 1.461965 2.620915 0
M  V30 20 N -3.631126 -0.430649 0.367632 0
M  V30 21 N -3.647661 -1.595721 -0.268335 0
M  V30 22 C -4.725032 -2.289966 -0.709838 0
M  V30 23 C -4.425877 -3.480706 -1.341318 0
M  V30 24 C -3.154386 -3.994902 -1.547115 0
M  V30 25 C -2.090210 -3.247030 -1.077155 0
M  V30 26 C -2.397343 -2.059841 -0.448038 0
M  V30 27 C 0.394439 -1.120985 1.509486 0
M  V30 28 C 1.757810 -1.105603 1.738529 0
M  V30 29 H 2.135259 -0.509645 4.995280 0
M  V30 30 H 1.757556 -2.055830 4.524259 0
M  V30 31 H 5.869978 -1.521095 0.757453 0
M  V30 32 H 4.924291 -1.558642 -0.775634 0
M  V30 33 H 5.750623 0.920854 0.845773 0
M  V30 34 H 4.667604 0.983249 -0.543841 0
M  V30 35 H 6.429290 -0.077728 -1.751725 0
M  V30 36 H -0.843706 1.756869 -0.485031 0
M  V30 37 H 0.001971 3.857914 0.490992 0
M  V30 38 H -0.538641 4.433754 2.793452 0
M  V30 39 H -1.900363 2.940201 4.103874 0
M  V30 40 H -2.799278 0.778065 3.175397 0
M  V30 41 H -5.757021 -1.983781 -0.603289 0
M  V30 42 H -5.264660 -4.058904 -1.705610 0
M  V30 43 H -3.016808 -4.938502 -2.053393 0
M  V30 44 H -1.078340 -3.592685 -1.206321 0
M  V30 45 H -0.254562 -1.150141 2.386852 0
M  V30 END ATOM
M  V30 BEGIN BOND
M  V30 1 1 1 2
M  V30 2 2 2 3
M  V30 3 1 3 4
M  V30 4 1 4 5
M  V30 5 1 5 6
M  V30 6 1 6 7
M  V30 7 1 4 8
M  V30 8 2 8 9
M  V30 9 1 9 10
M  V30 10 2 10 11
M  V30 11 1 11 12
M  V30 12 1 12 13
M  V30 13 1 13 14
M  V30 14 2 14 15
M  V30 15 1 15 16
M  V30 16 2 16 17
M  V30 17 1 17 18
M  V30 18 2 18 19
M  V30 19 2 13 20
M  V30 20 1 20 21
M  V30 21 1 21 22
M  V30 22 2 22 23
M  V30 23 1 23 24
M  V30 24 2 24 25
M  V30 25 1 25 26
M  V30 26 1 11 27
M  V30 27 2 27 28
M  V30 28 1 28 2
M  V30 29 1 28 8
M  V30 30 2 26 12
M  V30 31 1 19 14
M  V30 32 1 26 21
M  V30 33 1 1 29
M  V30 34 1 1 30
M  V30 35 1 5 31
M  V30 36 1 5 32
M  V30 37 1 6 33
M  V30 38 1 6 34
M  V30 39 1 7 35
M  V30 40 1 15 36
M  V30 41 1 16 37
M  V30 42 1 17 38
M  V30 43 1 18 39
M  V30 44 1 19 40
M  V30 45 1 22 41
M  V30 46 1 23 42
M  V30 47 1 24 43
M  V30 48 1 25 44
M  V30 49 1 27 45
M  V30 END BOND
M  V30 END CTAB
M  END
>  <Dataset>  (420) 
ChEMBL_Kinases

>  <Ligand_Instance>  (420) 
nan

>  <PDB_ID>  (420) 
nan

>  <Standardized_SMILES>  (420) 
Nc1nn(CCO)c2nnc(-c3c(-c4ccccc4)nn4ccccc34)cc12

>  <Name>  (420) 
nan

>  <Pocket>  (420) 
nan

>  <ATP_Site>  (420) 
nan

>  <Peripheral>  (420) 
nan

>  <Num_H_Atoms_ProtBoundConf>  (420) 
nan

>  <Num_Resolved_Atoms>  (420) 
nan

>  <Num_Not_Resolved_Atoms>  (420) 
nan

$$$$
CHEMBL3699764
     RDKit          3D

  0  0  0  0  0  0  0  0  0  0999 V3000
M  V30 BEGIN CTAB
M  V30 COUNTS 63 68 0 0 0
M  V30 BEGIN ATOM
M  V30 1 C 3.998056 -2.048685 3.724583 0
M  V30 2 O 4.213988 -0.858088 4.450036 0
M  V30 3 C 3.890108 0.408470 4.014783 0
M  V30 4 C 4.136223 1.536874 4.792525 0
M  V30 5 N 3.809982 2.751979 4.340944 0
M  V30 6 C 3.248314 2.905508 3.149255 0
M  V30 7 C 2.972892 1.840552 2.321254 0
M  V30 8 C 2.354360 2.119341 1.030568 0
M  V30 9 C 2.833531 3.156808 0.240685 0
M  V30 10 C 2.264875 3.437716 -0.983356 0
M  V30 11 C 2.808671 4.553212 -1.789787 0
M  V30 12 C 1.219145 2.668259 -1.396108 0
M  V30 13 N 0.772167 1.668534 -0.613519 0
M  V30 14 C -0.236132 0.797483 -0.825780 0
M  V30 15 C -1.090301 0.755597 -1.998064 0
M  V30 16 C -1.214273 -0.285049 -2.897866 0
M  V30 17 C -2.077134 -0.187547 -3.984544 0
M  V30 18 C -2.836461 0.961676 -4.190869 0
M  V30 19 C -2.697207 1.978056 -3.287743 0
M  V30 20 C -1.849936 1.912843 -2.199265 0
M  V30 21 C -0.355886 -0.069866 0.241629 0
M  V30 22 C -1.277397 -1.175646 0.486772 0
M  V30 23 C -0.628413 -2.392195 0.656251 0
M  V30 24 C -1.327471 -3.580415 0.900913 0
M  V30 25 C -2.717625 -3.515316 0.972219 0
M  V30 26 C -3.523377 -4.717890 1.225473 0
M  V30 27 N -4.703118 -4.422146 2.020347 0
M  V30 28 C -3.900749 -5.419658 -0.087213 0
M  V30 29 C -2.866810 -6.484954 0.213079 0
M  V30 30 C -2.831695 -5.951189 1.637786 0
M  V30 31 C -3.340684 -2.297047 0.800877 0
M  V30 32 C -2.662489 -1.117859 0.559097 0
M  V30 33 N 0.610649 0.305920 1.101809 0
M  V30 34 C 1.293406 1.359149 0.582730 0
M  V30 35 C 3.301867 0.574794 2.767910 0
M  V30 36 H 4.444684 -2.042472 2.713299 0
M  V30 37 H 4.413622 -2.886654 4.298767 0
M  V30 38 H 2.893540 -2.254212 3.615214 0
M  V30 39 H 4.601253 1.366574 5.770119 0
M  V30 40 H 3.027295 3.940431 2.888772 0
M  V30 41 H 3.665702 3.724409 0.632939 0
M  V30 42 H 3.594294 5.088562 -1.242005 0
M  V30 43 H 3.158208 4.148431 -2.766437 0
M  V30 44 H 1.935546 5.204611 -2.057207 0
M  V30 45 H 0.795087 2.916603 -2.364528 0
M  V30 46 H -0.601100 -1.159022 -2.693036 0
M  V30 47 H -2.099437 -1.057224 -4.627224 0
M  V30 48 H -3.487835 0.981447 -5.049183 0
M  V30 49 H -3.278246 2.881083 -3.429368 0
M  V30 50 H -1.808846 2.779353 -1.533251 0
M  V30 51 H 0.459247 -2.537636 0.616645 0
M  V30 52 H -0.826662 -4.526273 1.032843 0
M  V30 53 H -5.397687 -3.854214 1.477296 0
M  V30 54 H -5.186922 -5.296799 2.335869 0
M  V30 55 H -3.698743 -4.775040 -0.963145 0
M  V30 56 H -4.940626 -5.793421 -0.130536 0
M  V30 57 H -3.209981 -7.532060 0.101477 0
M  V30 58 H -1.906712 -6.348492 -0.334228 0
M  V30 59 H -1.862211 -5.912965 2.130538 0
M  V30 60 H -3.503584 -6.605356 2.266469 0
M  V30 61 H -4.421009 -2.157359 0.841068 0
M  V30 62 H -3.078793 -0.146872 0.417677 0
M  V30 63 H 3.073371 -0.247224 2.094037 0
M  V30 END ATOM
M  V30 BEGIN BOND
M  V30 1 1 1 2
M  V30 2 1 2 3
M  V30 3 2 3 4
M  V30 4 1 4 5
M  V30 5 2 5 6
M  V30 6 1 6 7
M  V30 7 1 7 8
M  V30 8 2 8 9
M  V30 9 1 9 10
M  V30 10 1 10 11
M  V30 11 2 10 12
M  V30 12 1 12 13
M  V30 13 1 13 14
M  V30 14 1 14 15
M  V30 15 2 15 16
M  V30 16 1 16 17
M  V30 17 2 17 18
M  V30 18 1 18 19
M  V30 19 2 19 20
M  V30 20 2 14 21
M  V30 21 1 21 22
M  V30 22 2 22 23
M  V30 23 1 23 24
M  V30 24 2 24 25
M  V30 25 1 25 26
M  V30 26 1 26 27
M  V30 27 1 26 28
M  V30 28 1 28 29
M  V30 29 1 29 30
M  V30 30 1 25 31
M  V30 31 2 31 32
M  V30 32 1 21 33
M  V30 33 2 33 34
M  V30 34 2 7 35
M  V30 35 1 35 3
M  V30 36 1 34 8
M  V30 37 1 34 13
M  V30 38 1 20 15
M  V30 39 1 32 22
M  V30 40 1 30 26
M  V30 41 1 1 36
M  V30 42 1 1 37
M  V30 43 1 1 38
M  V30 44 1 4 39
M  V30 45 1 6 40
M  V30 46 1 9 41
M  V30 47 1 11 42
M  V30 48 1 11 43
M  V30 49 1 11 44
M  V30 50 1 12 45
M  V30 51 1 16 46
M  V30 52 1 17 47
M  V30 53 1 18 48
M  V30 54 1 19 49
M  V30 55 1 20 50
M  V30 56 1 23 51
M  V30 57 1 24 52
M  V30 58 1 27 53
M  V30 59 1 27 54
M  V30 60 1 28 55
M  V30 61 1 28 56
M  V30 62 1 29 57
M  V30 63 1 29 58
M  V30 64 1 30 59
M  V30 65 1 30 60
M  V30 66 1 31 61
M  V30 67 1 32 62
M  V30 68 1 35 63
M  V30 END BOND
M  V30 END CTAB
M  END
>  <Dataset>  (421) 
ChEMBL_Kinases

>  <Ligand_Instance>  (421) 
nan

>  <PDB_ID>  (421) 
nan

>  <Standardized_SMILES>  (421) 
COc1cncc(-c2cc(C)cn3c(-c4ccccc4)c(-c4ccc(C5(N)CCC5)cc4)nc23)c1

>  <Name>  (421) 
nan

>  <Pocket>  (421) 
nan

>  <ATP_Site>  (421) 
nan

>  <Peripheral>  (421) 
nan

>  <Num_H_Atoms_ProtBoundConf>  (421) 
nan

>  <Num_Resolved_Atoms>  (421) 
nan

>  <Num_Not_Resolved_Atoms>  (421) 
nan

$$$$
CHEMBL3699767
     RDKit          3D

  0  0  0  0  0  0  0  0  0  0999 V3000
M  V30 BEGIN CTAB
M  V30 COUNTS 51 55 0 0 0
M  V30 BEGIN ATOM
M  V30 1 N -0.760436 -1.620820 7.167346 0
M  V30 2 C -0.603490 -1.497418 5.760983 0
M  V30 3 O -1.318793 -2.194131 5.019561 0
M  V30 4 C 0.387244 -0.561218 5.246014 0
M  V30 5 C 1.176152 0.203208 6.112117 0
M  V30 6 C 2.106605 1.082387 5.591280 0
M  V30 7 Br 3.171442 2.115442 6.787421 0
M  V30 8 C 2.256148 1.205100 4.216784 0
M  V30 9 N 1.499550 0.471893 3.378142 0
M  V30 10 C 1.401971 0.359075 2.036145 0
M  V30 11 C 2.188277 1.091933 1.071245 0
M  V30 12 C 3.123923 0.622446 0.188436 0
M  V30 13 C 3.814340 1.421780 -0.695446 0
M  V30 14 C 3.590184 2.780945 -0.736708 0
M  V30 15 C 2.650565 3.290436 0.142093 0
M  V30 16 C 1.967511 2.472236 1.022009 0
M  V30 17 C 0.437650 -0.564909 1.698390 0
M  V30 18 C -0.061256 -1.058335 0.419985 0
M  V30 19 C -1.401123 -0.707968 0.245989 0
M  V30 20 C -2.099405 -1.064681 -0.889098 0
M  V30 21 C -1.489780 -1.784317 -1.894748 0
M  V30 22 C -1.989688 -2.286781 -3.189401 0
M  V30 23 N -1.162577 -1.879253 -4.325428 0
M  V30 24 C -3.432875 -1.968472 -3.516391 0
M  V30 25 C -3.821784 -3.286059 -2.877123 0
M  V30 26 C -2.392536 -3.742027 -3.202314 0
M  V30 27 C -0.147153 -2.132951 -1.715193 0
M  V30 28 C 0.554582 -1.778973 -0.583284 0
M  V30 29 N -0.054431 -1.016723 2.876713 0
M  V30 30 C 0.591916 -0.385799 3.891496 0
M  V30 31 H -1.693604 -1.720497 7.600433 0
M  V30 32 H -0.021640 -1.628887 7.912749 0
M  V30 33 H 1.041066 0.089769 7.186145 0
M  V30 34 H 2.974906 1.884590 3.794914 0
M  V30 35 H 3.296421 -0.441720 0.227776 0
M  V30 36 H 4.543431 0.937033 -1.358799 0
M  V30 37 H 4.173114 3.312854 -1.454099 0
M  V30 38 H 2.505806 4.360568 0.075946 0
M  V30 39 H 1.262527 3.040932 1.643531 0
M  V30 40 H -2.024242 -0.148799 0.932057 0
M  V30 41 H -3.127889 -0.844562 -1.115310 0
M  V30 42 H -0.794502 -2.688099 -4.855779 0
M  V30 43 H -1.673551 -1.289722 -5.010092 0
M  V30 44 H -3.864197 -1.114936 -2.975765 0
M  V30 45 H -3.679221 -2.026683 -4.596410 0
M  V30 46 H -4.006217 -3.236572 -1.782633 0
M  V30 47 H -4.554343 -3.894950 -3.425843 0
M  V30 48 H -2.328269 -4.233791 -4.179293 0
M  V30 49 H -2.030192 -4.378540 -2.395161 0
M  V30 50 H 0.482344 -2.694798 -2.403115 0
M  V30 51 H 1.583224 -1.995941 -0.343608 0
M  V30 END ATOM
M  V30 BEGIN BOND
M  V30 1 1 1 2
M  V30 2 2 2 3
M  V30 3 1 2 4
M  V30 4 2 4 5
M  V30 5 1 5 6
M  V30 6 1 6 7
M  V30 7 2 6 8
M  V30 8 1 8 9
M  V30 9 1 9 10
M  V30 10 1 10 11
M  V30 11 2 11 12
M  V30 12 1 12 13
M  V30 13 2 13 14
M  V30 14 1 14 15
M  V30 15 2 15 16
M  V30 16 2 10 17
M  V30 17 1 17 18
M  V30 18 2 18 19
M  V30 19 1 19 20
M  V30 20 2 20 21
M  V30 21 1 21 22
M  V30 22 1 22 23
M  V30 23 1 22 24
M  V30 24 1 24 25
M  V30 25 1 25 26
M  V30 26 1 21 27
M  V30 27 2 27 28
M  V30 28 1 17 29
M  V30 29 2 29 30
M  V30 30 1 30 4
M  V30 31 1 30 9
M  V30 32 1 16 11
M  V30 33 1 28 18
M  V30 34 1 26 22
M  V30 35 1 1 31
M  V30 36 1 1 32
M  V30 37 1 5 33
M  V30 38 1 8 34
M  V30 39 1 12 35
M  V30 40 1 13 36
M  V30 41 1 14 37
M  V30 42 1 15 38
M  V30 43 1 16 39
M  V30 44 1 19 40
M  V30 45 1 20 41
M  V30 46 1 23 42
M  V30 47 1 23 43
M  V30 48 1 24 44
M  V30 49 1 24 45
M  V30 50 1 25 46
M  V30 51 1 25 47
M  V30 52 1 26 48
M  V30 53 1 26 49
M  V30 54 1 27 50
M  V30 55 1 28 51
M  V30 END BOND
M  V30 END CTAB
M  END
>  <Dataset>  (422) 
ChEMBL_Kinases

>  <Ligand_Instance>  (422) 
nan

>  <PDB_ID>  (422) 
nan

>  <Standardized_SMILES>  (422) 
NC(=O)c1cc(Br)cn2c(-c3ccccc3)c(-c3ccc(C4(N)CCC4)cc3)nc12

>  <Name>  (422) 
nan

>  <Pocket>  (422) 
nan

>  <ATP_Site>  (422) 
nan

>  <Peripheral>  (422) 
nan

>  <Num_H_Atoms_ProtBoundConf>  (422) 
nan

>  <Num_Resolved_Atoms>  (422) 
nan

>  <Num_Not_Resolved_Atoms>  (422) 
nan

$$$$
CHEMBL3699445
     RDKit          3D

  0  0  0  0  0  0  0  0  0  0999 V3000
M  V30 BEGIN CTAB
M  V30 COUNTS 76 79 0 0 0
M  V30 BEGIN ATOM
M  V30 1 C 3.132966 1.632827 1.533358 0
M  V30 2 O 3.404764 0.863756 0.568631 0
M  V30 3 C 3.680751 0.076807 -0.422665 0
M  V30 4 C 3.322337 -0.221320 -1.682350 0
M  V30 5 C 3.756685 -1.123199 -2.603882 0
M  V30 6 C 2.884568 -0.889696 -3.795374 0
M  V30 7 C 1.595441 -0.938596 -3.874108 0
M  V30 8 C 0.470365 -1.204686 -2.971923 0
M  V30 9 C -0.644006 -0.319618 -3.036229 0
M  V30 10 N -1.556428 -0.808062 -2.125673 0
M  V30 11 C -2.739126 0.043245 -1.984612 0
M  V30 12 C -2.519160 1.253050 -1.207924 0
M  V30 13 C -2.205641 1.312928 0.236239 0
M  V30 14 N -3.218290 0.848265 1.130528 0
M  V30 15 C -4.096722 0.065317 1.838655 0
M  V30 16 O -3.712475 -1.054635 1.341161 0
M  V30 17 C -5.151697 -0.226066 2.780536 0
M  V30 18 N -5.480958 -1.661054 2.742694 0
M  V30 19 C -4.659526 0.015506 4.210665 0
M  V30 20 C -5.669754 -0.206393 5.293758 0
M  V30 21 C -4.906312 0.082314 6.613771 0
M  V30 22 C -6.759967 0.864767 5.255373 0
M  V30 23 C -1.026963 -1.891903 -1.575287 0
M  V30 24 C -1.559913 -2.705527 -0.642913 0
M  V30 25 C -0.915726 -3.809779 -0.138372 0
M  V30 26 C 0.342572 -4.025921 -0.678200 0
M  V30 27 C 0.982845 -3.240087 -1.665034 0
M  V30 28 C 0.218299 -2.168389 -2.069817 0
M  V30 29 C 1.421008 -0.600211 -5.328114 0
M  V30 30 O 0.209841 -0.568177 -5.763162 0
M  V30 31 N 2.728845 -0.377501 -5.928357 0
M  V30 32 C 3.770897 -0.573538 -4.882742 0
M  V30 33 O 4.661202 -0.326507 -5.689583 0
M  V30 34 C 4.806073 -1.942565 -2.185532 0
M  V30 35 C 5.310170 -1.782747 -0.904481 0
M  V30 36 O 6.289377 -2.567533 -0.533506 0
M  V30 37 C 6.992351 -3.583658 -1.057769 0
M  V30 38 C 4.740092 -0.778287 -0.052686 0
M  V30 39 O 5.397513 -0.804088 1.177275 0
M  V30 40 C 6.455356 0.035793 1.541792 0
M  V30 41 H 3.776265 2.579730 1.658261 0
M  V30 42 H 2.095590 2.113292 1.449857 0
M  V30 43 H 3.145276 1.128907 2.546304 0
M  V30 44 H 2.502240 0.518781 -1.823986 0
M  V30 45 H -0.720858 0.533769 -3.634448 0
M  V30 46 H -3.636870 -0.556400 -1.649456 0
M  V30 47 H -3.037037 0.334371 -3.040601 0
M  V30 48 H -3.371658 1.997653 -1.434983 0
M  V30 49 H -1.651186 1.882280 -1.694322 0
M  V30 50 H -1.827774 2.343504 0.485711 0
M  V30 51 H -1.240701 0.700770 0.441855 0
M  V30 52 H -3.554621 1.772633 1.635664 0
M  V30 53 H -6.060557 0.352857 2.635014 0
M  V30 54 H -6.026325 -1.906442 1.872507 0
M  V30 55 H -4.601877 -2.211514 2.848461 0
M  V30 56 H -3.872620 -0.766968 4.362856 0
M  V30 57 H -4.316283 1.043471 4.278545 0
M  V30 58 H -6.124560 -1.206014 5.321448 0
M  V30 59 H -4.348358 -0.861918 6.858465 0
M  V30 60 H -4.145433 0.862291 6.398831 0
M  V30 61 H -5.570641 0.398520 7.419977 0
M  V30 62 H -7.166111 0.949499 4.207545 0
M  V30 63 H -7.611731 0.493813 5.842532 0
M  V30 64 H -6.407980 1.820689 5.653722 0
M  V30 65 H -2.555019 -2.549272 -0.293889 0
M  V30 66 H -1.331858 -4.448661 0.625782 0
M  V30 67 H 0.883322 -4.897712 -0.274956 0
M  V30 68 H 1.951479 -3.430049 -2.062292 0
M  V30 69 H 2.437074 -0.134275 -6.930818 0
M  V30 70 H 5.002809 -2.551396 -3.031566 0
M  V30 71 H 7.472123 -4.186032 -0.218189 0
M  V30 72 H 7.862933 -3.277990 -1.695602 0
M  V30 73 H 6.420959 -4.314914 -1.702498 0
M  V30 74 H 6.034106 1.084625 1.680174 0
M  V30 75 H 7.332176 -0.007969 0.895206 0
M  V30 76 H 6.744652 -0.278586 2.592199 0
M  V30 END ATOM
M  V30 BEGIN BOND
M  V30 1 1 1 2
M  V30 2 1 2 3
M  V30 3 2 3 4
M  V30 4 1 4 5
M  V30 5 1 5 6
M  V30 6 2 6 7
M  V30 7 1 7 8
M  V30 8 2 8 9
M  V30 9 1 9 10
M  V30 10 1 10 11
M  V30 11 1 11 12
M  V30 12 1 12 13
M  V30 13 1 13 14
M  V30 14 1 14 15
M  V30 15 2 15 16
M  V30 16 1 15 17
M  V30 17 1 17 18
M  V30 18 1 17 19
M  V30 19 1 19 20
M  V30 20 1 20 21
M  V30 21 1 20 22
M  V30 22 1 10 23
M  V30 23 2 23 24
M  V30 24 1 24 25
M  V30 25 2 25 26
M  V30 26 1 26 27
M  V30 27 2 27 28
M  V30 28 1 7 29
M  V30 29 2 29 30
M  V30 30 1 29 31
M  V30 31 1 31 32
M  V30 32 2 32 33
M  V30 33 2 5 34
M  V30 34 1 34 35
M  V30 35 1 35 36
M  V30 36 1 36 37
M  V30 37 2 35 38
M  V30 38 1 38 39
M  V30 39 1 39 40
M  V30 40 1 38 3
M  V30 41 1 32 6
M  V30 42 1 28 8
M  V30 43 1 28 23
M  V30 44 1 1 41
M  V30 45 1 1 42
M  V30 46 1 1 43
M  V30 47 1 4 44
M  V30 48 1 9 45
M  V30 49 1 11 46
M  V30 50 1 11 47
M  V30 51 1 12 48
M  V30 52 1 12 49
M  V30 53 1 13 50
M  V30 54 1 13 51
M  V30 55 1 14 52
M  V30 56 1 17 53
M  V30 57 1 18 54
M  V30 58 1 18 55
M  V30 59 1 19 56
M  V30 60 1 19 57
M  V30 61 1 20 58
M  V30 62 1 21 59
M  V30 63 1 21 60
M  V30 64 1 21 61
M  V30 65 1 22 62
M  V30 66 1 22 63
M  V30 67 1 22 64
M  V30 68 1 24 65
M  V30 69 1 25 66
M  V30 70 1 26 67
M  V30 71 1 27 68
M  V30 72 1 31 69
M  V30 73 1 34 70
M  V30 74 1 37 71
M  V30 75 1 37 72
M  V30 76 1 37 73
M  V30 77 1 40 74
M  V30 78 1 40 75
M  V30 79 1 40 76
M  V30 END BOND
M  V30 END CTAB
M  END
>  <Dataset>  (423) 
ChEMBL_Kinases

>  <Ligand_Instance>  (423) 
nan

>  <PDB_ID>  (423) 
nan

>  <Standardized_SMILES>  (423) 
COc1cc(C2=C(c3cn(CCCNC(=O)C(N)CC(C)C)c4ccccc34)C(=O)NC2=O)cc(OC)c1OC

>  <Name>  (423) 
nan

>  <Pocket>  (423) 
nan

>  <ATP_Site>  (423) 
nan

>  <Peripheral>  (423) 
nan

>  <Num_H_Atoms_ProtBoundConf>  (423) 
nan

>  <Num_Resolved_Atoms>  (423) 
nan

>  <Num_Not_Resolved_Atoms>  (423) 
nan

$$$$
CHEMBL3698716
     RDKit          3D

  0  0  0  0  0  0  0  0  0  0999 V3000
M  V30 BEGIN CTAB
M  V30 COUNTS 59 64 0 0 0
M  V30 BEGIN ATOM
M  V30 1 C 2.087450 -7.350443 3.007022 0
M  V30 2 C 2.345067 -6.000576 3.090878 0
M  V30 3 C 2.091392 -5.167569 2.020801 0
M  V30 4 C 2.250080 -3.819725 1.821304 0
M  V30 5 C 2.740486 -2.859790 2.701614 0
M  V30 6 N 2.797490 -1.591711 2.250799 0
M  V30 7 C 2.394407 -1.292064 1.005253 0
M  V30 8 N 2.536499 0.093676 0.735093 0
M  V30 9 C 1.527615 1.083803 0.614133 0
M  V30 10 C 1.787618 2.435888 0.382535 0
M  V30 11 N 0.775293 3.305017 0.253842 0
M  V30 12 C -0.516102 2.912925 0.340998 0
M  V30 13 N -1.493442 3.929893 0.191115 0
M  V30 14 C -1.008162 5.296198 0.215112 0
M  V30 15 C -1.501088 6.028706 1.444178 0
M  V30 16 C -1.851861 5.110146 2.566320 0
M  V30 17 N -3.007419 4.326959 2.320116 0
M  V30 18 C -3.653825 4.484000 1.064338 0
M  V30 19 C -2.891930 3.659283 0.018534 0
M  V30 20 C -0.758641 1.579886 0.569400 0
M  V30 21 N 0.226653 0.664957 0.706695 0
M  V30 22 N 1.928133 -2.255067 0.194841 0
M  V30 23 C 1.836802 -3.546311 0.564905 0
M  V30 24 N 1.403880 -4.654368 -0.090976 0
M  V30 25 C 0.876162 -4.755661 -1.425797 0
M  V30 26 C -0.071106 -5.817422 -1.703478 0
M  V30 27 C -0.957558 -5.269898 -2.803099 0
M  V30 28 C -0.699020 -3.806265 -2.890652 0
M  V30 29 C 0.079351 -3.480643 -1.639469 0
M  V30 30 C 1.569450 -5.635050 0.816914 0
M  V30 31 C 1.338882 -7.000692 0.814569 0
M  V30 32 N 1.578318 -7.831272 1.844334 0
M  V30 33 H 2.332569 -7.893720 3.927203 0
M  V30 34 H 2.751419 -5.543970 3.990639 0
M  V30 35 H 3.051541 -3.164891 3.699073 0
M  V30 36 H 3.540259 0.347852 0.623596 0
M  V30 37 H 2.830249 2.714586 0.315991 0
M  V30 38 H -1.401058 5.813022 -0.674208 0
M  V30 39 H 0.096994 5.272540 0.212729 0
M  V30 40 H -2.270072 6.793097 1.222764 0
M  V30 41 H -0.622465 6.636767 1.821957 0
M  V30 42 H -1.973359 5.756683 3.485626 0
M  V30 43 H -0.989951 4.431190 2.746445 0
M  V30 44 H -3.636231 4.224888 3.148333 0
M  V30 45 H -4.698948 4.105912 1.160240 0
M  V30 46 H -3.758297 5.531484 0.723985 0
M  V30 47 H -3.169961 4.122250 -0.973289 0
M  V30 48 H -3.187055 2.612615 0.023710 0
M  V30 49 H -1.774668 1.282468 0.635105 0
M  V30 50 H 1.665400 -4.738968 -2.217855 0
M  V30 51 H -0.776825 -6.069035 -0.885224 0
M  V30 52 H 0.374539 -6.740013 -2.191233 0
M  V30 53 H -2.038594 -5.477375 -2.638562 0
M  V30 54 H -0.710231 -5.688260 -3.816900 0
M  V30 55 H -1.654703 -3.220053 -2.905285 0
M  V30 56 H -0.064484 -3.502697 -3.757756 0
M  V30 57 H -0.673179 -3.328906 -0.839917 0
M  V30 58 H 0.723979 -2.583876 -1.781267 0
M  V30 59 H 0.941128 -7.485340 -0.048524 0
M  V30 END ATOM
M  V30 BEGIN BOND
M  V30 1 2 1 2
M  V30 2 1 2 3
M  V30 3 1 3 4
M  V30 4 2 4 5
M  V30 5 1 5 6
M  V30 6 2 6 7
M  V30 7 1 7 8
M  V30 8 1 8 9
M  V30 9 2 9 10
M  V30 10 1 10 11
M  V30 11 2 11 12
M  V30 12 1 12 13
M  V30 13 1 13 14
M  V30 14 1 14 15
M  V30 15 1 15 16
M  V30 16 1 16 17
M  V30 17 1 17 18
M  V30 18 1 18 19
M  V30 19 1 12 20
M  V30 20 2 20 21
M  V30 21 1 7 22
M  V30 22 2 22 23
M  V30 23 1 23 24
M  V30 24 1 24 25
M  V30 25 1 25 26
M  V30 26 1 26 27
M  V30 27 1 27 28
M  V30 28 1 28 29
M  V30 29 1 24 30
M  V30 30 1 30 31
M  V30 31 2 31 32
M  V30 32 1 32 1
M  V30 33 2 30 3
M  V30 34 1 23 4
M  V30 35 1 29 25
M  V30 36 1 21 9
M  V30 37 1 19 13
M  V30 38 1 1 33
M  V30 39 1 2 34
M  V30 40 1 5 35
M  V30 41 1 8 36
M  V30 42 1 10 37
M  V30 43 1 14 38
M  V30 44 1 14 39
M  V30 45 1 15 40
M  V30 46 1 15 41
M  V30 47 1 16 42
M  V30 48 1 16 43
M  V30 49 1 17 44
M  V30 50 1 18 45
M  V30 51 1 18 46
M  V30 52 1 19 47
M  V30 53 1 19 48
M  V30 54 1 20 49
M  V30 55 1 25 50
M  V30 56 1 26 51
M  V30 57 1 26 52
M  V30 58 1 27 53
M  V30 59 1 27 54
M  V30 60 1 28 55
M  V30 61 1 28 56
M  V30 62 1 29 57
M  V30 63 1 29 58
M  V30 64 1 31 59
M  V30 END BOND
M  V30 END CTAB
M  END
>  <Dataset>  (424) 
ChEMBL_Kinases

>  <Ligand_Instance>  (424) 
nan

>  <PDB_ID>  (424) 
nan

>  <Standardized_SMILES>  (424) 
c1cc2c3cnc(Nc4cnc(N5CCCNCC5)cn4)nc3n(C3CCCC3)c2cn1

>  <Name>  (424) 
nan

>  <Pocket>  (424) 
nan

>  <ATP_Site>  (424) 
nan

>  <Peripheral>  (424) 
nan

>  <Num_H_Atoms_ProtBoundConf>  (424) 
nan

>  <Num_Resolved_Atoms>  (424) 
nan

>  <Num_Not_Resolved_Atoms>  (424) 
nan

$$$$
CHEMBL3698715
     RDKit          3D

  0  0  0  0  0  0  0  0  0  0999 V3000
M  V30 BEGIN CTAB
M  V30 COUNTS 65 70 0 0 0
M  V30 BEGIN ATOM
M  V30 1 C 6.107319 -0.328594 4.572356 0
M  V30 2 N 5.638241 0.999091 4.207462 0
M  V30 3 C 4.643012 1.402732 5.148513 0
M  V30 4 C 5.167450 0.976321 2.842924 0
M  V30 5 C 4.041847 0.033460 2.583651 0
M  V30 6 C 3.701947 0.190458 1.097597 0
M  V30 7 N 3.179518 1.516922 0.832846 0
M  V30 8 C 1.862119 1.764149 0.360070 0
M  V30 9 C 1.338218 3.010978 0.100603 0
M  V30 10 N 0.086193 3.180134 -0.344764 0
M  V30 11 C -0.742639 2.146539 -0.568361 0
M  V30 12 N -2.063390 2.354933 -1.040072 0
M  V30 13 C -3.073691 1.402338 -1.331509 0
M  V30 14 N -4.266197 1.816921 -1.772282 0
M  V30 15 C -5.275053 0.990342 -2.071087 0
M  V30 16 C -5.118838 -0.349657 -1.932434 0
M  V30 17 C -5.889362 -1.485026 -2.129017 0
M  V30 18 C -7.188355 -1.623767 -2.572100 0
M  V30 19 C -7.766557 -2.871415 -2.694774 0
M  V30 20 N -6.988428 -3.918305 -2.358333 0
M  V30 21 C -5.719616 -3.799301 -1.924516 0
M  V30 22 C -5.104921 -2.574081 -1.787736 0
M  V30 23 N -3.874446 -2.187149 -1.384115 0
M  V30 24 C -2.799854 -3.013833 -0.958284 0
M  V30 25 C -2.223375 -3.949294 -1.963486 0
M  V30 26 C -1.200340 -4.685708 -1.085805 0
M  V30 27 C -1.737647 -4.657780 0.315389 0
M  V30 28 C -3.006161 -3.817968 0.279510 0
M  V30 29 C -3.912474 -0.823643 -1.483089 0
M  V30 30 N -2.957989 0.074334 -1.207690 0
M  V30 31 C -0.205963 0.907159 -0.304912 0
M  V30 32 N 1.056413 0.716476 0.145372 0
M  V30 33 C 4.172565 2.499304 1.115614 0
M  V30 34 C 4.785596 2.380841 2.480406 0
M  V30 35 H 6.964030 -0.624159 3.929769 0
M  V30 36 H 5.250369 -1.029208 4.535326 0
M  V30 37 H 6.448143 -0.348307 5.632984 0
M  V30 38 H 4.589131 2.493601 5.337889 0
M  V30 39 H 4.922652 0.970784 6.154168 0
M  V30 40 H 3.638399 1.026841 4.929700 0
M  V30 41 H 6.008488 0.694498 2.177773 0
M  V30 42 H 4.367959 -1.026616 2.697964 0
M  V30 43 H 3.111642 0.260856 3.112794 0
M  V30 44 H 2.940453 -0.591258 0.818062 0
M  V30 45 H 4.623005 0.058498 0.498402 0
M  V30 46 H 1.967975 3.873536 0.265704 0
M  V30 47 H -2.321696 3.368067 -1.193029 0
M  V30 48 H -6.218841 1.356902 -2.422330 0
M  V30 49 H -7.772509 -0.729127 -2.831510 0
M  V30 50 H -8.786368 -2.969038 -3.043369 0
M  V30 51 H -5.173211 -4.685080 -1.678805 0
M  V30 52 H -1.933684 -2.334586 -0.696451 0
M  V30 53 H -1.743073 -3.443421 -2.824127 0
M  V30 54 H -2.873044 -4.715398 -2.367816 0
M  V30 55 H -0.280886 -4.057702 -1.080109 0
M  V30 56 H -1.006590 -5.698285 -1.475670 0
M  V30 57 H -1.936352 -5.677166 0.708357 0
M  V30 58 H -1.059532 -4.166528 1.042425 0
M  V30 59 H -3.898349 -4.426506 0.338082 0
M  V30 60 H -3.059902 -3.102314 1.146298 0
M  V30 61 H -0.771025 0.003221 -0.445013 0
M  V30 62 H 3.854517 3.547634 0.966665 0
M  V30 63 H 5.013410 2.341963 0.379713 0
M  V30 64 H 5.703705 2.995351 2.561341 0
M  V30 65 H 4.084975 2.747229 3.261657 0
M  V30 END ATOM
M  V30 BEGIN BOND
M  V30 1 1 1 2
M  V30 2 1 2 3
M  V30 3 1 2 4
M  V30 4 1 4 5
M  V30 5 1 5 6
M  V30 6 1 6 7
M  V30 7 1 7 8
M  V30 8 2 8 9
M  V30 9 1 9 10
M  V30 10 2 10 11
M  V30 11 1 11 12
M  V30 12 1 12 13
M  V30 13 2 13 14
M  V30 14 1 14 15
M  V30 15 2 15 16
M  V30 16 1 16 17
M  V30 17 2 17 18
M  V30 18 1 18 19
M  V30 19 2 19 20
M  V30 20 1 20 21
M  V30 21 2 21 22
M  V30 22 1 22 23
M  V30 23 1 23 24
M  V30 24 1 24 25
M  V30 25 1 25 26
M  V30 26 1 26 27
M  V30 27 1 27 28
M  V30 28 1 23 29
M  V30 29 2 29 30
M  V30 30 1 11 31
M  V30 31 2 31 32
M  V30 32 1 7 33
M  V30 33 1 33 34
M  V30 34 1 34 4
M  V30 35 1 32 8
M  V30 36 1 30 13
M  V30 37 1 29 16
M  V30 38 1 22 17
M  V30 39 1 28 24
M  V30 40 1 1 35
M  V30 41 1 1 36
M  V30 42 1 1 37
M  V30 43 1 3 38
M  V30 44 1 3 39
M  V30 45 1 3 40
M  V30 46 1 4 41
M  V30 47 1 5 42
M  V30 48 1 5 43
M  V30 49 1 6 44
M  V30 50 1 6 45
M  V30 51 1 9 46
M  V30 52 1 12 47
M  V30 53 1 15 48
M  V30 54 1 18 49
M  V30 55 1 19 50
M  V30 56 1 21 51
M  V30 57 1 24 52
M  V30 58 1 25 53
M  V30 59 1 25 54
M  V30 60 1 26 55
M  V30 61 1 26 56
M  V30 62 1 27 57
M  V30 63 1 27 58
M  V30 64 1 28 59
M  V30 65 1 28 60
M  V30 66 1 31 61
M  V30 67 1 33 62
M  V30 68 1 33 63
M  V30 69 1 34 64
M  V30 70 1 34 65
M  V30 END BOND
M  V30 END CTAB
M  END
>  <Dataset>  (425) 
ChEMBL_Kinases

>  <Ligand_Instance>  (425) 
nan

>  <PDB_ID>  (425) 
nan

>  <Standardized_SMILES>  (425) 
CN(C)C1CCN(c2cnc(Nc3ncc4c5ccncc5n(C5CCCC5)c4n3)cn2)CC1

>  <Name>  (425) 
nan

>  <Pocket>  (425) 
nan

>  <ATP_Site>  (425) 
nan

>  <Peripheral>  (425) 
nan

>  <Num_H_Atoms_ProtBoundConf>  (425) 
nan

>  <Num_Resolved_Atoms>  (425) 
nan

>  <Num_Not_Resolved_Atoms>  (425) 
nan

$$$$
CHEMBL3698714
     RDKit          3D

  0  0  0  0  0  0  0  0  0  0999 V3000
M  V30 BEGIN CTAB
M  V30 COUNTS 55 60 0 0 0
M  V30 BEGIN ATOM
M  V30 1 C -0.993795 -5.849045 4.908193 0
M  V30 2 C -0.128395 -4.849716 4.532568 0
M  V30 3 C -0.138345 -4.376950 3.237157 0
M  V30 4 C 0.620469 -3.390323 2.610476 0
M  V30 5 C 1.632307 -2.543144 3.026326 0
M  V30 6 N 2.171381 -1.682481 2.146608 0
M  V30 7 C 1.726222 -1.642820 0.855197 0
M  V30 8 N 2.327314 -0.711332 -0.070415 0
M  V30 9 C 1.886673 0.659367 -0.192328 0
M  V30 10 C 2.440161 1.563149 -1.079469 0
M  V30 11 N 1.950962 2.836838 -1.101529 0
M  V30 12 C 0.954423 3.200528 -0.278701 0
M  V30 13 N 0.500432 4.542228 -0.358733 0
M  V30 14 C 1.018333 5.529328 -1.282969 0
M  V30 15 C 0.981959 6.887446 -0.624439 0
M  V30 16 O 1.153859 6.862747 0.741876 0
M  V30 17 C 0.199465 6.091418 1.396581 0
M  V30 18 C -0.531209 5.171828 0.437257 0
M  V30 19 C 0.384873 2.327344 0.611825 0
M  V30 20 N 0.894931 1.086292 0.600828 0
M  V30 21 N 0.740215 -2.468913 0.451803 0
M  V30 22 C 0.156491 -3.362661 1.300364 0
M  V30 23 N -0.824099 -4.255998 1.085029 0
M  V30 24 C -1.556302 -4.546104 -0.100072 0
M  V30 25 C -2.308682 -3.395601 -0.700762 0
M  V30 26 C -2.447305 -3.737689 -2.191544 0
M  V30 27 C -1.729687 -5.040290 -2.384342 0
M  V30 28 C -0.689012 -4.982716 -1.260665 0
M  V30 29 C -0.991070 -4.862060 2.266352 0
M  V30 30 C -1.832874 -5.874697 2.740504 0
M  V30 31 N -1.838814 -6.347785 3.994498 0
M  V30 32 H -1.013835 -6.242861 5.913430 0
M  V30 33 H 0.567717 -4.426931 5.254847 0
M  V30 34 H 1.915296 -2.645103 4.056239 0
M  V30 35 H 3.115414 -1.002883 -0.693421 0
M  V30 36 H 3.234020 1.229925 -1.718666 0
M  V30 37 H 1.987472 5.269873 -1.712345 0
M  V30 38 H 0.274361 5.580868 -2.115885 0
M  V30 39 H 0.086314 7.495023 -0.926233 0
M  V30 40 H 1.842781 7.454557 -1.034772 0
M  V30 41 H 0.770464 5.427833 2.082926 0
M  V30 42 H -0.535838 6.655734 1.971615 0
M  V30 43 H -1.105225 4.460796 1.049112 0
M  V30 44 H -1.277786 5.732442 -0.172286 0
M  V30 45 H -0.412488 2.575291 1.287357 0
M  V30 46 H -2.282115 -5.359428 0.058002 0
M  V30 47 H -1.785602 -2.430280 -0.578907 0
M  V30 48 H -3.357953 -3.361004 -0.310106 0
M  V30 49 H -3.490473 -3.850169 -2.506250 0
M  V30 50 H -2.002313 -2.961841 -2.831242 0
M  V30 51 H -2.378866 -5.923505 -2.287668 0
M  V30 52 H -1.185644 -4.997027 -3.361267 0
M  V30 53 H 0.009233 -4.172745 -1.595248 0
M  V30 54 H -0.216937 -5.956811 -1.109558 0
M  V30 55 H -2.543794 -6.330878 2.070100 0
M  V30 END ATOM
M  V30 BEGIN BOND
M  V30 1 2 1 2
M  V30 2 1 2 3
M  V30 3 1 3 4
M  V30 4 2 4 5
M  V30 5 1 5 6
M  V30 6 2 6 7
M  V30 7 1 7 8
M  V30 8 1 8 9
M  V30 9 2 9 10
M  V30 10 1 10 11
M  V30 11 2 11 12
M  V30 12 1 12 13
M  V30 13 1 13 14
M  V30 14 1 14 15
M  V30 15 1 15 16
M  V30 16 1 16 17
M  V30 17 1 17 18
M  V30 18 1 12 19
M  V30 19 2 19 20
M  V30 20 1 7 21
M  V30 21 2 21 22
M  V30 22 1 22 23
M  V30 23 1 23 24
M  V30 24 1 24 25
M  V30 25 1 25 26
M  V30 26 1 26 27
M  V30 27 1 27 28
M  V30 28 1 23 29
M  V30 29 1 29 30
M  V30 30 2 30 31
M  V30 31 1 31 1
M  V30 32 2 29 3
M  V30 33 1 22 4
M  V30 34 1 28 24
M  V30 35 1 20 9
M  V30 36 1 18 13
M  V30 37 1 1 32
M  V30 38 1 2 33
M  V30 39 1 5 34
M  V30 40 1 8 35
M  V30 41 1 10 36
M  V30 42 1 14 37
M  V30 43 1 14 38
M  V30 44 1 15 39
M  V30 45 1 15 40
M  V30 46 1 17 41
M  V30 47 1 17 42
M  V30 48 1 18 43
M  V30 49 1 18 44
M  V30 50 1 19 45
M  V30 51 1 24 46
M  V30 52 1 25 47
M  V30 53 1 25 48
M  V30 54 1 26 49
M  V30 55 1 26 50
M  V30 56 1 27 51
M  V30 57 1 27 52
M  V30 58 1 28 53
M  V30 59 1 28 54
M  V30 60 1 30 55
M  V30 END BOND
M  V30 END CTAB
M  END
>  <Dataset>  (426) 
ChEMBL_Kinases

>  <Ligand_Instance>  (426) 
nan

>  <PDB_ID>  (426) 
nan

>  <Standardized_SMILES>  (426) 
c1cc2c3cnc(Nc4cnc(N5CCOCC5)cn4)nc3n(C3CCCC3)c2cn1

>  <Name>  (426) 
nan

>  <Pocket>  (426) 
nan

>  <ATP_Site>  (426) 
nan

>  <Peripheral>  (426) 
nan

>  <Num_H_Atoms_ProtBoundConf>  (426) 
nan

>  <Num_Resolved_Atoms>  (426) 
nan

>  <Num_Not_Resolved_Atoms>  (426) 
nan

$$$$
CHEMBL3698713
     RDKit          3D

  0  0  0  0  0  0  0  0  0  0999 V3000
M  V30 BEGIN CTAB
M  V30 COUNTS 59 64 0 0 0
M  V30 BEGIN ATOM
M  V30 1 N 3.852056 -1.833907 4.919815 0
M  V30 2 C 3.933661 -3.282845 4.873093 0
M  V30 3 C 2.596245 -3.948929 4.706460 0
M  V30 4 C 2.084878 -3.917030 3.309491 0
M  V30 5 N 3.129583 -3.497571 2.392487 0
M  V30 6 C 2.924544 -2.460528 1.434515 0
M  V30 7 C 3.907212 -2.140238 0.518563 0
M  V30 8 N 3.594994 -1.138293 -0.340136 0
M  V30 9 C 2.413771 -0.494071 -0.310972 0
M  V30 10 N 2.062791 0.556566 -1.225278 0
M  V30 11 C 0.812397 1.227633 -1.132247 0
M  V30 12 N 0.986197 2.543621 -0.848019 0
M  V30 13 C -0.126669 3.322197 -0.712949 0
M  V30 14 C -1.349451 2.706175 -0.876695 0
M  V30 15 C -2.603586 3.274109 -0.783952 0
M  V30 16 C -3.063630 4.553485 -0.520269 0
M  V30 17 C -4.417662 4.802519 -0.495035 0
M  V30 18 N -5.288239 3.793079 -0.728653 0
M  V30 19 C -4.843718 2.555306 -0.983729 0
M  V30 20 C -3.484757 2.240669 -1.022938 0
M  V30 21 N -2.852517 1.080701 -1.255816 0
M  V30 22 C -3.375603 -0.235522 -1.536450 0
M  V30 23 C -2.270863 -1.237403 -1.794200 0
M  V30 24 C -3.073950 -2.425634 -2.336567 0
M  V30 25 C -4.371118 -1.848645 -2.873602 0
M  V30 26 C -4.136709 -0.329285 -2.838889 0
M  V30 27 C -1.544041 1.371577 -1.165411 0
M  V30 28 N -0.392020 0.660548 -1.285418 0
M  V30 29 C 1.471091 -0.857756 0.627317 0
M  V30 30 N 1.733872 -1.842389 1.497106 0
M  V30 31 C 4.316213 -4.287972 2.641768 0
M  V30 32 C 4.981603 -3.741671 3.908039 0
M  V30 33 H 3.212618 -1.513790 5.651076 0
M  V30 34 H 3.744786 -1.384298 3.992415 0
M  V30 35 H 4.288210 -3.584835 5.898734 0
M  V30 36 H 2.639806 -4.963265 5.095919 0
M  V30 37 H 1.879013 -3.329623 5.320480 0
M  V30 38 H 1.149622 -3.295308 3.188012 0
M  V30 39 H 1.776129 -4.966103 3.028999 0
M  V30 40 H 4.864247 -2.637035 0.471423 0
M  V30 41 H 2.773345 0.798797 -1.955185 0
M  V30 42 H -0.037484 4.380197 -0.487568 0
M  V30 43 H -2.310645 5.325670 -0.340384 0
M  V30 44 H -4.772775 5.811383 -0.287430 0
M  V30 45 H -5.579573 1.787788 -1.160623 0
M  V30 46 H -3.955731 -0.646137 -0.680914 0
M  V30 47 H -1.580316 -0.920762 -2.598176 0
M  V30 48 H -1.794644 -1.568923 -0.863435 0
M  V30 49 H -2.532934 -2.908198 -3.171970 0
M  V30 50 H -3.324509 -3.150514 -1.531513 0
M  V30 51 H -5.209111 -2.023119 -2.136952 0
M  V30 52 H -4.646384 -2.211797 -3.865980 0
M  V30 53 H -5.077741 0.210544 -2.871022 0
M  V30 54 H -3.428957 -0.043489 -3.653038 0
M  V30 55 H 0.510420 -0.360791 0.679228 0
M  V30 56 H 5.037650 -4.142726 1.806669 0
M  V30 57 H 4.106422 -5.360589 2.806156 0
M  V30 58 H 5.700415 -2.927439 3.624826 0
M  V30 59 H 5.630416 -4.559071 4.288369 0
M  V30 END ATOM
M  V30 BEGIN BOND
M  V30 1 1 1 2
M  V30 2 1 2 3
M  V30 3 1 3 4
M  V30 4 1 4 5
M  V30 5 1 5 6
M  V30 6 2 6 7
M  V30 7 1 7 8
M  V30 8 2 8 9
M  V30 9 1 9 10
M  V30 10 1 10 11
M  V30 11 2 11 12
M  V30 12 1 12 13
M  V30 13 2 13 14
M  V30 14 1 14 15
M  V30 15 2 15 16
M  V30 16 1 16 17
M  V30 17 2 17 18
M  V30 18 1 18 19
M  V30 19 2 19 20
M  V30 20 1 20 21
M  V30 21 1 21 22
M  V30 22 1 22 23
M  V30 23 1 23 24
M  V30 24 1 24 25
M  V30 25 1 25 26
M  V30 26 1 21 27
M  V30 27 2 27 28
M  V30 28 1 9 29
M  V30 29 2 29 30
M  V30 30 1 5 31
M  V30 31 1 31 32
M  V30 32 1 32 2
M  V30 33 1 30 6
M  V30 34 1 28 11
M  V30 35 1 27 14
M  V30 36 1 20 15
M  V30 37 1 26 22
M  V30 38 1 1 33
M  V30 39 1 1 34
M  V30 40 1 2 35
M  V30 41 1 3 36
M  V30 42 1 3 37
M  V30 43 1 4 38
M  V30 44 1 4 39
M  V30 45 1 7 40
M  V30 46 1 10 41
M  V30 47 1 13 42
M  V30 48 1 16 43
M  V30 49 1 17 44
M  V30 50 1 19 45
M  V30 51 1 22 46
M  V30 52 1 23 47
M  V30 53 1 23 48
M  V30 54 1 24 49
M  V30 55 1 24 50
M  V30 56 1 25 51
M  V30 57 1 25 52
M  V30 58 1 26 53
M  V30 59 1 26 54
M  V30 60 1 29 55
M  V30 61 1 31 56
M  V30 62 1 31 57
M  V30 63 1 32 58
M  V30 64 1 32 59
M  V30 END BOND
M  V30 END CTAB
M  END
>  <Dataset>  (427) 
ChEMBL_Kinases

>  <Ligand_Instance>  (427) 
nan

>  <PDB_ID>  (427) 
nan

>  <Standardized_SMILES>  (427) 
NC1CCN(c2cnc(Nc3ncc4c5ccncc5n(C5CCCC5)c4n3)cn2)CC1

>  <Name>  (427) 
nan

>  <Pocket>  (427) 
nan

>  <ATP_Site>  (427) 
nan

>  <Peripheral>  (427) 
nan

>  <Num_H_Atoms_ProtBoundConf>  (427) 
nan

>  <Num_Resolved_Atoms>  (427) 
nan

>  <Num_Not_Resolved_Atoms>  (427) 
nan

$$$$
CHEMBL3698712
     RDKit          3D

  0  0  0  0  0  0  0  0  0  0999 V3000
M  V30 BEGIN CTAB
M  V30 COUNTS 59 64 0 0 0
M  V30 BEGIN ATOM
M  V30 1 C 3.840216 -1.226471 5.634070 0
M  V30 2 C 3.006980 -2.454700 5.393919 0 CFG=1
M  V30 3 C 1.812185 -2.204502 4.539429 0
M  V30 4 N 1.847884 -3.046941 3.358158 0
M  V30 5 C 1.786083 -2.574944 2.018812 0
M  V30 6 C 1.420792 -1.286561 1.698732 0
M  V30 7 N 1.362831 -0.844895 0.404581 0
M  V30 8 C 1.673020 -1.691278 -0.610770 0
M  V30 9 N 1.581510 -1.225231 -1.970739 0
M  V30 10 C 1.118854 0.118755 -2.096438 0
M  V30 11 N 1.695408 1.335819 -2.258437 0
M  V30 12 C 0.925440 2.453411 -2.327820 0
M  V30 13 C -0.443007 2.328511 -2.231218 0
M  V30 14 C -1.434173 3.275912 -2.266965 0
M  V30 15 C -1.436780 4.634354 -2.405525 0
M  V30 16 C -2.666760 5.278278 -2.392543 0
M  V30 17 N -3.815681 4.593808 -2.249526 0
M  V30 18 C -3.857038 3.257203 -2.110762 0
M  V30 19 C -2.635196 2.620661 -2.123582 0
M  V30 20 N -2.410331 1.290497 -2.000678 0
M  V30 21 C -3.261349 0.142968 -1.826410 0
M  V30 22 C -2.887902 -0.653380 -0.586284 0
M  V30 23 C -2.606991 -2.058685 -1.037106 0
M  V30 24 C -3.246820 -2.225853 -2.391531 0
M  V30 25 C -3.248922 -0.828305 -2.958639 0
M  V30 26 C -1.056507 1.107170 -2.066784 0
M  V30 27 N -0.227485 0.048890 -2.007621 0
M  V30 28 C 2.044424 -2.998278 -0.281660 0
M  V30 29 N 2.088659 -3.392783 0.997668 0
M  V30 30 C 1.930841 -4.501771 3.586046 0
M  V30 31 C 2.861123 -4.685016 4.779300 0
M  V30 32 N 3.795693 -3.575116 4.880409 0
M  V30 33 H 3.761820 -0.881131 6.697593 0
M  V30 34 H 4.931412 -1.387738 5.471532 0
M  V30 35 H 3.440883 -0.406621 5.024468 0
M  V30 36 H 2.656334 -2.812794 6.410498 0
M  V30 37 H 0.864836 -2.502404 5.089543 0
M  V30 38 H 1.642889 -1.132987 4.315463 0
M  V30 39 H 1.160517 -0.561100 2.453933 0
M  V30 40 H 1.845842 -1.869967 -2.742089 0
M  V30 41 H 1.463824 3.377079 -2.454841 0
M  V30 42 H -0.551498 5.220678 -2.520371 0
M  V30 43 H -2.804826 6.350084 -2.491701 0
M  V30 44 H -4.781168 2.700372 -1.991801 0
M  V30 45 H -4.324183 0.483209 -1.679159 0
M  V30 46 H -3.754325 -0.716084 0.139104 0
M  V30 47 H -2.001396 -0.200225 -0.063486 0
M  V30 48 H -1.524840 -2.242500 -1.127610 0
M  V30 49 H -3.012337 -2.800531 -0.300077 0
M  V30 50 H -2.680422 -2.924830 -3.039361 0
M  V30 51 H -4.303740 -2.597257 -2.281070 0
M  V30 52 H -2.389158 -0.762287 -3.638665 0
M  V30 53 H -4.147746 -0.709917 -3.621492 0
M  V30 54 H 2.280455 -3.620803 -1.144237 0
M  V30 55 H 0.915903 -4.936011 3.781270 0
M  V30 56 H 2.316126 -4.956808 2.660942 0
M  V30 57 H 2.208423 -4.628424 5.691878 0
M  V30 58 H 3.350616 -5.670147 4.758166 0
M  V30 59 H 4.547624 -3.837317 5.521038 0
M  V30 END ATOM
M  V30 BEGIN BOND
M  V30 1 1 1 2
M  V30 2 1 2 3
M  V30 3 1 3 4
M  V30 4 1 4 5
M  V30 5 2 5 6
M  V30 6 1 6 7
M  V30 7 2 7 8
M  V30 8 1 8 9
M  V30 9 1 9 10
M  V30 10 2 10 11
M  V30 11 1 11 12
M  V30 12 2 12 13
M  V30 13 1 13 14
M  V30 14 2 14 15
M  V30 15 1 15 16
M  V30 16 2 16 17
M  V30 17 1 17 18
M  V30 18 2 18 19
M  V30 19 1 19 20
M  V30 20 1 20 21
M  V30 21 1 21 22
M  V30 22 1 22 23
M  V30 23 1 23 24
M  V30 24 1 24 25
M  V30 25 1 20 26
M  V30 26 2 26 27
M  V30 27 1 8 28
M  V30 28 2 28 29
M  V30 29 1 4 30
M  V30 30 1 30 31
M  V30 31 1 31 32
M  V30 32 1 32 2
M  V30 33 1 29 5
M  V30 34 1 27 10
M  V30 35 1 26 13
M  V30 36 1 19 14
M  V30 37 1 25 21
M  V30 38 1 1 33
M  V30 39 1 1 34
M  V30 40 1 1 35
M  V30 41 1 2 36 CFG=1
M  V30 42 1 3 37
M  V30 43 1 3 38
M  V30 44 1 6 39
M  V30 45 1 9 40
M  V30 46 1 12 41
M  V30 47 1 15 42
M  V30 48 1 16 43
M  V30 49 1 18 44
M  V30 50 1 21 45
M  V30 51 1 22 46
M  V30 52 1 22 47
M  V30 53 1 23 48
M  V30 54 1 23 49
M  V30 55 1 24 50
M  V30 56 1 24 51
M  V30 57 1 25 52
M  V30 58 1 25 53
M  V30 59 1 28 54
M  V30 60 1 30 55
M  V30 61 1 30 56
M  V30 62 1 31 57
M  V30 63 1 31 58
M  V30 64 1 32 59
M  V30 END BOND
M  V30 END CTAB
M  END
>  <Dataset>  (428) 
ChEMBL_Kinases

>  <Ligand_Instance>  (428) 
nan

>  <PDB_ID>  (428) 
nan

>  <Standardized_SMILES>  (428) 
C[C@H]1CN(c2cnc(Nc3ncc4c5ccncc5n(C5CCCC5)c4n3)cn2)CCN1

>  <Name>  (428) 
nan

>  <Pocket>  (428) 
nan

>  <ATP_Site>  (428) 
nan

>  <Peripheral>  (428) 
nan

>  <Num_H_Atoms_ProtBoundConf>  (428) 
nan

>  <Num_Resolved_Atoms>  (428) 
nan

>  <Num_Not_Resolved_Atoms>  (428) 
nan

$$$$
CHEMBL3698711
     RDKit          3D

  0  0  0  0  0  0  0  0  0  0999 V3000
M  V30 BEGIN CTAB
M  V30 COUNTS 59 64 0 0 0
M  V30 BEGIN ATOM
M  V30 1 C 1.514410 -4.567766 6.424472 0
M  V30 2 C 1.184141 -4.752108 4.960977 0 CFG=2
M  V30 3 C 2.171867 -4.032976 4.093809 0
M  V30 4 N 1.644111 -2.761587 3.635456 0
M  V30 5 C 1.877050 -2.243422 2.332862 0
M  V30 6 C 1.359847 -1.063510 1.853392 0
M  V30 7 N 1.596896 -0.594858 0.605407 0
M  V30 8 C 2.388540 -1.321465 -0.230422 0
M  V30 9 N 2.595687 -0.795290 -1.546057 0
M  V30 10 C 1.951430 0.452310 -1.837709 0
M  V30 11 N 2.573398 1.655600 -2.008568 0
M  V30 12 C 1.837228 2.766207 -2.260217 0
M  V30 13 C 0.482430 2.624238 -2.330907 0
M  V30 14 C -0.566452 3.517088 -2.560940 0
M  V30 15 C -0.573696 4.868927 -2.802535 0
M  V30 16 C -1.810519 5.482050 -2.995090 0
M  V30 17 N -2.944250 4.766104 -2.944115 0
M  V30 18 C -2.998609 3.444272 -2.712375 0
M  V30 19 C -1.782365 2.823811 -2.519472 0
M  V30 20 N -1.490013 1.517930 -2.267570 0
M  V30 21 C -2.418892 0.402357 -2.118785 0
M  V30 22 C -2.274330 -0.283435 -0.811026 0
M  V30 23 C -1.849915 -1.678578 -1.081347 0
M  V30 24 C -2.221915 -1.954667 -2.509640 0
M  V30 25 C -2.315056 -0.625267 -3.184669 0
M  V30 26 C -0.144259 1.403780 -2.157037 0
M  V30 27 N 0.615694 0.317702 -1.909000 0
M  V30 28 C 2.910424 -2.505915 0.247734 0
M  V30 29 N 2.656206 -2.945740 1.493920 0
M  V30 30 C 0.879725 -2.156832 4.704749 0
M  V30 31 C -0.403827 -2.956209 4.843381 0
M  V30 32 N -0.187638 -4.364072 4.754568 0
M  V30 33 H 1.647621 -5.546875 6.948744 0
M  V30 34 H 0.699379 -4.052423 6.974154 0
M  V30 35 H 2.486477 -4.041551 6.564218 0
M  V30 36 H 1.234941 -5.838782 4.734521 0
M  V30 37 H 3.075254 -3.807247 4.725947 0
M  V30 38 H 2.511055 -4.690610 3.266101 0
M  V30 39 H 0.727202 -0.461778 2.484568 0
M  V30 40 H 3.200854 -1.382947 -2.152031 0
M  V30 41 H 2.318402 3.703628 -2.394200 0
M  V30 42 H 0.336596 5.475090 -2.849336 0
M  V30 43 H -1.925858 6.541599 -3.190863 0
M  V30 44 H -3.939992 2.900531 -2.678780 0
M  V30 45 H -3.476889 0.813782 -2.172283 0
M  V30 46 H -3.266708 -0.313669 -0.271790 0
M  V30 47 H -1.579011 0.254884 -0.114572 0
M  V30 48 H -0.775018 -1.877729 -0.887877 0
M  V30 49 H -2.383044 -2.383293 -0.379549 0
M  V30 50 H -1.509172 -2.665044 -2.997210 0
M  V30 51 H -3.193491 -2.502639 -2.499153 0
M  V30 52 H -1.483256 -0.434415 -3.897157 0
M  V30 53 H -3.228273 -0.669228 -3.840282 0
M  V30 54 H 3.535832 -3.061538 -0.437559 0
M  V30 55 H 0.591865 -1.139880 4.371868 0
M  V30 56 H 1.423603 -2.086892 5.669096 0
M  V30 57 H -0.853237 -2.686948 5.834006 0
M  V30 58 H -1.076936 -2.632622 4.027516 0
M  V30 59 H -0.686675 -4.867016 4.008205 0
M  V30 END ATOM
M  V30 BEGIN BOND
M  V30 1 1 1 2
M  V30 2 1 2 3
M  V30 3 1 3 4
M  V30 4 1 4 5
M  V30 5 2 5 6
M  V30 6 1 6 7
M  V30 7 2 7 8
M  V30 8 1 8 9
M  V30 9 1 9 10
M  V30 10 2 10 11
M  V30 11 1 11 12
M  V30 12 2 12 13
M  V30 13 1 13 14
M  V30 14 2 14 15
M  V30 15 1 15 16
M  V30 16 2 16 17
M  V30 17 1 17 18
M  V30 18 2 18 19
M  V30 19 1 19 20
M  V30 20 1 20 21
M  V30 21 1 21 22
M  V30 22 1 22 23
M  V30 23 1 23 24
M  V30 24 1 24 25
M  V30 25 1 20 26
M  V30 26 2 26 27
M  V30 27 1 8 28
M  V30 28 2 28 29
M  V30 29 1 4 30
M  V30 30 1 30 31
M  V30 31 1 31 32
M  V30 32 1 32 2
M  V30 33 1 29 5
M  V30 34 1 27 10
M  V30 35 1 26 13
M  V30 36 1 19 14
M  V30 37 1 25 21
M  V30 38 1 1 33
M  V30 39 1 1 34
M  V30 40 1 1 35
M  V30 41 1 2 36 CFG=3
M  V30 42 1 3 37
M  V30 43 1 3 38
M  V30 44 1 6 39
M  V30 45 1 9 40
M  V30 46 1 12 41
M  V30 47 1 15 42
M  V30 48 1 16 43
M  V30 49 1 18 44
M  V30 50 1 21 45
M  V30 51 1 22 46
M  V30 52 1 22 47
M  V30 53 1 23 48
M  V30 54 1 23 49
M  V30 55 1 24 50
M  V30 56 1 24 51
M  V30 57 1 25 52
M  V30 58 1 25 53
M  V30 59 1 28 54
M  V30 60 1 30 55
M  V30 61 1 30 56
M  V30 62 1 31 57
M  V30 63 1 31 58
M  V30 64 1 32 59
M  V30 END BOND
M  V30 END CTAB
M  END
>  <Dataset>  (429) 
ChEMBL_Kinases

>  <Ligand_Instance>  (429) 
nan

>  <PDB_ID>  (429) 
nan

>  <Standardized_SMILES>  (429) 
C[C@@H]1CN(c2cnc(Nc3ncc4c5ccncc5n(C5CCCC5)c4n3)cn2)CCN1

>  <Name>  (429) 
nan

>  <Pocket>  (429) 
nan

>  <ATP_Site>  (429) 
nan

>  <Peripheral>  (429) 
nan

>  <Num_H_Atoms_ProtBoundConf>  (429) 
nan

>  <Num_Resolved_Atoms>  (429) 
nan

>  <Num_Not_Resolved_Atoms>  (429) 
nan

$$$$
CHEMBL3698710
     RDKit          3D

  0  0  0  0  0  0  0  0  0  0999 V3000
M  V30 BEGIN CTAB
M  V30 COUNTS 62 67 0 0 0
M  V30 BEGIN ATOM
M  V30 1 C -0.222999 -2.103642 5.145889 0
M  V30 2 C 1.109236 -2.676985 5.581084 0
M  V30 3 C 2.221419 -2.275064 4.669196 0
M  V30 4 N 2.309305 -3.119130 3.490080 0
M  V30 5 C 2.140900 -2.679973 2.141174 0
M  V30 6 C 2.306533 -3.454422 1.004070 0
M  V30 7 N 2.122409 -2.942347 -0.217961 0
M  V30 8 C 1.769922 -1.652236 -0.347110 0
M  V30 9 N 1.586521 -1.116983 -1.651423 0
M  V30 10 C 1.200059 0.198946 -2.023306 0
M  V30 11 N 1.986987 1.286809 -2.155762 0
M  V30 12 C 1.502301 2.481975 -2.520008 0
M  V30 13 C 0.158965 2.660028 -2.780516 0
M  V30 14 C -0.710033 3.661855 -3.159386 0
M  V30 15 C -0.379772 4.973970 -3.419371 0
M  V30 16 C -1.423826 5.804169 -3.786532 0
M  V30 17 N -2.690740 5.327948 -3.877565 0
M  V30 18 C -2.963316 4.021310 -3.609527 0
M  V30 19 C -1.976714 3.119568 -3.234560 0
M  V30 20 N -1.942985 1.805003 -2.915859 0
M  V30 21 C -3.148086 1.044514 -2.938037 0
M  V30 22 C -4.078795 1.080538 -1.821495 0
M  V30 23 C -3.316125 0.388463 -0.731908 0
M  V30 24 C -2.884267 -0.848296 -1.544968 0
M  V30 25 C -2.875847 -0.442318 -2.967381 0
M  V30 26 C -0.647673 1.541917 -2.643970 0
M  V30 27 N -0.109003 0.371726 -2.276658 0
M  V30 28 C 1.604316 -0.882006 0.782416 0
M  V30 29 N 1.784992 -1.375494 2.043056 0
M  V30 30 C 2.592344 -4.473557 3.955542 0
M  V30 31 C 1.343737 -4.922858 4.700338 0
M  V30 32 C 1.594713 -6.332045 5.189715 0
M  V30 33 N 1.092834 -4.083011 5.827146 0
M  V30 34 H -0.796801 -1.749083 6.030164 0
M  V30 35 H 0.037147 -1.166117 4.570479 0
M  V30 36 H -0.806316 -2.761288 4.492436 0
M  V30 37 H 1.341507 -2.193156 6.576305 0
M  V30 38 H 3.177435 -2.343116 5.235339 0
M  V30 39 H 2.084295 -1.207438 4.383305 0
M  V30 40 H 2.588788 -4.480610 1.172519 0
M  V30 41 H 1.729051 -1.685610 -2.494462 0
M  V30 42 H 2.125219 3.335825 -2.622273 0
M  V30 43 H 0.647778 5.339030 -3.337982 0
M  V30 44 H -1.237604 6.852945 -4.007039 0
M  V30 45 H -3.989273 3.686152 -3.695558 0
M  V30 46 H -3.754323 1.249303 -3.880360 0
M  V30 47 H -4.596816 1.990572 -1.549062 0
M  V30 48 H -4.907007 0.373151 -2.069493 0
M  V30 49 H -2.384352 0.911712 -0.467706 0
M  V30 50 H -3.950671 0.105637 0.129200 0
M  V30 51 H -1.988032 -1.325053 -1.145767 0
M  V30 52 H -3.723470 -1.582373 -1.349243 0
M  V30 53 H -3.744066 -0.938614 -3.493226 0
M  V30 54 H -1.997233 -0.721559 -3.551556 0
M  V30 55 H 1.317504 0.167321 0.708372 0
M  V30 56 H 2.732477 -5.156827 3.090012 0
M  V30 57 H 3.454996 -4.510614 4.636840 0
M  V30 58 H 0.483833 -4.985443 3.993643 0
M  V30 59 H 2.431758 -6.283165 5.921913 0
M  V30 60 H 1.851366 -7.022177 4.363540 0
M  V30 61 H 0.721318 -6.726389 5.747763 0
M  V30 62 H 0.293004 -4.383628 6.389203 0
M  V30 END ATOM
M  V30 BEGIN BOND
M  V30 1 1 1 2
M  V30 2 1 2 3
M  V30 3 1 3 4
M  V30 4 1 4 5
M  V30 5 2 5 6
M  V30 6 1 6 7
M  V30 7 2 7 8
M  V30 8 1 8 9
M  V30 9 1 9 10
M  V30 10 2 10 11
M  V30 11 1 11 12
M  V30 12 2 12 13
M  V30 13 1 13 14
M  V30 14 2 14 15
M  V30 15 1 15 16
M  V30 16 2 16 17
M  V30 17 1 17 18
M  V30 18 2 18 19
M  V30 19 1 19 20
M  V30 20 1 20 21
M  V30 21 1 21 22
M  V30 22 1 22 23
M  V30 23 1 23 24
M  V30 24 1 24 25
M  V30 25 1 20 26
M  V30 26 2 26 27
M  V30 27 1 8 28
M  V30 28 2 28 29
M  V30 29 1 4 30
M  V30 30 1 30 31
M  V30 31 1 31 32
M  V30 32 1 31 33
M  V30 33 1 33 2
M  V30 34 1 29 5
M  V30 35 1 27 10
M  V30 36 1 26 13
M  V30 37 1 19 14
M  V30 38 1 25 21
M  V30 39 1 1 34
M  V30 40 1 1 35
M  V30 41 1 1 36
M  V30 42 1 2 37
M  V30 43 1 3 38
M  V30 44 1 3 39
M  V30 45 1 6 40
M  V30 46 1 9 41
M  V30 47 1 12 42
M  V30 48 1 15 43
M  V30 49 1 16 44
M  V30 50 1 18 45
M  V30 51 1 21 46
M  V30 52 1 22 47
M  V30 53 1 22 48
M  V30 54 1 23 49
M  V30 55 1 23 50
M  V30 56 1 24 51
M  V30 57 1 24 52
M  V30 58 1 25 53
M  V30 59 1 25 54
M  V30 60 1 28 55
M  V30 61 1 30 56
M  V30 62 1 30 57
M  V30 63 1 31 58
M  V30 64 1 32 59
M  V30 65 1 32 60
M  V30 66 1 32 61
M  V30 67 1 33 62
M  V30 END BOND
M  V30 END CTAB
M  END
>  <Dataset>  (430) 
ChEMBL_Kinases

>  <Ligand_Instance>  (430) 
nan

>  <PDB_ID>  (430) 
nan

>  <Standardized_SMILES>  (430) 
CC1CN(c2cnc(Nc3ncc4c5ccncc5n(C5CCCC5)c4n3)cn2)CC(C)N1

>  <Name>  (430) 
nan

>  <Pocket>  (430) 
nan

>  <ATP_Site>  (430) 
nan

>  <Peripheral>  (430) 
nan

>  <Num_H_Atoms_ProtBoundConf>  (430) 
nan

>  <Num_Resolved_Atoms>  (430) 
nan

>  <Num_Not_Resolved_Atoms>  (430) 
nan

$$$$
CHEMBL3698709
     RDKit          3D

  0  0  0  0  0  0  0  0  0  0999 V3000
M  V30 BEGIN CTAB
M  V30 COUNTS 59 64 0 0 0
M  V30 BEGIN ATOM
M  V30 1 C 1.473322 -3.964571 4.361436 0
M  V30 2 N 2.790457 -4.411890 4.780474 0
M  V30 3 C 3.555613 -3.333615 5.372513 0
M  V30 4 C 3.977972 -2.316444 4.335533 0
M  V30 5 N 3.976211 -3.002997 3.033670 0
M  V30 6 C 3.446838 -2.399950 1.860855 0
M  V30 7 C 3.553393 -2.830809 0.553204 0
M  V30 8 N 2.998247 -2.180346 -0.468772 0
M  V30 9 C 2.303604 -1.063537 -0.253723 0
M  V30 10 N 1.710774 -0.349848 -1.343225 0
M  V30 11 C 0.921412 0.827674 -1.298207 0
M  V30 12 N 1.303314 2.134285 -1.217784 0
M  V30 13 C 0.333914 3.096004 -1.199888 0
M  V30 14 C -1.007592 2.765281 -1.261426 0
M  V30 15 C -2.151028 3.552242 -1.260009 0
M  V30 16 C -2.320145 4.919734 -1.193585 0
M  V30 17 C -3.624401 5.403806 -1.211743 0
M  V30 18 N -4.654758 4.524660 -1.292501 0
M  V30 19 C -4.467223 3.194507 -1.356524 0
M  V30 20 C -3.190511 2.651628 -1.342427 0
M  V30 21 N -2.735199 1.390801 -1.392608 0
M  V30 22 C -3.485706 0.156282 -1.491505 0
M  V30 23 C -2.571622 -1.044348 -1.590726 0
M  V30 24 C -3.556175 -2.135738 -1.984552 0
M  V30 25 C -4.632103 -1.414998 -2.796213 0
M  V30 26 C -4.202954 0.047274 -2.822612 0
M  V30 27 C -1.376526 1.438346 -1.342657 0
M  V30 28 N -0.385715 0.505517 -1.358140 0
M  V30 29 C 2.174458 -0.602177 1.037578 0
M  V30 30 N 2.733155 -1.258702 2.050823 0
M  V30 31 C 4.551414 -4.332901 3.110221 0
M  V30 32 C 3.489609 -5.183861 3.809955 0
M  V30 33 H 1.363262 -2.912848 4.746624 0
M  V30 34 H 1.368089 -4.044985 3.274598 0
M  V30 35 H 0.669867 -4.533876 4.871983 0
M  V30 36 H 4.400008 -3.773395 5.912258 0
M  V30 37 H 2.909346 -2.808083 6.102677 0
M  V30 38 H 5.047985 -2.057448 4.538354 0
M  V30 39 H 3.312981 -1.456469 4.356407 0
M  V30 40 H 4.128533 -3.745004 0.426855 0
M  V30 41 H 1.851266 -0.707210 -2.316518 0
M  V30 42 H 0.695897 4.112281 -1.135174 0
M  V30 43 H -1.421504 5.539996 -1.131200 0
M  V30 44 H -3.719644 6.478900 -1.158537 0
M  V30 45 H -5.326516 2.535758 -1.418087 0
M  V30 46 H -4.195350 -0.017567 -0.679821 0
M  V30 47 H -2.016085 -1.271375 -0.685374 0
M  V30 48 H -1.906742 -0.925770 -2.490509 0
M  V30 49 H -4.023852 -2.512583 -1.054103 0
M  V30 50 H -3.095439 -2.942389 -2.585964 0
M  V30 51 H -5.626082 -1.444093 -2.305483 0
M  V30 52 H -4.706609 -1.831093 -3.816553 0
M  V30 53 H -5.044942 0.726260 -2.945483 0
M  V30 54 H -3.459905 0.130230 -3.656491 0
M  V30 55 H 1.621239 0.301007 1.285150 0
M  V30 56 H 5.426604 -4.308166 3.757888 0
M  V30 57 H 4.757166 -4.728289 2.093656 0
M  V30 58 H 3.939040 -6.118867 4.214323 0
M  V30 59 H 2.788202 -5.481168 2.980638 0
M  V30 END ATOM
M  V30 BEGIN BOND
M  V30 1 1 1 2
M  V30 2 1 2 3
M  V30 3 1 3 4
M  V30 4 1 4 5
M  V30 5 1 5 6
M  V30 6 2 6 7
M  V30 7 1 7 8
M  V30 8 2 8 9
M  V30 9 1 9 10
M  V30 10 1 10 11
M  V30 11 2 11 12
M  V30 12 1 12 13
M  V30 13 2 13 14
M  V30 14 1 14 15
M  V30 15 2 15 16
M  V30 16 1 16 17
M  V30 17 2 17 18
M  V30 18 1 18 19
M  V30 19 2 19 20
M  V30 20 1 20 21
M  V30 21 1 21 22
M  V30 22 1 22 23
M  V30 23 1 23 24
M  V30 24 1 24 25
M  V30 25 1 25 26
M  V30 26 1 21 27
M  V30 27 2 27 28
M  V30 28 1 9 29
M  V30 29 2 29 30
M  V30 30 1 5 31
M  V30 31 1 31 32
M  V30 32 1 32 2
M  V30 33 1 30 6
M  V30 34 1 28 11
M  V30 35 1 27 14
M  V30 36 1 20 15
M  V30 37 1 26 22
M  V30 38 1 1 33
M  V30 39 1 1 34
M  V30 40 1 1 35
M  V30 41 1 3 36
M  V30 42 1 3 37
M  V30 43 1 4 38
M  V30 44 1 4 39
M  V30 45 1 7 40
M  V30 46 1 10 41
M  V30 47 1 13 42
M  V30 48 1 16 43
M  V30 49 1 17 44
M  V30 50 1 19 45
M  V30 51 1 22 46
M  V30 52 1 23 47
M  V30 53 1 23 48
M  V30 54 1 24 49
M  V30 55 1 24 50
M  V30 56 1 25 51
M  V30 57 1 25 52
M  V30 58 1 26 53
M  V30 59 1 26 54
M  V30 60 1 29 55
M  V30 61 1 31 56
M  V30 62 1 31 57
M  V30 63 1 32 58
M  V30 64 1 32 59
M  V30 END BOND
M  V30 END CTAB
M  END
>  <Dataset>  (431) 
ChEMBL_Kinases

>  <Ligand_Instance>  (431) 
nan

>  <PDB_ID>  (431) 
nan

>  <Standardized_SMILES>  (431) 
CN1CCN(c2cnc(Nc3ncc4c5ccncc5n(C5CCCC5)c4n3)cn2)CC1

>  <Name>  (431) 
nan

>  <Pocket>  (431) 
nan

>  <ATP_Site>  (431) 
nan

>  <Peripheral>  (431) 
nan

>  <Num_H_Atoms_ProtBoundConf>  (431) 
nan

>  <Num_Resolved_Atoms>  (431) 
nan

>  <Num_Not_Resolved_Atoms>  (431) 
nan

$$$$
CHEMBL3698707
     RDKit          3D

  0  0  0  0  0  0  0  0  0  0999 V3000
M  V30 BEGIN CTAB
M  V30 COUNTS 70 76 0 0 0
M  V30 BEGIN ATOM
M  V30 1 C 5.161920 2.067185 7.278789 0
M  V30 2 C 5.013915 0.798279 6.724504 0
M  V30 3 C 4.209604 0.725725 5.610480 0
M  V30 4 C 3.858956 -0.355608 4.832543 0
M  V30 5 C 4.160394 -1.697966 4.873913 0
M  V30 6 N 3.668443 -2.558151 3.971388 0
M  V30 7 C 2.851892 -2.146753 2.975955 0
M  V30 8 N 2.354079 -3.098066 2.052304 0
M  V30 9 C 1.510290 -2.893004 0.933946 0
M  V30 10 C 1.002265 -1.689541 0.499683 0
M  V30 11 C 0.176370 -1.510469 -0.587417 0
M  V30 12 C -0.168334 -2.636370 -1.299266 0
M  V30 13 N -1.007698 -2.610442 -2.440384 0
M  V30 14 C -1.569890 -1.473050 -3.134521 0
M  V30 15 C -3.042515 -1.463863 -2.827174 0
M  V30 16 C -3.676665 -2.681666 -3.441071 0
M  V30 17 N -4.512651 -2.244668 -4.568614 0
M  V30 18 C -5.148537 -3.387943 -5.188969 0
M  V30 19 C -6.506781 -2.869935 -5.673717 0
M  V30 20 C -6.858042 -1.958813 -4.520474 0
M  V30 21 C -5.535086 -1.327048 -4.188432 0
M  V30 22 C -2.626142 -3.572634 -4.005721 0
M  V30 23 C -1.447027 -3.818146 -3.103272 0
M  V30 24 C 0.322796 -3.854273 -0.891575 0
M  V30 25 N 1.121641 -3.932567 0.180158 0
M  V30 26 N 2.570799 -0.836763 2.953088 0
M  V30 27 C 3.027945 0.074171 3.822679 0
M  V30 28 N 2.850131 1.419977 3.954756 0
M  V30 29 C 2.070521 2.282757 3.134427 0
M  V30 30 C 0.878242 2.914341 3.814832 0
M  V30 31 C 0.639507 4.227527 3.084383 0
M  V30 32 C 1.883172 4.538896 2.308350 0
M  V30 33 C 2.821827 3.392857 2.462737 0
M  V30 34 C 3.570996 1.813459 5.044470 0
M  V30 35 C 3.779035 3.042876 5.669684 0
M  V30 36 N 4.549528 3.128196 6.741086 0
M  V30 37 H 5.792369 2.178290 8.165415 0
M  V30 38 H 5.495949 -0.096645 7.128982 0
M  V30 39 H 4.807304 -2.099123 5.641768 0
M  V30 40 H 2.649027 -4.104210 2.213715 0
M  V30 41 H 1.257856 -0.791731 1.038218 0
M  V30 42 H -0.190702 -0.550446 -0.879227 0
M  V30 43 H -1.054178 -0.524070 -2.865520 0
M  V30 44 H -1.468787 -1.552533 -4.253798 0
M  V30 45 H -3.538358 -0.519921 -3.137714 0
M  V30 46 H -3.120334 -1.528056 -1.709995 0
M  V30 47 H -4.342823 -3.204116 -2.716565 0
M  V30 48 H -4.552057 -3.833022 -5.986834 0
M  V30 49 H -5.396324 -4.102524 -4.360045 0
M  V30 50 H -6.424437 -2.334165 -6.644747 0
M  V30 51 H -7.217228 -3.729032 -5.756426 0
M  V30 52 H -7.634284 -1.215150 -4.796546 0
M  V30 53 H -7.167887 -2.601283 -3.669361 0
M  V30 54 H -5.486572 -0.366498 -4.779477 0
M  V30 55 H -5.491455 -1.087307 -3.104228 0
M  V30 56 H -3.108249 -4.577271 -4.185130 0
M  V30 57 H -2.276757 -3.259381 -5.005964 0
M  V30 58 H -1.647736 -4.637365 -2.369237 0
M  V30 59 H -0.604839 -4.173320 -3.733032 0
M  V30 60 H 0.129600 -4.815061 -1.363712 0
M  V30 61 H 1.633200 1.664952 2.301997 0
M  V30 62 H 0.981279 3.025949 4.900600 0
M  V30 63 H -0.060745 2.308914 3.650614 0
M  V30 64 H -0.268309 4.202437 2.462081 0
M  V30 65 H 0.467748 5.008550 3.861764 0
M  V30 66 H 1.567934 4.696539 1.238259 0
M  V30 67 H 2.358720 5.490119 2.601392 0
M  V30 68 H 3.777001 3.658053 2.961859 0
M  V30 69 H 3.141907 3.093072 1.422625 0
M  V30 70 H 3.319036 3.932524 5.293227 0
M  V30 END ATOM
M  V30 BEGIN BOND
M  V30 1 2 1 2
M  V30 2 1 2 3
M  V30 3 1 3 4
M  V30 4 2 4 5
M  V30 5 1 5 6
M  V30 6 2 6 7
M  V30 7 1 7 8
M  V30 8 1 8 9
M  V30 9 2 9 10
M  V30 10 1 10 11
M  V30 11 2 11 12
M  V30 12 1 12 13
M  V30 13 1 13 14
M  V30 14 1 14 15
M  V30 15 1 15 16
M  V30 16 1 16 17
M  V30 17 1 17 18
M  V30 18 1 18 19
M  V30 19 1 19 20
M  V30 20 1 20 21
M  V30 21 1 16 22
M  V30 22 1 22 23
M  V30 23 1 12 24
M  V30 24 2 24 25
M  V30 25 1 7 26
M  V30 26 2 26 27
M  V30 27 1 27 28
M  V30 28 1 28 29
M  V30 29 1 29 30
M  V30 30 1 30 31
M  V30 31 1 31 32
M  V30 32 1 32 33
M  V30 33 1 28 34
M  V30 34 1 34 35
M  V30 35 2 35 36
M  V30 36 1 36 1
M  V30 37 2 34 3
M  V30 38 1 27 4
M  V30 39 1 33 29
M  V30 40 1 25 9
M  V30 41 1 23 13
M  V30 42 1 21 17
M  V30 43 1 1 37
M  V30 44 1 2 38
M  V30 45 1 5 39
M  V30 46 1 8 40
M  V30 47 1 10 41
M  V30 48 1 11 42
M  V30 49 1 14 43
M  V30 50 1 14 44
M  V30 51 1 15 45
M  V30 52 1 15 46
M  V30 53 1 16 47
M  V30 54 1 18 48
M  V30 55 1 18 49
M  V30 56 1 19 50
M  V30 57 1 19 51
M  V30 58 1 20 52
M  V30 59 1 20 53
M  V30 60 1 21 54
M  V30 61 1 21 55
M  V30 62 1 22 56
M  V30 63 1 22 57
M  V30 64 1 23 58
M  V30 65 1 23 59
M  V30 66 1 24 60
M  V30 67 1 29 61
M  V30 68 1 30 62
M  V30 69 1 30 63
M  V30 70 1 31 64
M  V30 71 1 31 65
M  V30 72 1 32 66
M  V30 73 1 32 67
M  V30 74 1 33 68
M  V30 75 1 33 69
M  V30 76 1 35 70
M  V30 END BOND
M  V30 END CTAB
M  END
>  <Dataset>  (432) 
ChEMBL_Kinases

>  <Ligand_Instance>  (432) 
nan

>  <PDB_ID>  (432) 
nan

>  <Standardized_SMILES>  (432) 
c1cc2c3cnc(Nc4ccc(N5CCC(N6CCCC6)CC5)cn4)nc3n(C3CCCC3)c2cn1

>  <Name>  (432) 
nan

>  <Pocket>  (432) 
nan

>  <ATP_Site>  (432) 
nan

>  <Peripheral>  (432) 
nan

>  <Num_H_Atoms_ProtBoundConf>  (432) 
nan

>  <Num_Resolved_Atoms>  (432) 
nan

>  <Num_Not_Resolved_Atoms>  (432) 
nan

$$$$
CHEMBL3698706
     RDKit          3D

  0  0  0  0  0  0  0  0  0  0999 V3000
M  V30 BEGIN CTAB
M  V30 COUNTS 63 68 0 0 0
M  V30 BEGIN ATOM
M  V30 1 C 4.554655 0.413539 7.075084 0
M  V30 2 N 3.819498 -0.553414 6.322791 0
M  V30 3 C 3.561480 -0.204100 4.954161 0
M  V30 4 C 4.812527 0.000356 4.150264 0
M  V30 5 C 4.650248 -0.013237 2.675951 0
M  V30 6 N 3.321475 -0.439552 2.255913 0
M  V30 7 C 2.548911 0.204498 1.255748 0
M  V30 8 C 3.046304 1.134848 0.375392 0
M  V30 9 C 2.234518 1.724454 -0.569306 0
M  V30 10 C 0.902215 1.405855 -0.666331 0
M  V30 11 N -0.037299 1.935186 -1.625189 0
M  V30 12 C -1.421622 1.528905 -1.588690 0
M  V30 13 N -2.355226 2.383045 -1.086719 0
M  V30 14 C -3.673418 2.030096 -1.023020 0
M  V30 15 C -4.010384 0.769720 -1.490168 0
M  V30 16 C -5.232126 0.104208 -1.567346 0
M  V30 17 C -6.498159 0.539968 -1.185901 0
M  V30 18 C -7.521307 -0.361761 -1.393156 0
M  V30 19 N -7.319243 -1.586856 -1.929250 0
M  V30 20 C -6.108797 -2.029110 -2.304358 0
M  V30 21 C -5.039467 -1.147899 -2.112892 0
M  V30 22 N -3.712361 -1.259548 -2.371971 0
M  V30 23 C -3.124081 -2.426741 -2.938863 0
M  V30 24 C -2.448765 -3.301086 -1.871137 0
M  V30 25 C -1.848861 -4.364691 -2.789467 0
M  V30 26 C -1.393749 -3.587578 -4.024400 0
M  V30 27 C -1.933677 -2.164843 -3.833453 0
M  V30 28 C -3.075014 -0.131700 -2.011404 0
M  V30 29 N -1.815572 0.313316 -2.028442 0
M  V30 30 N 0.437675 0.487326 0.213427 0
M  V30 31 C 1.205649 -0.104769 1.145683 0
M  V30 32 C 2.899809 -1.615521 2.986340 0
M  V30 33 C 2.578788 -1.154765 4.381667 0
M  V30 34 H 4.633463 1.352189 6.510255 0
M  V30 35 H 4.025669 0.583480 8.058563 0
M  V30 36 H 5.547034 -0.014337 7.337096 0
M  V30 37 H 4.097073 -1.541782 6.478368 0
M  V30 38 H 3.054220 0.806545 4.979788 0
M  V30 39 H 5.488946 -0.860583 4.424535 0
M  V30 40 H 5.370816 0.908161 4.454248 0
M  V30 41 H 4.823825 1.017930 2.273560 0
M  V30 42 H 5.367362 -0.734420 2.183012 0
M  V30 43 H 4.089412 1.408610 0.423867 0
M  V30 44 H 2.588024 2.459193 -1.277593 0
M  V30 45 H 0.205801 2.607115 -2.362877 0
M  V30 46 H -4.430369 2.695980 -0.627011 0
M  V30 47 H -6.651954 1.520739 -0.757974 0
M  V30 48 H -8.545682 -0.067957 -1.109702 0
M  V30 49 H -5.921662 -3.006625 -2.736536 0
M  V30 50 H -3.810025 -3.086568 -3.480081 0
M  V30 51 H -3.150204 -3.700111 -1.139173 0
M  V30 52 H -1.611953 -2.730746 -1.434440 0
M  V30 53 H -2.698124 -5.049735 -3.027478 0
M  V30 54 H -1.024847 -4.921745 -2.314261 0
M  V30 55 H -1.917600 -4.045165 -4.899634 0
M  V30 56 H -0.306160 -3.629149 -4.092697 0
M  V30 57 H -2.195005 -1.676216 -4.775076 0
M  V30 58 H -1.177089 -1.638980 -3.220801 0
M  V30 59 H 0.661505 -0.808355 1.757798 0
M  V30 60 H 1.986204 -2.077120 2.572995 0
M  V30 61 H 3.740466 -2.340772 3.004402 0
M  V30 62 H 1.521855 -0.801028 4.431960 0
M  V30 63 H 2.578908 -2.089263 5.004223 0
M  V30 END ATOM
M  V30 BEGIN BOND
M  V30 1 1 1 2
M  V30 2 1 2 3
M  V30 3 1 3 4
M  V30 4 1 4 5
M  V30 5 1 5 6
M  V30 6 1 6 7
M  V30 7 2 7 8
M  V30 8 1 8 9
M  V30 9 2 9 10
M  V30 10 1 10 11
M  V30 11 1 11 12
M  V30 12 2 12 13
M  V30 13 1 13 14
M  V30 14 2 14 15
M  V30 15 1 15 16
M  V30 16 2 16 17
M  V30 17 1 17 18
M  V30 18 2 18 19
M  V30 19 1 19 20
M  V30 20 2 20 21
M  V30 21 1 21 22
M  V30 22 1 22 23
M  V30 23 1 23 24
M  V30 24 1 24 25
M  V30 25 1 25 26
M  V30 26 1 26 27
M  V30 27 1 22 28
M  V30 28 2 28 29
M  V30 29 1 10 30
M  V30 30 2 30 31
M  V30 31 1 6 32
M  V30 32 1 32 33
M  V30 33 1 33 3
M  V30 34 1 31 7
M  V30 35 1 29 12
M  V30 36 1 28 15
M  V30 37 1 21 16
M  V30 38 1 27 23
M  V30 39 1 1 34
M  V30 40 1 1 35
M  V30 41 1 1 36
M  V30 42 1 2 37
M  V30 43 1 3 38
M  V30 44 1 4 39
M  V30 45 1 4 40
M  V30 46 1 5 41
M  V30 47 1 5 42
M  V30 48 1 8 43
M  V30 49 1 9 44
M  V30 50 1 11 45
M  V30 51 1 14 46
M  V30 52 1 17 47
M  V30 53 1 18 48
M  V30 54 1 20 49
M  V30 55 1 23 50
M  V30 56 1 24 51
M  V30 57 1 24 52
M  V30 58 1 25 53
M  V30 59 1 25 54
M  V30 60 1 26 55
M  V30 61 1 26 56
M  V30 62 1 27 57
M  V30 63 1 27 58
M  V30 64 1 31 59
M  V30 65 1 32 60
M  V30 66 1 32 61
M  V30 67 1 33 62
M  V30 68 1 33 63
M  V30 END BOND
M  V30 END CTAB
M  END
>  <Dataset>  (433) 
ChEMBL_Kinases

>  <Ligand_Instance>  (433) 
nan

>  <PDB_ID>  (433) 
nan

>  <Standardized_SMILES>  (433) 
CNC1CCN(c2ccc(Nc3ncc4c5ccncc5n(C5CCCC5)c4n3)nc2)CC1

>  <Name>  (433) 
nan

>  <Pocket>  (433) 
nan

>  <ATP_Site>  (433) 
nan

>  <Peripheral>  (433) 
nan

>  <Num_H_Atoms_ProtBoundConf>  (433) 
nan

>  <Num_Resolved_Atoms>  (433) 
nan

>  <Num_Not_Resolved_Atoms>  (433) 
nan

$$$$
CHEMBL3698705
     RDKit          3D

  0  0  0  0  0  0  0  0  0  0999 V3000
M  V30 BEGIN CTAB
M  V30 COUNTS 58 63 0 0 0
M  V30 BEGIN ATOM
M  V30 1 C 1.113454 -3.229105 6.732949 0
M  V30 2 C 1.480353 -3.624112 5.336546 0
M  V30 3 C 2.820788 -4.268081 5.223622 0
M  V30 4 C 3.228598 -4.059751 3.802801 0
M  V30 5 N 2.506144 -2.887148 3.378415 0
M  V30 6 C 2.493760 -2.249689 2.110237 0
M  V30 7 C 1.763452 -1.103323 1.823013 0
M  V30 8 C 1.742485 -0.500697 0.579487 0
M  V30 9 C 2.505912 -1.094070 -0.432548 0
M  V30 10 N 2.474167 -0.497395 -1.720266 0
M  V30 11 C 1.677827 0.664252 -1.890332 0
M  V30 12 N 2.003880 1.967112 -2.100001 0
M  V30 13 C 1.060827 2.914048 -2.220402 0
M  V30 14 C -0.279795 2.603142 -2.135447 0
M  V30 15 C -1.430291 3.326288 -2.214833 0
M  V30 16 C -1.684670 4.675556 -2.417341 0
M  V30 17 C -3.004493 5.054143 -2.437395 0
M  V30 18 N -4.016842 4.152407 -2.267226 0
M  V30 19 C -3.734713 2.840873 -2.071025 0
M  V30 20 C -2.423839 2.412751 -2.043385 0
M  V30 21 N -1.983063 1.161720 -1.862802 0
M  V30 22 C -2.627209 -0.105449 -1.642068 0
M  V30 23 C -1.642986 -1.251364 -1.602845 0
M  V30 24 C -2.580886 -2.457345 -1.593047 0
M  V30 25 C -3.853490 -1.968862 -2.269804 0
M  V30 26 C -3.513736 -0.559069 -2.777128 0
M  V30 27 C -0.624324 1.286318 -1.922340 0
M  V30 28 N 0.363560 0.398559 -1.813231 0
M  V30 29 N 3.239704 -2.223715 -0.186741 0
M  V30 30 C 3.216256 -2.765622 1.057954 0
M  V30 31 C 1.691098 -2.373843 4.497629 0
M  V30 32 H 0.211985 -2.586686 6.704306 0
M  V30 33 H 0.761873 -4.164377 7.261052 0
M  V30 34 H 1.942697 -2.732050 7.253720 0
M  V30 35 H 0.649003 -4.201233 4.888845 0
M  V30 36 H 2.800138 -5.337863 5.521155 0
M  V30 37 H 3.504332 -3.678072 5.903760 0
M  V30 38 H 4.325735 -3.929374 3.675159 0
M  V30 39 H 2.904324 -4.972130 3.224116 0
M  V30 40 H 1.185638 -0.663801 2.605652 0
M  V30 41 H 1.152852 0.382499 0.436073 0
M  V30 42 H 3.044215 -0.952200 -2.476325 0
M  V30 43 H 1.383818 3.929667 -2.386755 0
M  V30 44 H -0.846126 5.343434 -2.545875 0
M  V30 45 H -3.257899 6.093074 -2.592913 0
M  V30 46 H -4.577440 2.177041 -1.940622 0
M  V30 47 H -3.218779 -0.131607 -0.696866 0
M  V30 48 H -1.121552 -1.284870 -2.582244 0
M  V30 49 H -0.981335 -1.256743 -0.738422 0
M  V30 50 H -2.131608 -3.302116 -2.159333 0
M  V30 51 H -2.783068 -2.700495 -0.531988 0
M  V30 52 H -4.164699 -2.618597 -3.098134 0
M  V30 53 H -4.647005 -1.821807 -1.498994 0
M  V30 54 H -2.868417 -0.693053 -3.668796 0
M  V30 55 H -4.399707 0.034919 -2.954644 0
M  V30 56 H 3.828455 -3.669758 1.182664 0
M  V30 57 H 0.757877 -1.918641 4.161498 0
M  V30 58 H 2.307373 -1.621544 5.018726 0
M  V30 END ATOM
M  V30 BEGIN BOND
M  V30 1 1 1 2
M  V30 2 1 2 3
M  V30 3 1 3 4
M  V30 4 1 4 5
M  V30 5 1 5 6
M  V30 6 2 6 7
M  V30 7 1 7 8
M  V30 8 2 8 9
M  V30 9 1 9 10
M  V30 10 1 10 11
M  V30 11 2 11 12
M  V30 12 1 12 13
M  V30 13 2 13 14
M  V30 14 1 14 15
M  V30 15 2 15 16
M  V30 16 1 16 17
M  V30 17 2 17 18
M  V30 18 1 18 19
M  V30 19 2 19 20
M  V30 20 1 20 21
M  V30 21 1 21 22
M  V30 22 1 22 23
M  V30 23 1 23 24
M  V30 24 1 24 25
M  V30 25 1 25 26
M  V30 26 1 21 27
M  V30 27 2 27 28
M  V30 28 1 9 29
M  V30 29 2 29 30
M  V30 30 1 5 31
M  V30 31 1 31 2
M  V30 32 1 30 6
M  V30 33 1 28 11
M  V30 34 1 27 14
M  V30 35 1 20 15
M  V30 36 1 26 22
M  V30 37 1 1 32
M  V30 38 1 1 33
M  V30 39 1 1 34
M  V30 40 1 2 35
M  V30 41 1 3 36
M  V30 42 1 3 37
M  V30 43 1 4 38
M  V30 44 1 4 39
M  V30 45 1 7 40
M  V30 46 1 8 41
M  V30 47 1 10 42
M  V30 48 1 13 43
M  V30 49 1 16 44
M  V30 50 1 17 45
M  V30 51 1 19 46
M  V30 52 1 22 47
M  V30 53 1 23 48
M  V30 54 1 23 49
M  V30 55 1 24 50
M  V30 56 1 24 51
M  V30 57 1 25 52
M  V30 58 1 25 53
M  V30 59 1 26 54
M  V30 60 1 26 55
M  V30 61 1 30 56
M  V30 62 1 31 57
M  V30 63 1 31 58
M  V30 END BOND
M  V30 END CTAB
M  END
>  <Dataset>  (434) 
ChEMBL_Kinases

>  <Ligand_Instance>  (434) 
nan

>  <PDB_ID>  (434) 
nan

>  <Standardized_SMILES>  (434) 
CC1CCN(c2ccc(Nc3ncc4c5ccncc5n(C5CCCC5)c4n3)nc2)C1

>  <Name>  (434) 
nan

>  <Pocket>  (434) 
nan

>  <ATP_Site>  (434) 
nan

>  <Peripheral>  (434) 
nan

>  <Num_H_Atoms_ProtBoundConf>  (434) 
nan

>  <Num_Resolved_Atoms>  (434) 
nan

>  <Num_Not_Resolved_Atoms>  (434) 
nan

$$$$
CHEMBL3698704
     RDKit          3D

  0  0  0  0  0  0  0  0  0  0999 V3000
M  V30 BEGIN CTAB
M  V30 COUNTS 59 64 0 0 0
M  V30 BEGIN ATOM
M  V30 1 C 4.399206 -3.318896 7.397564 0
M  V30 2 O 5.156310 -3.589678 6.260705 0
M  V30 3 C 4.874300 -2.654142 5.307855 0
M  V30 4 C 6.116069 -1.960000 4.753854 0
M  V30 5 C 5.813079 -1.841329 3.252997 0
M  V30 6 N 4.388372 -2.109223 3.177311 0
M  V30 7 C 3.354254 -1.386877 2.488957 0
M  V30 8 C 3.685617 -0.173050 1.923651 0
M  V30 9 C 2.630905 0.444075 1.296860 0
M  V30 10 C 1.389334 -0.073327 1.233964 0
M  V30 11 N 0.401726 0.693193 0.577672 0
M  V30 12 C -0.964310 0.586304 0.234347 0
M  V30 13 N -1.784000 0.814651 1.319268 0
M  V30 14 C -3.137988 0.742658 1.074281 0
M  V30 15 C -3.644080 0.454722 -0.199358 0
M  V30 16 C -4.960525 0.357855 -0.564102 0
M  V30 17 C -6.210823 0.459468 -0.027236 0
M  V30 18 C -7.362730 0.275059 -0.801013 0
M  V30 19 N -7.159236 -0.003775 -2.084474 0
M  V30 20 C -5.975411 -0.120535 -2.686332 0
M  V30 21 C -4.840025 0.061885 -1.920927 0
M  V30 22 N -3.564112 -0.011104 -2.326368 0
M  V30 23 C -3.080390 -0.296437 -3.635835 0
M  V30 24 C -1.579478 -0.416422 -3.702776 0
M  V30 25 C -1.280438 -0.416627 -5.199494 0
M  V30 26 C -2.443907 0.307613 -5.832123 0
M  V30 27 C -3.372429 0.724452 -4.682879 0
M  V30 28 C -2.768808 0.237540 -1.236626 0
M  V30 29 N -1.474386 0.316832 -0.955151 0
M  V30 30 N 1.162710 -1.250701 1.807550 0
M  V30 31 C 2.086303 -1.978129 2.456386 0
M  V30 32 C 4.337845 -3.295864 4.013990 0
M  V30 33 H 4.604175 -4.072051 8.204707 0
M  V30 34 H 4.679650 -2.338053 7.881162 0
M  V30 35 H 3.318045 -3.216736 7.169458 0
M  V30 36 H 4.136418 -1.882191 5.584459 0
M  V30 37 H 6.246561 -0.941295 5.184022 0
M  V30 38 H 6.969940 -2.632424 4.956531 0
M  V30 39 H 6.070915 -0.837361 2.879932 0
M  V30 40 H 6.401523 -2.591270 2.694653 0
M  V30 41 H 4.661496 0.279818 1.948337 0
M  V30 42 H 2.863877 1.412052 0.834650 0
M  V30 43 H 0.571185 1.636749 0.173249 0
M  V30 44 H -3.809999 0.917582 1.907943 0
M  V30 45 H -6.278586 0.684693 1.012083 0
M  V30 46 H -8.360506 0.351490 -0.392809 0
M  V30 47 H -6.044248 -0.353681 -3.730568 0
M  V30 48 H -3.476007 -1.298115 -3.963113 0
M  V30 49 H -1.190281 -1.361686 -3.308805 0
M  V30 50 H -1.030469 0.424550 -3.255862 0
M  V30 51 H -1.194276 -1.468442 -5.580212 0
M  V30 52 H -0.309232 0.069969 -5.427436 0
M  V30 53 H -2.981852 -0.428855 -6.475943 0
M  V30 54 H -2.124697 1.171195 -6.432830 0
M  V30 55 H -4.412402 0.780947 -5.030357 0
M  V30 56 H -3.085888 1.735535 -4.313972 0
M  V30 57 H 1.875186 -2.916518 2.904471 0
M  V30 58 H 5.072631 -4.049708 3.717053 0
M  V30 59 H 3.302756 -3.671325 4.146227 0
M  V30 END ATOM
M  V30 BEGIN BOND
M  V30 1 1 1 2
M  V30 2 1 2 3
M  V30 3 1 3 4
M  V30 4 1 4 5
M  V30 5 1 5 6
M  V30 6 1 6 7
M  V30 7 2 7 8
M  V30 8 1 8 9
M  V30 9 2 9 10
M  V30 10 1 10 11
M  V30 11 1 11 12
M  V30 12 2 12 13
M  V30 13 1 13 14
M  V30 14 2 14 15
M  V30 15 1 15 16
M  V30 16 2 16 17
M  V30 17 1 17 18
M  V30 18 2 18 19
M  V30 19 1 19 20
M  V30 20 2 20 21
M  V30 21 1 21 22
M  V30 22 1 22 23
M  V30 23 1 23 24
M  V30 24 1 24 25
M  V30 25 1 25 26
M  V30 26 1 26 27
M  V30 27 1 22 28
M  V30 28 2 28 29
M  V30 29 1 10 30
M  V30 30 2 30 31
M  V30 31 1 6 32
M  V30 32 1 32 3
M  V30 33 1 31 7
M  V30 34 1 29 12
M  V30 35 1 28 15
M  V30 36 1 21 16
M  V30 37 1 27 23
M  V30 38 1 1 33
M  V30 39 1 1 34
M  V30 40 1 1 35
M  V30 41 1 3 36
M  V30 42 1 4 37
M  V30 43 1 4 38
M  V30 44 1 5 39
M  V30 45 1 5 40
M  V30 46 1 8 41
M  V30 47 1 9 42
M  V30 48 1 11 43
M  V30 49 1 14 44
M  V30 50 1 17 45
M  V30 51 1 18 46
M  V30 52 1 20 47
M  V30 53 1 23 48
M  V30 54 1 24 49
M  V30 55 1 24 50
M  V30 56 1 25 51
M  V30 57 1 25 52
M  V30 58 1 26 53
M  V30 59 1 26 54
M  V30 60 1 27 55
M  V30 61 1 27 56
M  V30 62 1 31 57
M  V30 63 1 32 58
M  V30 64 1 32 59
M  V30 END BOND
M  V30 END CTAB
M  END
>  <Dataset>  (435) 
ChEMBL_Kinases

>  <Ligand_Instance>  (435) 
nan

>  <PDB_ID>  (435) 
nan

>  <Standardized_SMILES>  (435) 
COC1CCN(c2ccc(Nc3ncc4c5ccncc5n(C5CCCC5)c4n3)nc2)C1

>  <Name>  (435) 
nan

>  <Pocket>  (435) 
nan

>  <ATP_Site>  (435) 
nan

>  <Peripheral>  (435) 
nan

>  <Num_H_Atoms_ProtBoundConf>  (435) 
nan

>  <Num_Resolved_Atoms>  (435) 
nan

>  <Num_Not_Resolved_Atoms>  (435) 
nan

$$$$
CHEMBL3698703
     RDKit          3D

  0  0  0  0  0  0  0  0  0  0999 V3000
M  V30 BEGIN CTAB
M  V30 COUNTS 63 68 0 0 0
M  V30 BEGIN ATOM
M  V30 1 C 3.052035 0.692345 5.278564 0
M  V30 2 C 2.387220 -0.641815 5.589957 0
M  V30 3 C 2.977872 -1.729865 4.715373 0
M  V30 4 N 2.050506 -2.027747 3.628288 0
M  V30 5 C 2.096786 -1.847870 2.223814 0
M  V30 6 C 1.434534 -0.778005 1.676590 0
M  V30 7 C 1.510415 -0.683179 0.301591 0
M  V30 8 C 2.190055 -1.577236 -0.487324 0
M  V30 9 N 2.248448 -1.484482 -1.904236 0
M  V30 10 C 1.547363 -0.367955 -2.483129 0
M  V30 11 N 1.953751 0.778180 -3.073678 0
M  V30 12 C 1.023511 1.641051 -3.504634 0
M  V30 13 C -0.311721 1.393184 -3.362425 0
M  V30 14 C -1.420458 2.105774 -3.715083 0
M  V30 15 C -1.658422 3.329236 -4.347749 0
M  V30 16 C -2.980874 3.706751 -4.532419 0
M  V30 17 N -4.046130 2.974269 -4.143400 0
M  V30 18 C -3.853312 1.785576 -3.527912 0
M  V30 19 C -2.540853 1.418418 -3.349090 0
M  V30 20 N -2.089660 0.293241 -2.777725 0
M  V30 21 C -2.869084 -0.780341 -2.215094 0
M  V30 22 C -2.358618 -1.280489 -0.885523 0
M  V30 23 C -3.240991 -2.530137 -0.727308 0
M  V30 24 C -3.101479 -3.162275 -2.102842 0
M  V30 25 C -2.780570 -2.042722 -3.048179 0
M  V30 26 C -0.744168 0.218603 -2.755668 0
M  V30 27 N 0.245498 -0.591496 -2.353024 0
M  V30 28 N 2.827463 -2.618537 0.132025 0
M  V30 29 C 2.789190 -2.762904 1.463711 0
M  V30 30 C 0.841050 -2.649752 4.183761 0
M  V30 31 C 0.282304 -1.782269 5.262063 0
M  V30 32 C -1.179918 -1.486519 4.912295 0
M  V30 33 N 0.960475 -0.521874 5.408259 0
M  V30 34 H 3.249777 1.225691 6.228078 0
M  V30 35 H 4.017449 0.514244 4.785426 0
M  V30 36 H 2.408474 1.307981 4.607390 0
M  V30 37 H 2.604671 -0.899582 6.638788 0
M  V30 38 H 3.117499 -2.632089 5.323902 0
M  V30 39 H 3.950365 -1.361760 4.339442 0
M  V30 40 H 0.874811 -0.029160 2.229943 0
M  V30 41 H 1.021472 0.132379 -0.228840 0
M  V30 42 H 2.773002 -2.198976 -2.449990 0
M  V30 43 H 1.372320 2.535118 -3.965830 0
M  V30 44 H -0.825316 3.924810 -4.665503 0
M  V30 45 H -3.219762 4.650054 -5.022051 0
M  V30 46 H -4.687686 1.188951 -3.210629 0
M  V30 47 H -3.924989 -0.509326 -2.115388 0
M  V30 48 H -1.319128 -1.620701 -0.923924 0
M  V30 49 H -2.528329 -0.572736 -0.045614 0
M  V30 50 H -4.262456 -2.194437 -0.546357 0
M  V30 51 H -2.821074 -3.167338 0.068447 0
M  V30 52 H -2.259027 -3.890947 -2.042887 0
M  V30 53 H -4.030344 -3.674653 -2.368757 0
M  V30 54 H -1.757894 -2.113321 -3.478597 0
M  V30 55 H -3.531094 -1.963210 -3.859848 0
M  V30 56 H 3.299921 -3.597919 1.956974 0
M  V30 57 H 0.098092 -2.841157 3.383770 0
M  V30 58 H 1.098155 -3.649634 4.620638 0
M  V30 59 H 0.290570 -2.315403 6.221801 0
M  V30 60 H -1.543222 -2.219436 4.163748 0
M  V30 61 H -1.812738 -1.577582 5.815711 0
M  V30 62 H -1.276880 -0.487001 4.462069 0
M  V30 63 H 0.725681 0.115414 4.618534 0
M  V30 END ATOM
M  V30 BEGIN BOND
M  V30 1 1 1 2
M  V30 2 1 2 3
M  V30 3 1 3 4
M  V30 4 1 4 5
M  V30 5 2 5 6
M  V30 6 1 6 7
M  V30 7 2 7 8
M  V30 8 1 8 9
M  V30 9 1 9 10
M  V30 10 2 10 11
M  V30 11 1 11 12
M  V30 12 2 12 13
M  V30 13 1 13 14
M  V30 14 2 14 15
M  V30 15 1 15 16
M  V30 16 2 16 17
M  V30 17 1 17 18
M  V30 18 2 18 19
M  V30 19 1 19 20
M  V30 20 1 20 21
M  V30 21 1 21 22
M  V30 22 1 22 23
M  V30 23 1 23 24
M  V30 24 1 24 25
M  V30 25 1 20 26
M  V30 26 2 26 27
M  V30 27 1 8 28
M  V30 28 2 28 29
M  V30 29 1 4 30
M  V30 30 1 30 31
M  V30 31 1 31 32
M  V30 32 1 31 33
M  V30 33 1 33 2
M  V30 34 1 29 5
M  V30 35 1 27 10
M  V30 36 1 26 13
M  V30 37 1 19 14
M  V30 38 1 25 21
M  V30 39 1 1 34
M  V30 40 1 1 35
M  V30 41 1 1 36
M  V30 42 1 2 37
M  V30 43 1 3 38
M  V30 44 1 3 39
M  V30 45 1 6 40
M  V30 46 1 7 41
M  V30 47 1 9 42
M  V30 48 1 12 43
M  V30 49 1 15 44
M  V30 50 1 16 45
M  V30 51 1 18 46
M  V30 52 1 21 47
M  V30 53 1 22 48
M  V30 54 1 22 49
M  V30 55 1 23 50
M  V30 56 1 23 51
M  V30 57 1 24 52
M  V30 58 1 24 53
M  V30 59 1 25 54
M  V30 60 1 25 55
M  V30 61 1 29 56
M  V30 62 1 30 57
M  V30 63 1 30 58
M  V30 64 1 31 59
M  V30 65 1 32 60
M  V30 66 1 32 61
M  V30 67 1 32 62
M  V30 68 1 33 63
M  V30 END BOND
M  V30 END CTAB
M  END
>  <Dataset>  (436) 
ChEMBL_Kinases

>  <Ligand_Instance>  (436) 
nan

>  <PDB_ID>  (436) 
nan

>  <Standardized_SMILES>  (436) 
CC1CN(c2ccc(Nc3ncc4c5ccncc5n(C5CCCC5)c4n3)nc2)CC(C)N1

>  <Name>  (436) 
nan

>  <Pocket>  (436) 
nan

>  <ATP_Site>  (436) 
nan

>  <Peripheral>  (436) 
nan

>  <Num_H_Atoms_ProtBoundConf>  (436) 
nan

>  <Num_Resolved_Atoms>  (436) 
nan

>  <Num_Not_Resolved_Atoms>  (436) 
nan

$$$$
CHEMBL3698702
     RDKit          3D

  0  0  0  0  0  0  0  0  0  0999 V3000
M  V30 BEGIN CTAB
M  V30 COUNTS 63 68 0 0 0
M  V30 BEGIN ATOM
M  V30 1 C 3.128994 -6.219919 5.367347 0
M  V30 2 C 3.643515 -5.023491 4.958577 0
M  V30 3 C 2.936401 -4.184884 4.126052 0
M  V30 4 C 3.123137 -2.930997 3.528071 0
M  V30 5 C 4.273150 -2.180408 3.706366 0
M  V30 6 N 4.295536 -0.988166 3.068784 0
M  V30 7 C 3.223899 -0.603354 2.313041 0
M  V30 8 N 3.243139 0.649207 1.639463 0
M  V30 9 C 2.180029 1.161665 0.844671 0
M  V30 10 C 2.274702 2.400601 0.210340 0
M  V30 11 C 1.244663 2.898770 -0.556599 0
M  V30 12 C 0.066694 2.180578 -0.726797 0
M  V30 13 N -0.997091 2.697520 -1.515683 0
M  V30 14 C -2.199080 1.925918 -1.656488 0
M  V30 15 C -3.251255 2.563464 -2.487252 0
M  V30 16 C -3.739510 3.895719 -1.975261 0
M  V30 17 C -4.876875 4.372988 -2.823018 0
M  V30 18 C -5.150852 3.611869 -4.058826 0
M  V30 19 N -4.097318 2.870939 -4.657976 0
M  V30 20 C -2.873823 2.816710 -3.919759 0
M  V30 21 C 0.023617 0.965087 -0.080480 0
M  V30 22 N 1.016136 0.451041 0.676935 0
M  V30 23 N 2.169143 -1.408600 2.212700 0
M  V30 24 C 2.009543 -2.610508 2.784807 0
M  V30 25 N 1.101801 -3.635182 2.887058 0
M  V30 26 C -0.081350 -3.419931 2.164406 0
M  V30 27 C 0.243956 -3.106716 0.682935 0
M  V30 28 C 0.551291 -4.497098 0.135847 0
M  V30 29 C -0.304249 -5.445852 0.949770 0
M  V30 30 C -1.016515 -4.564657 1.920424 0
M  V30 31 C 1.682407 -4.536780 3.681978 0
M  V30 32 C 1.221539 -5.746801 4.126308 0
M  V30 33 N 1.904170 -6.560894 4.932802 0
M  V30 34 H 3.650669 -6.912839 6.021794 0
M  V30 35 H 4.621358 -4.698543 5.275905 0
M  V30 36 H 5.099425 -2.496215 4.299428 0
M  V30 37 H 4.088061 1.243594 1.726913 0
M  V30 38 H 3.196264 2.921784 0.365405 0
M  V30 39 H 1.394705 3.859543 -1.011662 0
M  V30 40 H -0.882029 3.609723 -1.968325 0
M  V30 41 H -1.996790 0.923730 -2.053254 0
M  V30 42 H -2.617790 1.798803 -0.636468 0
M  V30 43 H -4.134914 1.867443 -2.491969 0
M  V30 44 H -3.980043 3.793155 -0.918106 0
M  V30 45 H -2.864785 4.593968 -2.039912 0
M  V30 46 H -5.774758 4.389941 -2.145681 0
M  V30 47 H -4.690115 5.452787 -3.045593 0
M  V30 48 H -5.570430 4.285924 -4.843929 0
M  V30 49 H -5.986411 2.876266 -3.863128 0
M  V30 50 H -4.366393 1.909012 -4.928344 0
M  V30 51 H -2.230177 2.029719 -4.348780 0
M  V30 52 H -2.366978 3.819724 -4.044640 0
M  V30 53 H -0.912344 0.405634 -0.222606 0
M  V30 54 H -0.654124 -2.510884 2.524100 0
M  V30 55 H -0.703070 -2.721410 0.202299 0
M  V30 56 H 1.013383 -2.381844 0.528507 0
M  V30 57 H 0.242152 -4.572966 -0.917267 0
M  V30 58 H 1.617616 -4.760352 0.295456 0
M  V30 59 H 0.307359 -6.185641 1.485542 0
M  V30 60 H -1.052880 -5.969919 0.292490 0
M  V30 61 H -1.391665 -5.106234 2.772545 0
M  V30 62 H -1.936973 -4.095291 1.413756 0
M  V30 63 H 0.256673 -6.099015 3.835273 0
M  V30 END ATOM
M  V30 BEGIN BOND
M  V30 1 2 1 2
M  V30 2 1 2 3
M  V30 3 1 3 4
M  V30 4 2 4 5
M  V30 5 1 5 6
M  V30 6 2 6 7
M  V30 7 1 7 8
M  V30 8 1 8 9
M  V30 9 2 9 10
M  V30 10 1 10 11
M  V30 11 2 11 12
M  V30 12 1 12 13
M  V30 13 1 13 14
M  V30 14 1 14 15
M  V30 15 1 15 16
M  V30 16 1 16 17
M  V30 17 1 17 18
M  V30 18 1 18 19
M  V30 19 1 19 20
M  V30 20 1 12 21
M  V30 21 2 21 22
M  V30 22 1 7 23
M  V30 23 2 23 24
M  V30 24 1 24 25
M  V30 25 1 25 26
M  V30 26 1 26 27
M  V30 27 1 27 28
M  V30 28 1 28 29
M  V30 29 1 29 30
M  V30 30 1 25 31
M  V30 31 1 31 32
M  V30 32 2 32 33
M  V30 33 1 33 1
M  V30 34 2 31 3
M  V30 35 1 24 4
M  V30 36 1 30 26
M  V30 37 1 22 9
M  V30 38 1 20 15
M  V30 39 1 1 34
M  V30 40 1 2 35
M  V30 41 1 5 36
M  V30 42 1 8 37
M  V30 43 1 10 38
M  V30 44 1 11 39
M  V30 45 1 13 40
M  V30 46 1 14 41
M  V30 47 1 14 42
M  V30 48 1 15 43
M  V30 49 1 16 44
M  V30 50 1 16 45
M  V30 51 1 17 46
M  V30 52 1 17 47
M  V30 53 1 18 48
M  V30 54 1 18 49
M  V30 55 1 19 50
M  V30 56 1 20 51
M  V30 57 1 20 52
M  V30 58 1 21 53
M  V30 59 1 26 54
M  V30 60 1 27 55
M  V30 61 1 27 56
M  V30 62 1 28 57
M  V30 63 1 28 58
M  V30 64 1 29 59
M  V30 65 1 29 60
M  V30 66 1 30 61
M  V30 67 1 30 62
M  V30 68 1 32 63
M  V30 END BOND
M  V30 END CTAB
M  END
>  <Dataset>  (437) 
ChEMBL_Kinases

>  <Ligand_Instance>  (437) 
nan

>  <PDB_ID>  (437) 
nan

>  <Standardized_SMILES>  (437) 
c1cc2c3cnc(Nc4ccc(NCC5CCCNC5)cn4)nc3n(C3CCCC3)c2cn1

>  <Name>  (437) 
nan

>  <Pocket>  (437) 
nan

>  <ATP_Site>  (437) 
nan

>  <Peripheral>  (437) 
nan

>  <Num_H_Atoms_ProtBoundConf>  (437) 
nan

>  <Num_Resolved_Atoms>  (437) 
nan

>  <Num_Not_Resolved_Atoms>  (437) 
nan

$$$$
CHEMBL3698701
     RDKit          3D

  0  0  0  0  0  0  0  0  0  0999 V3000
M  V30 BEGIN CTAB
M  V30 COUNTS 60 65 0 0 0
M  V30 BEGIN ATOM
M  V30 1 C 1.428394 -4.918830 5.694782 0
M  V30 2 C 2.179859 -4.033999 4.943225 0
M  V30 3 C 1.781521 -3.746226 3.662381 0
M  V30 4 C 2.310690 -2.927581 2.697601 0
M  V30 5 C 3.419959 -2.100856 2.656379 0
M  V30 6 N 3.724157 -1.384498 1.559620 0
M  V30 7 C 2.954833 -1.447020 0.455439 0
M  V30 8 N 3.041959 -0.801214 -0.805528 0
M  V30 9 C 2.242063 0.359793 -0.902214 0
M  V30 10 C 1.445260 0.834448 0.110829 0
M  V30 11 C 0.672001 1.950103 0.005058 0
M  V30 12 C 0.650878 2.680663 -1.162769 0
M  V30 13 N -0.131895 3.838347 -1.385116 0
M  V30 14 C -1.095591 4.517962 -0.599097 0
M  V30 15 C -2.446976 3.936737 -0.492872 0
M  V30 16 C -3.139986 3.818893 -1.864407 0
M  V30 17 C -4.406091 3.100952 -1.388655 0
M  V30 18 N -4.019630 2.309053 -0.234546 0
M  V30 19 C -2.568430 2.509428 -0.066330 0
M  V30 20 C 1.460617 2.174033 -2.149674 0
M  V30 21 N 2.217227 1.084537 -2.049021 0
M  V30 22 N 1.882504 -2.248863 0.500855 0
M  V30 23 C 1.520121 -2.990108 1.559461 0
M  V30 24 N 0.512673 -3.846715 1.837751 0
M  V30 25 C -0.532466 -4.188574 0.924706 0
M  V30 26 C -0.836896 -3.088920 -0.072182 0
M  V30 27 C -0.318415 -3.525140 -1.407168 0
M  V30 28 C 0.217966 -4.917814 -1.251971 0
M  V30 29 C -0.249725 -5.423644 0.096650 0
M  V30 30 C 0.658113 -4.303298 3.087232 0
M  V30 31 C -0.061284 -5.188959 3.892466 0
M  V30 32 N 0.320468 -5.481314 5.156545 0
M  V30 33 H 1.724521 -5.166906 6.722227 0
M  V30 34 H 3.047131 -3.606168 5.393363 0
M  V30 35 H 4.091044 -1.991188 3.496909 0
M  V30 36 H 3.614705 -1.097580 -1.617135 0
M  V30 37 H 1.440005 0.277785 1.045889 0
M  V30 38 H 0.095236 2.252044 0.840343 0
M  V30 39 H 0.028769 4.297700 -2.334752 0
M  V30 40 H -0.725114 4.670432 0.470808 0
M  V30 41 H -1.212226 5.579262 -0.947865 0
M  V30 42 H -3.079791 4.558483 0.175859 0
M  V30 43 H -2.550965 3.098483 -2.432621 0
M  V30 44 H -3.327971 4.780940 -2.329907 0
M  V30 45 H -5.075902 3.902045 -0.965633 0
M  V30 46 H -4.904509 2.532534 -2.172721 0
M  V30 47 H -4.229826 1.287030 -0.379326 0
M  V30 48 H -2.067675 1.826182 -0.807147 0
M  V30 49 H -2.303468 2.295308 0.970101 0
M  V30 50 H 1.537405 2.662311 -3.132609 0
M  V30 51 H -1.470224 -4.390379 1.491177 0
M  V30 52 H -1.952550 -2.959597 -0.175098 0
M  V30 53 H -0.469628 -2.099355 0.225672 0
M  V30 54 H -1.125213 -3.580672 -2.176291 0
M  V30 55 H 0.435530 -2.815083 -1.827157 0
M  V30 56 H -0.112588 -5.593875 -2.055103 0
M  V30 57 H 1.331201 -4.920432 -1.259576 0
M  V30 58 H 0.485364 -6.045800 0.621959 0
M  V30 59 H -1.166063 -6.006100 -0.079847 0
M  V30 60 H -0.934400 -5.643742 3.493920 0
M  V30 END ATOM
M  V30 BEGIN BOND
M  V30 1 2 1 2
M  V30 2 1 2 3
M  V30 3 1 3 4
M  V30 4 2 4 5
M  V30 5 1 5 6
M  V30 6 2 6 7
M  V30 7 1 7 8
M  V30 8 1 8 9
M  V30 9 2 9 10
M  V30 10 1 10 11
M  V30 11 2 11 12
M  V30 12 1 12 13
M  V30 13 1 13 14
M  V30 14 1 14 15
M  V30 15 1 15 16
M  V30 16 1 16 17
M  V30 17 1 17 18
M  V30 18 1 18 19
M  V30 19 1 12 20
M  V30 20 2 20 21
M  V30 21 1 7 22
M  V30 22 2 22 23
M  V30 23 1 23 24
M  V30 24 1 24 25
M  V30 25 1 25 26
M  V30 26 1 26 27
M  V30 27 1 27 28
M  V30 28 1 28 29
M  V30 29 1 24 30
M  V30 30 1 30 31
M  V30 31 2 31 32
M  V30 32 1 32 1
M  V30 33 2 30 3
M  V30 34 1 23 4
M  V30 35 1 29 25
M  V30 36 1 21 9
M  V30 37 1 19 15
M  V30 38 1 1 33
M  V30 39 1 2 34
M  V30 40 1 5 35
M  V30 41 1 8 36
M  V30 42 1 10 37
M  V30 43 1 11 38
M  V30 44 1 13 39
M  V30 45 1 14 40
M  V30 46 1 14 41
M  V30 47 1 15 42
M  V30 48 1 16 43
M  V30 49 1 16 44
M  V30 50 1 17 45
M  V30 51 1 17 46
M  V30 52 1 18 47
M  V30 53 1 19 48
M  V30 54 1 19 49
M  V30 55 1 20 50
M  V30 56 1 25 51
M  V30 57 1 26 52
M  V30 58 1 26 53
M  V30 59 1 27 54
M  V30 60 1 27 55
M  V30 61 1 28 56
M  V30 62 1 28 57
M  V30 63 1 29 58
M  V30 64 1 29 59
M  V30 65 1 31 60
M  V30 END BOND
M  V30 END CTAB
M  END
>  <Dataset>  (438) 
ChEMBL_Kinases

>  <Ligand_Instance>  (438) 
nan

>  <PDB_ID>  (438) 
nan

>  <Standardized_SMILES>  (438) 
c1cc2c3cnc(Nc4ccc(NCC5CCNC5)cn4)nc3n(C3CCCC3)c2cn1

>  <Name>  (438) 
nan

>  <Pocket>  (438) 
nan

>  <ATP_Site>  (438) 
nan

>  <Peripheral>  (438) 
nan

>  <Num_H_Atoms_ProtBoundConf>  (438) 
nan

>  <Num_Resolved_Atoms>  (438) 
nan

>  <Num_Not_Resolved_Atoms>  (438) 
nan

$$$$
CHEMBL3698928
     RDKit          3D

  0  0  0  0  0  0  0  0  0  0999 V3000
M  V30 BEGIN CTAB
M  V30 COUNTS 49 51 0 0 0
M  V30 BEGIN ATOM
M  V30 1 C 1.611542 -3.891715 0.198688 0
M  V30 2 C 1.930033 -3.466805 1.620510 0
M  V30 3 C 1.786168 -1.923900 1.734837 0
M  V30 4 C 2.127279 -1.611703 3.191982 0
M  V30 5 N 1.158905 -2.266446 4.023000 0
M  V30 6 O 2.615530 -1.368794 0.844044 0
M  V30 7 C 2.730998 -0.585739 -0.206469 0
M  V30 8 C 4.104330 -0.621374 -0.509388 0
M  V30 9 C 4.699211 0.074766 -1.575506 0
M  V30 10 F 5.986320 0.131063 -1.976716 0
M  V30 11 C 3.860102 0.834530 -2.360294 0
M  V30 12 C 2.509778 0.888490 -2.086147 0
M  V30 13 C 1.934081 0.188655 -1.018036 0
M  V30 14 N 0.552343 0.204748 -0.688404 0
M  V30 15 C 0.066175 0.757260 0.521478 0
M  V30 16 N 1.029183 1.271885 1.281445 0
M  V30 17 C 0.891677 1.855362 2.456212 0
M  V30 18 N -0.370199 1.916359 2.897343 0
M  V30 19 C -1.368353 1.393503 2.130523 0
M  V30 20 S -3.073276 1.366405 2.513462 0
M  V30 21 C -3.552124 0.546007 1.032876 0
M  V30 22 C -4.946627 0.167686 0.650943 0
M  V30 23 O -5.577624 -0.393864 -0.285861 0
M  V30 24 O -5.936655 0.488326 1.532802 0
M  V30 25 C -7.303313 0.217472 1.354441 0
M  V30 26 C -2.378110 0.333896 0.318402 0
M  V30 27 C -2.400448 -0.351705 -1.015833 0
M  V30 28 C -1.251276 0.797227 0.935746 0
M  V30 29 H 0.539865 -3.724540 0.048481 0
M  V30 30 H 1.947299 -4.922228 0.052869 0
M  V30 31 H 2.169336 -3.204625 -0.493022 0
M  V30 32 H 2.956640 -3.781212 1.841422 0
M  V30 33 H 1.253854 -3.969343 2.341219 0
M  V30 34 H 0.718671 -1.728460 1.547003 0
M  V30 35 H 2.217517 -0.532753 3.386929 0
M  V30 36 H 3.133254 -2.035938 3.430696 0
M  V30 37 H 0.309568 -2.606407 3.529806 0
M  V30 38 H 1.599346 -3.060169 4.519455 0
M  V30 39 H 4.955996 -1.146085 -0.036937 0
M  V30 40 H 4.050929 1.453227 -3.223184 0
M  V30 41 H 1.733431 1.445555 -2.620734 0
M  V30 42 H 0.234014 -0.264177 -1.547190 0
M  V30 43 H 1.635491 2.282972 3.101854 0
M  V30 44 H -7.961349 0.889050 1.919507 0
M  V30 45 H -7.567118 0.259864 0.285292 0
M  V30 46 H -7.491934 -0.811908 1.747205 0
M  V30 47 H -1.810027 -1.282664 -1.038718 0
M  V30 48 H -3.449942 -0.623592 -1.229835 0
M  V30 49 H -2.017589 0.304388 -1.832598 0
M  V30 END ATOM
M  V30 BEGIN BOND
M  V30 1 1 1 2
M  V30 2 1 2 3
M  V30 3 1 3 4
M  V30 4 1 4 5
M  V30 5 1 3 6
M  V30 6 1 6 7
M  V30 7 2 7 8
M  V30 8 1 8 9
M  V30 9 1 9 10
M  V30 10 2 9 11
M  V30 11 1 11 12
M  V30 12 2 12 13
M  V30 13 1 13 14
M  V30 14 1 14 15
M  V30 15 2 15 16
M  V30 16 1 16 17
M  V30 17 2 17 18
M  V30 18 1 18 19
M  V30 19 1 19 20
M  V30 20 1 20 21
M  V30 21 1 21 22
M  V30 22 2 22 23
M  V30 23 1 22 24
M  V30 24 1 24 25
M  V30 25 2 21 26
M  V30 26 1 26 27
M  V30 27 1 26 28
M  V30 28 1 13 7
M  V30 29 1 28 15
M  V30 30 2 28 19
M  V30 31 1 1 29
M  V30 32 1 1 30
M  V30 33 1 1 31
M  V30 34 1 2 32
M  V30 35 1 2 33
M  V30 36 1 3 34
M  V30 37 1 4 35
M  V30 38 1 4 36
M  V30 39 1 5 37
M  V30 40 1 5 38
M  V30 41 1 8 39
M  V30 42 1 11 40
M  V30 43 1 12 41
M  V30 44 1 14 42
M  V30 45 1 17 43
M  V30 46 1 25 44
M  V30 47 1 25 45
M  V30 48 1 25 46
M  V30 49 1 27 47
M  V30 50 1 27 48
M  V30 51 1 27 49
M  V30 END BOND
M  V30 END CTAB
M  END
>  <Dataset>  (439) 
ChEMBL_Kinases

>  <Ligand_Instance>  (439) 
nan

>  <PDB_ID>  (439) 
nan

>  <Standardized_SMILES>  (439) 
CCC(CN)Oc1cc(F)ccc1Nc1ncnc2sc(C(=O)OC)c(C)c12

>  <Name>  (439) 
nan

>  <Pocket>  (439) 
nan

>  <ATP_Site>  (439) 
nan

>  <Peripheral>  (439) 
nan

>  <Num_H_Atoms_ProtBoundConf>  (439) 
nan

>  <Num_Resolved_Atoms>  (439) 
nan

>  <Num_Not_Resolved_Atoms>  (439) 
nan

$$$$
CHEMBL3696566
     RDKit          3D

  0  0  0  0  0  0  0  0  0  0999 V3000
M  V30 BEGIN CTAB
M  V30 COUNTS 45 48 0 0 0
M  V30 BEGIN ATOM
M  V30 1 C 3.472059 -4.484798 1.777545 0
M  V30 2 N 3.946510 -3.601199 0.706092 0
M  V30 3 C 3.292819 -3.638244 -0.609997 0
M  V30 4 C 4.026027 -2.638443 -1.443356 0
M  V30 5 C 4.568825 -1.693864 -0.404222 0 CFG=1
M  V30 6 O 5.606097 -0.962665 -0.926852 0
M  V30 7 C 3.508983 -0.795801 0.096178 0
M  V30 8 C 2.624951 -0.073847 0.506578 0
M  V30 9 C 1.564574 0.770470 0.991644 0
M  V30 10 C 0.243140 0.432411 0.773105 0
M  V30 11 C -0.749780 1.266026 1.252800 0
M  V30 12 C -0.486784 2.447456 1.955899 0
M  V30 13 C 0.836712 2.761119 2.160024 0
M  V30 14 C 1.845503 1.943271 1.689885 0
M  V30 15 F 3.134423 2.286558 1.911070 0
M  V30 16 O -1.369452 3.380070 2.495741 0
M  V30 17 C -2.764663 3.354015 2.512705 0
M  V30 18 C -3.380242 2.007550 2.741406 0
M  V30 19 N -3.274696 1.114534 1.603699 0
M  V30 20 C -4.228735 0.435123 0.959373 0
M  V30 21 C -3.660261 -0.299901 -0.080064 0
M  V30 22 C -4.343177 -1.173874 -1.025339 0
M  V30 23 N -5.748821 -1.377158 -0.978501 0
M  V30 24 O -3.756919 -1.807233 -1.941647 0
M  V30 25 N -2.339165 -0.072077 -0.078159 0
M  V30 26 C -2.118414 0.791226 0.952648 0
M  V30 27 C 5.011772 -2.627762 0.690804 0
M  V30 28 O 5.927077 -2.829240 1.531586 0
M  V30 29 H 3.875228 -4.188779 2.762104 0
M  V30 30 H 3.846389 -5.502455 1.529298 0
M  V30 31 H 2.359506 -4.477079 1.762324 0
M  V30 32 H 3.289271 -4.659574 -1.027300 0
M  V30 33 H 2.256148 -3.267816 -0.467825 0
M  V30 34 H 4.898301 -3.121406 -1.928900 0
M  V30 35 H 3.370972 -2.147026 -2.184808 0
M  V30 36 H 6.428184 -1.126103 -0.382798 0
M  V30 37 H -0.049015 -0.461857 0.239602 0
M  V30 38 H 1.080948 3.679256 2.706988 0
M  V30 39 H -3.133423 4.006316 3.349215 0
M  V30 40 H -3.231697 3.754319 1.571197 0
M  V30 41 H -4.468164 2.187010 2.911214 0
M  V30 42 H -2.996445 1.520403 3.671030 0
M  V30 43 H -5.265400 0.478446 1.235217 0
M  V30 44 H -6.511594 -1.317242 -1.711858 0
M  V30 45 H -6.308738 -1.643138 -0.135198 0
M  V30 END ATOM
M  V30 BEGIN BOND
M  V30 1 1 1 2
M  V30 2 1 2 3
M  V30 3 1 3 4
M  V30 4 1 4 5
M  V30 5 1 5 6
M  V30 6 1 5 7 CFG=1
M  V30 7 3 7 8
M  V30 8 1 8 9
M  V30 9 2 9 10
M  V30 10 1 10 11
M  V30 11 2 11 12
M  V30 12 1 12 13
M  V30 13 2 13 14
M  V30 14 1 14 15
M  V30 15 1 12 16
M  V30 16 1 16 17
M  V30 17 1 17 18
M  V30 18 1 18 19
M  V30 19 1 19 20
M  V30 20 2 20 21
M  V30 21 1 21 22
M  V30 22 1 22 23
M  V30 23 2 22 24
M  V30 24 1 21 25
M  V30 25 2 25 26
M  V30 26 1 5 27
M  V30 27 2 27 28
M  V30 28 1 27 2
M  V30 29 1 14 9
M  V30 30 1 26 19
M  V30 31 1 26 11
M  V30 32 1 1 29
M  V30 33 1 1 30
M  V30 34 1 1 31
M  V30 35 1 3 32
M  V30 36 1 3 33
M  V30 37 1 4 34
M  V30 38 1 4 35
M  V30 39 1 6 36
M  V30 40 1 10 37
M  V30 41 1 13 38
M  V30 42 1 17 39
M  V30 43 1 17 40
M  V30 44 1 18 41
M  V30 45 1 18 42
M  V30 46 1 20 43
M  V30 47 1 23 44
M  V30 48 1 23 45
M  V30 END BOND
M  V30 END CTAB
M  END
>  <Dataset>  (440) 
ChEMBL_Kinases

>  <Ligand_Instance>  (440) 
nan

>  <PDB_ID>  (440) 
nan

>  <Standardized_SMILES>  (440) 
CN1CC[C@@](O)(C#Cc2cc3c(cc2F)OCCn2cc(C(N)=O)nc2-3)C1=O

>  <Name>  (440) 
nan

>  <Pocket>  (440) 
nan

>  <ATP_Site>  (440) 
nan

>  <Peripheral>  (440) 
nan

>  <Num_H_Atoms_ProtBoundConf>  (440) 
nan

>  <Num_Resolved_Atoms>  (440) 
nan

>  <Num_Not_Resolved_Atoms>  (440) 
nan

$$$$
CHEMBL3696567
     RDKit          3D

  0  0  0  0  0  0  0  0  0  0999 V3000
M  V30 BEGIN CTAB
M  V30 COUNTS 45 48 0 0 0
M  V30 BEGIN ATOM
M  V30 1 C 1.591622 -4.404780 3.431690 0
M  V30 2 N 2.300082 -3.225597 3.883140 0
M  V30 3 C 1.665932 -2.264548 4.759348 0
M  V30 4 C 2.721397 -1.203312 5.036847 0
M  V30 5 C 3.632198 -1.294006 3.839915 0 CFG=2
M  V30 6 O 4.911328 -0.841696 4.110586 0
M  V30 7 C 3.016339 -0.571577 2.721592 0
M  V30 8 C 2.489732 0.019933 1.802090 0
M  V30 9 C 1.865243 0.701344 0.697679 0
M  V30 10 C 0.575636 0.395758 0.262996 0
M  V30 11 C -0.027583 1.045728 -0.795004 0
M  V30 12 C 0.689975 2.051094 -1.453532 0
M  V30 13 C 1.957582 2.389740 -1.067506 0
M  V30 14 C 2.508217 1.704145 -0.002270 0
M  V30 15 F 3.774864 2.025242 0.402107 0
M  V30 16 O 0.151321 2.764854 -2.542046 0
M  V30 17 C -0.880052 2.338823 -3.445899 0
M  V30 18 C -2.217388 2.194448 -2.752381 0
M  V30 19 N -2.306969 1.047118 -1.895866 0
M  V30 20 C -3.419641 0.267949 -1.821635 0
M  V30 21 C -3.164578 -0.728959 -0.916796 0
M  V30 22 C -3.981655 -1.820823 -0.454638 0
M  V30 23 N -5.303142 -2.059588 -0.904584 0
M  V30 24 O -3.658404 -2.693984 0.385864 0
M  V30 25 N -1.924700 -0.541046 -0.465990 0
M  V30 26 C -1.391510 0.535223 -1.052770 0
M  V30 27 C 3.622519 -2.776639 3.613385 0
M  V30 28 O 4.513029 -3.612345 3.255958 0
M  V30 29 H 0.537592 -4.106011 3.178075 0
M  V30 30 H 1.648333 -5.171299 4.218737 0
M  V30 31 H 2.029679 -4.796125 2.479529 0
M  V30 32 H 0.801030 -1.763924 4.288705 0
M  V30 33 H 1.419693 -2.777788 5.701525 0
M  V30 34 H 2.302740 -0.211737 5.201584 0
M  V30 35 H 3.336207 -1.508518 5.932299 0
M  V30 36 H 5.458121 -1.032635 3.306568 0
M  V30 37 H 0.043958 -0.389462 0.794380 0
M  V30 38 H 2.451217 3.165638 -1.611374 0
M  V30 39 H -0.958793 3.096767 -4.222464 0
M  V30 40 H -0.617394 1.365677 -3.920826 0
M  V30 41 H -2.990396 2.180849 -3.546204 0
M  V30 42 H -2.371168 3.113453 -2.147278 0
M  V30 43 H -4.341154 0.392970 -2.364264 0
M  V30 44 H -6.155673 -1.455105 -0.724944 0
M  V30 45 H -5.476550 -2.918255 -1.476184 0
M  V30 END ATOM
M  V30 BEGIN BOND
M  V30 1 1 1 2
M  V30 2 1 2 3
M  V30 3 1 3 4
M  V30 4 1 4 5
M  V30 5 1 5 6
M  V30 6 1 5 7 CFG=3
M  V30 7 3 7 8
M  V30 8 1 8 9
M  V30 9 2 9 10
M  V30 10 1 10 11
M  V30 11 2 11 12
M  V30 12 1 12 13
M  V30 13 2 13 14
M  V30 14 1 14 15
M  V30 15 1 12 16
M  V30 16 1 16 17
M  V30 17 1 17 18
M  V30 18 1 18 19
M  V30 19 1 19 20
M  V30 20 2 20 21
M  V30 21 1 21 22
M  V30 22 1 22 23
M  V30 23 2 22 24
M  V30 24 1 21 25
M  V30 25 2 25 26
M  V30 26 1 5 27
M  V30 27 2 27 28
M  V30 28 1 27 2
M  V30 29 1 14 9
M  V30 30 1 26 19
M  V30 31 1 26 11
M  V30 32 1 1 29
M  V30 33 1 1 30
M  V30 34 1 1 31
M  V30 35 1 3 32
M  V30 36 1 3 33
M  V30 37 1 4 34
M  V30 38 1 4 35
M  V30 39 1 6 36
M  V30 40 1 10 37
M  V30 41 1 13 38
M  V30 42 1 17 39
M  V30 43 1 17 40
M  V30 44 1 18 41
M  V30 45 1 18 42
M  V30 46 1 20 43
M  V30 47 1 23 44
M  V30 48 1 23 45
M  V30 END BOND
M  V30 END CTAB
M  END
>  <Dataset>  (441) 
ChEMBL_Kinases

>  <Ligand_Instance>  (441) 
nan

>  <PDB_ID>  (441) 
nan

>  <Standardized_SMILES>  (441) 
CN1CC[C@](O)(C#Cc2cc3c(cc2F)OCCn2cc(C(N)=O)nc2-3)C1=O

>  <Name>  (441) 
nan

>  <Pocket>  (441) 
nan

>  <ATP_Site>  (441) 
nan

>  <Peripheral>  (441) 
nan

>  <Num_H_Atoms_ProtBoundConf>  (441) 
nan

>  <Num_Resolved_Atoms>  (441) 
nan

>  <Num_Not_Resolved_Atoms>  (441) 
nan

$$$$
CHEMBL3696573
     RDKit          3D

  0  0  0  0  0  0  0  0  0  0999 V3000
M  V30 BEGIN CTAB
M  V30 COUNTS 53 56 0 0 0
M  V30 BEGIN ATOM
M  V30 1 C 2.600206 0.740366 5.098870 0
M  V30 2 N 3.650632 0.827527 4.117594 0
M  V30 3 N 4.810341 0.218942 4.288883 0
M  V30 4 C 5.620850 0.458043 3.242379 0
M  V30 5 C 4.850297 1.265986 2.419719 0
M  V30 6 C 3.599640 1.519889 2.940469 0
M  V30 7 C 2.485909 2.327869 2.391903 0
M  V30 8 C 1.530705 1.574331 1.559910 0
M  V30 9 C 1.681711 1.180079 0.268447 0
M  V30 10 C 2.742325 1.385679 -0.672610 0
M  V30 11 N 2.830211 0.899949 -2.000138 0
M  V30 12 O 3.843293 1.956138 -0.762275 0
M  V30 13 N 0.586458 0.490187 -0.157604 0
M  V30 14 C -0.283574 0.438913 0.870793 0
M  V30 15 N 0.300607 1.101892 1.911071 0
M  V30 16 C -0.318959 1.265373 3.183016 0
M  V30 17 C -1.697281 1.829721 3.182167 0
M  V30 18 O -2.701772 0.923354 2.724514 0
M  V30 19 C -2.646397 0.032033 1.652967 0
M  V30 20 C -3.821970 -0.676983 1.449869 0
M  V30 21 C -3.880846 -1.598480 0.403604 0
M  V30 22 F -5.031304 -2.312647 0.182699 0
M  V30 23 C -2.818042 -1.840852 -0.446054 0
M  V30 24 C -2.913468 -2.800370 -1.518669 0
M  V30 25 C -3.005003 -3.620185 -2.415754 0
M  V30 26 C -3.130660 -4.612277 -3.493863 0
M  V30 27 C -4.274252 -5.512426 -3.097649 0
M  V30 28 C -1.875675 -5.450211 -3.627331 0
M  V30 29 O -3.352063 -3.989004 -4.715567 0
M  V30 30 C -1.643050 -1.145436 -0.258428 0
M  V30 31 C -1.581757 -0.224189 0.786416 0
M  V30 32 H 2.948586 0.281430 6.056821 0
M  V30 33 H 1.806006 0.076517 4.723098 0
M  V30 34 H 2.155404 1.741191 5.269661 0
M  V30 35 H 6.618091 0.099323 3.100732 0
M  V30 36 H 5.267661 1.615953 1.492826 0
M  V30 37 H 2.935808 3.100053 1.696918 0
M  V30 38 H 1.985829 2.931171 3.175761 0
M  V30 39 H 3.299208 0.032778 -2.382426 0
M  V30 40 H 2.415846 1.367331 -2.819161 0
M  V30 41 H 0.312590 1.960891 3.781177 0
M  V30 42 H -0.368678 0.287932 3.710603 0
M  V30 43 H -1.736861 2.752574 2.604147 0
M  V30 44 H -1.920730 2.126639 4.249023 0
M  V30 45 H -4.667869 -0.500176 2.107303 0
M  V30 46 H -5.236916 -5.183322 -3.536433 0
M  V30 47 H -4.028940 -6.532274 -3.458025 0
M  V30 48 H -4.377527 -5.606466 -1.994148 0
M  V30 49 H -1.012407 -4.821171 -3.949903 0
M  V30 50 H -1.656083 -6.061920 -2.736573 0
M  V30 51 H -2.054249 -6.148691 -4.468527 0
M  V30 52 H -2.492008 -3.912669 -5.187208 0
M  V30 53 H -0.763807 -1.274284 -0.877412 0
M  V30 END ATOM
M  V30 BEGIN BOND
M  V30 1 1 1 2
M  V30 2 1 2 3
M  V30 3 2 3 4
M  V30 4 1 4 5
M  V30 5 2 5 6
M  V30 6 1 6 7
M  V30 7 1 7 8
M  V30 8 2 8 9
M  V30 9 1 9 10
M  V30 10 1 10 11
M  V30 11 2 10 12
M  V30 12 1 9 13
M  V30 13 2 13 14
M  V30 14 1 14 15
M  V30 15 1 15 16
M  V30 16 1 16 17
M  V30 17 1 17 18
M  V30 18 1 18 19
M  V30 19 2 19 20
M  V30 20 1 20 21
M  V30 21 1 21 22
M  V30 22 2 21 23
M  V30 23 1 23 24
M  V30 24 3 24 25
M  V30 25 1 25 26
M  V30 26 1 26 27
M  V30 27 1 26 28
M  V30 28 1 26 29
M  V30 29 1 23 30
M  V30 30 2 30 31
M  V30 31 1 6 2
M  V30 32 1 15 8
M  V30 33 1 31 19
M  V30 34 1 31 14
M  V30 35 1 1 32
M  V30 36 1 1 33
M  V30 37 1 1 34
M  V30 38 1 4 35
M  V30 39 1 5 36
M  V30 40 1 7 37
M  V30 41 1 7 38
M  V30 42 1 11 39
M  V30 43 1 11 40
M  V30 44 1 16 41
M  V30 45 1 16 42
M  V30 46 1 17 43
M  V30 47 1 17 44
M  V30 48 1 20 45
M  V30 49 1 27 46
M  V30 50 1 27 47
M  V30 51 1 27 48
M  V30 52 1 28 49
M  V30 53 1 28 50
M  V30 54 1 28 51
M  V30 55 1 29 52
M  V30 56 1 30 53
M  V30 END BOND
M  V30 END CTAB
M  END
>  <Dataset>  (442) 
ChEMBL_Kinases

>  <Ligand_Instance>  (442) 
nan

>  <PDB_ID>  (442) 
nan

>  <Standardized_SMILES>  (442) 
Cn1nccc1Cc1c(C(N)=O)nc2n1CCOc1cc(F)c(C#CC(C)(C)O)cc1-2

>  <Name>  (442) 
nan

>  <Pocket>  (442) 
nan

>  <ATP_Site>  (442) 
nan

>  <Peripheral>  (442) 
nan

>  <Num_H_Atoms_ProtBoundConf>  (442) 
nan

>  <Num_Resolved_Atoms>  (442) 
nan

>  <Num_Not_Resolved_Atoms>  (442) 
nan

$$$$
CHEMBL3696943
     RDKit          3D

  0  0  0  0  0  0  0  0  0  0999 V3000
M  V30 BEGIN CTAB
M  V30 COUNTS 29 32 0 0 0
M  V30 BEGIN ATOM
M  V30 1 O 0.221945 -3.332884 3.578923 0
M  V30 2 C 0.044709 -2.518013 2.629586 0
M  V30 3 N 1.039881 -1.689890 2.331820 0
M  V30 4 C 0.899105 -0.803899 1.329101 0
M  V30 5 C 1.992753 0.026816 1.084520 0
M  V30 6 C 1.867903 0.945518 0.056761 0
M  V30 7 C 3.005489 1.821872 -0.210462 0
M  V30 8 N 3.147169 2.779769 -1.127809 0
M  V30 9 N 4.352418 3.311052 -0.997247 0
M  V30 10 N 4.997821 2.714395 -0.009516 0
M  V30 11 N 4.173009 1.808863 0.465629 0
M  V30 12 C 0.725992 1.071842 -0.722875 0
M  V30 13 C -0.341356 0.235922 -0.457940 0
M  V30 14 C -0.236398 -0.682706 0.558447 0
M  V30 15 C -1.275502 -1.531121 0.852410 0
M  V30 16 C -2.444658 -1.475944 0.131388 0
M  V30 17 C -3.470036 -2.340248 0.449672 0
M  V30 18 C -3.336926 -3.239524 1.461876 0
M  V30 19 C -2.146081 -3.288920 2.189183 0
M  V30 20 C -1.111530 -2.430830 1.882580 0
M  V30 21 H 1.934157 -1.729861 2.880987 0
M  V30 22 H 2.903447 -0.045208 1.676385 0
M  V30 23 H 4.480421 1.201948 1.272244 0
M  V30 24 H 0.740539 1.834833 -1.509351 0
M  V30 25 H -1.190290 0.376081 -1.085706 0
M  V30 26 H -2.654562 -0.806967 -0.684537 0
M  V30 27 H -4.417706 -2.344420 -0.083833 0
M  V30 28 H -4.137315 -3.919347 1.715696 0
M  V30 29 H -2.041499 -4.001527 2.990761 0
M  V30 END ATOM
M  V30 BEGIN BOND
M  V30 1 2 1 2
M  V30 2 1 2 3
M  V30 3 1 3 4
M  V30 4 2 4 5
M  V30 5 1 5 6
M  V30 6 1 6 7
M  V30 7 2 7 8
M  V30 8 1 8 9
M  V30 9 2 9 10
M  V30 10 1 10 11
M  V30 11 2 6 12
M  V30 12 1 12 13
M  V30 13 2 13 14
M  V30 14 1 14 15
M  V30 15 2 15 16
M  V30 16 1 16 17
M  V30 17 2 17 18
M  V30 18 1 18 19
M  V30 19 2 19 20
M  V30 20 1 20 2
M  V30 21 1 14 4
M  V30 22 1 20 15
M  V30 23 1 11 7
M  V30 24 1 3 21
M  V30 25 1 5 22
M  V30 26 1 11 23
M  V30 27 1 12 24
M  V30 28 1 13 25
M  V30 29 1 16 26
M  V30 30 1 17 27
M  V30 31 1 18 28
M  V30 32 1 19 29
M  V30 END BOND
M  V30 END CTAB
M  END
>  <Dataset>  (443) 
ChEMBL_Kinases

>  <Ligand_Instance>  (443) 
nan

>  <PDB_ID>  (443) 
nan

>  <Standardized_SMILES>  (443) 
O=c1[nH]c2cc(-c3nnn[nH]3)ccc2c2ccccc12

>  <Name>  (443) 
nan

>  <Pocket>  (443) 
nan

>  <ATP_Site>  (443) 
nan

>  <Peripheral>  (443) 
nan

>  <Num_H_Atoms_ProtBoundConf>  (443) 
nan

>  <Num_Resolved_Atoms>  (443) 
nan

>  <Num_Not_Resolved_Atoms>  (443) 
nan

$$$$
CHEMBL3696944
     RDKit          3D

  0  0  0  0  0  0  0  0  0  0999 V3000
M  V30 BEGIN CTAB
M  V30 COUNTS 26 28 0 0 0
M  V30 BEGIN ATOM
M  V30 1 O 0.014200 -5.178388 1.857702 0
M  V30 2 C -0.294578 -4.447265 0.881652 0
M  V30 3 O -0.842651 -5.021937 -0.252830 0
M  V30 4 C -0.072033 -2.995969 0.953357 0
M  V30 5 C 0.478006 -2.474078 2.109553 0
M  V30 6 C 0.690359 -1.096898 2.180391 0
M  V30 7 C 0.353890 -0.295805 1.115273 0
M  V30 8 C -0.190590 -0.837138 -0.021346 0
M  V30 9 C -0.418947 -2.214534 -0.130603 0
M  V30 10 N -0.555813 -0.142790 -1.121570 0
M  V30 11 C -0.358942 1.186352 -1.072668 0
M  V30 12 O -0.685072 1.887553 -2.081043 0
M  V30 13 C 0.183860 1.785964 0.041296 0
M  V30 14 C 0.350314 3.153878 0.004610 0
M  V30 15 C 0.900895 3.701250 1.153937 0
M  V30 16 N 1.258167 2.978951 2.243966 0
M  V30 17 C 1.094331 1.631953 2.280266 0
M  V30 18 C 0.549962 1.063383 1.152656 0
M  V30 19 H -1.293837 -5.933838 -0.248818 0
M  V30 20 H 0.723439 -3.143136 2.913545 0
M  V30 21 H 1.112225 -0.766332 3.089413 0
M  V30 22 H -0.842804 -2.697933 -0.995602 0
M  V30 23 H -0.966045 -0.582634 -1.967724 0
M  V30 24 H 0.098207 3.796223 -0.806950 0
M  V30 25 H 1.086654 4.772777 1.258353 0
M  V30 26 H 1.402759 1.133461 3.181326 0
M  V30 END ATOM
M  V30 BEGIN BOND
M  V30 1 2 1 2
M  V30 2 1 2 3
M  V30 3 1 2 4
M  V30 4 2 4 5
M  V30 5 1 5 6
M  V30 6 2 6 7
M  V30 7 1 7 8
M  V30 8 2 8 9
M  V30 9 1 8 10
M  V30 10 1 10 11
M  V30 11 2 11 12
M  V30 12 1 11 13
M  V30 13 2 13 14
M  V30 14 1 14 15
M  V30 15 2 15 16
M  V30 16 1 16 17
M  V30 17 2 17 18
M  V30 18 1 9 4
M  V30 19 1 18 13
M  V30 20 1 18 7
M  V30 21 1 3 19
M  V30 22 1 5 20
M  V30 23 1 6 21
M  V30 24 1 9 22
M  V30 25 1 10 23
M  V30 26 1 14 24
M  V30 27 1 15 25
M  V30 28 1 17 26
M  V30 END BOND
M  V30 END CTAB
M  END
>  <Dataset>  (444) 
ChEMBL_Kinases

>  <Ligand_Instance>  (444) 
nan

>  <PDB_ID>  (444) 
nan

>  <Standardized_SMILES>  (444) 
O=C(O)c1ccc2c(c1)[nH]c(=O)c1ccncc12

>  <Name>  (444) 
nan

>  <Pocket>  (444) 
nan

>  <ATP_Site>  (444) 
nan

>  <Peripheral>  (444) 
nan

>  <Num_H_Atoms_ProtBoundConf>  (444) 
nan

>  <Num_Resolved_Atoms>  (444) 
nan

>  <Num_Not_Resolved_Atoms>  (444) 
nan

$$$$
CHEMBL3696945
     RDKit          3D

  0  0  0  0  0  0  0  0  0  0999 V3000
M  V30 BEGIN CTAB
M  V30 COUNTS 29 31 0 0 0
M  V30 BEGIN ATOM
M  V30 1 C -2.785816 -5.012667 2.604436 0
M  V30 2 O -1.800736 -4.022791 2.344327 0
M  V30 3 C -1.989941 -2.990253 1.448713 0
M  V30 4 O -3.102106 -2.961289 0.855676 0
M  V30 5 C -0.950154 -1.992030 1.210218 0
M  V30 6 C 0.256224 -2.098754 1.911774 0
M  V30 7 C 1.240759 -1.137047 1.673154 0
M  V30 8 C 1.000650 -0.128302 0.769764 0
M  V30 9 C -0.195997 -0.043026 0.089790 0
M  V30 10 C -1.216290 -0.979972 0.290912 0
M  V30 11 N -0.512715 0.904855 -0.805833 0
M  V30 12 C 0.414798 1.846077 -1.057872 0
M  V30 13 O 0.183750 2.767620 -1.889168 0
M  V30 14 C 1.624910 1.796528 -0.398622 0
M  V30 15 C 2.539594 2.785185 -0.693936 0
M  V30 16 C 3.739216 2.710992 -0.021010 0
M  V30 17 N 4.044302 1.739287 0.887071 0
M  V30 18 C 3.157752 0.768338 1.183123 0
M  V30 19 C 1.954389 0.825176 0.521702 0
M  V30 20 H -2.368248 -6.044589 2.484476 0
M  V30 21 H -3.096949 -4.849773 3.664248 0
M  V30 22 H -3.670993 -4.830582 1.965291 0
M  V30 23 H 0.372127 -2.934730 2.617807 0
M  V30 24 H 2.113289 -1.282789 2.233584 0
M  V30 25 H -2.174686 -0.962736 -0.214181 0
M  V30 26 H -1.417152 0.952140 -1.306482 0
M  V30 27 H 2.388922 3.599539 -1.401089 0
M  V30 28 H 4.505866 3.462703 -0.209022 0
M  V30 29 H 3.468129 0.060490 1.889843 0
M  V30 END ATOM
M  V30 BEGIN BOND
M  V30 1 1 1 2
M  V30 2 1 2 3
M  V30 3 2 3 4
M  V30 4 1 3 5
M  V30 5 2 5 6
M  V30 6 1 6 7
M  V30 7 2 7 8
M  V30 8 1 8 9
M  V30 9 2 9 10
M  V30 10 1 9 11
M  V30 11 1 11 12
M  V30 12 2 12 13
M  V30 13 1 12 14
M  V30 14 2 14 15
M  V30 15 1 15 16
M  V30 16 2 16 17
M  V30 17 1 17 18
M  V30 18 2 18 19
M  V30 19 1 10 5
M  V30 20 1 19 14
M  V30 21 1 19 8
M  V30 22 1 1 20
M  V30 23 1 1 21
M  V30 24 1 1 22
M  V30 25 1 6 23
M  V30 26 1 7 24
M  V30 27 1 10 25
M  V30 28 1 11 26
M  V30 29 1 15 27
M  V30 30 1 16 28
M  V30 31 1 18 29
M  V30 END BOND
M  V30 END CTAB
M  END
>  <Dataset>  (445) 
ChEMBL_Kinases

>  <Ligand_Instance>  (445) 
nan

>  <PDB_ID>  (445) 
nan

>  <Standardized_SMILES>  (445) 
COC(=O)c1ccc2c(c1)[nH]c(=O)c1ccncc12

>  <Name>  (445) 
nan

>  <Pocket>  (445) 
nan

>  <ATP_Site>  (445) 
nan

>  <Peripheral>  (445) 
nan

>  <Num_H_Atoms_ProtBoundConf>  (445) 
nan

>  <Num_Resolved_Atoms>  (445) 
nan

>  <Num_Not_Resolved_Atoms>  (445) 
nan

$$$$
CHEMBL3696946
     RDKit          3D

  0  0  0  0  0  0  0  0  0  0999 V3000
M  V30 BEGIN CTAB
M  V30 COUNTS 42 44 0 0 0
M  V30 BEGIN ATOM
M  V30 1 C -1.816489 -4.144374 -1.034111 0
M  V30 2 N -0.909579 -4.101367 0.094872 0
M  V30 3 C -1.354685 -5.025121 1.086230 0
M  V30 4 C 0.451844 -4.267837 -0.299858 0
M  V30 5 C 1.001078 -3.091028 -1.109160 0
M  V30 6 N 1.008838 -1.861640 -0.431994 0
M  V30 7 C 1.024063 -0.600381 0.235143 0
M  V30 8 N 1.290101 0.586304 -0.370540 0
M  V30 9 C 1.265626 1.773632 0.225937 0
M  V30 10 C 1.560430 2.884382 -0.533904 0
M  V30 11 C 1.526508 4.102708 0.111931 0
M  V30 12 C 1.828410 5.322804 -0.627443 0
M  V30 13 O 1.814243 6.480502 -0.093379 0
M  V30 14 O 2.149843 5.258056 -1.975531 0
M  V30 15 C 1.205300 4.149887 1.460808 0
M  V30 16 C 0.921333 2.953699 2.140542 0
M  V30 17 C 0.940845 1.731680 1.553371 0
M  V30 18 C 0.655559 0.594466 2.263547 0
M  V30 19 C 0.354857 0.709451 3.599752 0
M  V30 20 C 0.078946 -0.401792 4.332196 0
M  V30 21 C 0.107502 -1.650205 3.704748 0
M  V30 22 C 0.416908 -1.668209 2.369036 0
M  V30 23 C 0.700597 -0.600754 1.580243 0
M  V30 24 H -1.779595 -3.180963 -1.620928 0
M  V30 25 H -2.864570 -4.195824 -0.615885 0
M  V30 26 H -1.658963 -5.021854 -1.690583 0
M  V30 27 H -1.227683 -6.085617 0.757301 0
M  V30 28 H -2.424197 -4.824040 1.304054 0
M  V30 29 H -0.811690 -4.949245 2.048013 0
M  V30 30 H 1.099786 -4.459844 0.560625 0
M  V30 31 H 0.515511 -5.179334 -0.944870 0
M  V30 32 H 2.035658 -3.469909 -1.414729 0
M  V30 33 H 0.435086 -3.062802 -2.089351 0
M  V30 34 H 1.352523 -1.495787 -1.359644 0
M  V30 35 H 1.803456 2.774185 -1.585206 0
M  V30 36 H 2.797479 5.912712 -2.407032 0
M  V30 37 H 1.199526 5.140340 1.895506 0
M  V30 38 H 0.698040 3.162539 3.149695 0
M  V30 39 H 0.302291 1.606247 4.190173 0
M  V30 40 H -0.170173 -0.408238 5.396228 0
M  V30 41 H -0.105560 -2.553842 4.253133 0
M  V30 42 H 0.445892 -2.636134 1.922775 0
M  V30 END ATOM
M  V30 BEGIN BOND
M  V30 1 1 1 2
M  V30 2 1 2 3
M  V30 3 1 2 4
M  V30 4 1 4 5
M  V30 5 1 5 6
M  V30 6 1 6 7
M  V30 7 2 7 8
M  V30 8 1 8 9
M  V30 9 2 9 10
M  V30 10 1 10 11
M  V30 11 1 11 12
M  V30 12 2 12 13
M  V30 13 1 12 14
M  V30 14 2 11 15
M  V30 15 1 15 16
M  V30 16 2 16 17
M  V30 17 1 17 18
M  V30 18 2 18 19
M  V30 19 1 19 20
M  V30 20 2 20 21
M  V30 21 1 21 22
M  V30 22 2 22 23
M  V30 23 1 23 7
M  V30 24 1 17 9
M  V30 25 1 23 18
M  V30 26 1 1 24
M  V30 27 1 1 25
M  V30 28 1 1 26
M  V30 29 1 3 27
M  V30 30 1 3 28
M  V30 31 1 3 29
M  V30 32 1 4 30
M  V30 33 1 4 31
M  V30 34 1 5 32
M  V30 35 1 5 33
M  V30 36 1 6 34
M  V30 37 1 10 35
M  V30 38 1 14 36
M  V30 39 1 15 37
M  V30 40 1 16 38
M  V30 41 1 19 39
M  V30 42 1 20 40
M  V30 43 1 21 41
M  V30 44 1 22 42
M  V30 END BOND
M  V30 END CTAB
M  END
>  <Dataset>  (446) 
ChEMBL_Kinases

>  <Ligand_Instance>  (446) 
nan

>  <PDB_ID>  (446) 
nan

>  <Standardized_SMILES>  (446) 
CN(C)CCNc1nc2cc(C(=O)O)ccc2c2ccccc12

>  <Name>  (446) 
nan

>  <Pocket>  (446) 
nan

>  <ATP_Site>  (446) 
nan

>  <Peripheral>  (446) 
nan

>  <Num_H_Atoms_ProtBoundConf>  (446) 
nan

>  <Num_Resolved_Atoms>  (446) 
nan

>  <Num_Not_Resolved_Atoms>  (446) 
nan

$$$$
CHEMBL3698699
     RDKit          3D

  0  0  0  0  0  0  0  0  0  0999 V3000
M  V30 BEGIN CTAB
M  V30 COUNTS 63 68 0 0 0
M  V30 BEGIN ATOM
M  V30 1 C 3.269350 -5.163607 -1.852854 0
M  V30 2 N 2.064944 -4.306562 -1.779789 0
M  V30 3 C 2.205089 -3.279813 -0.813847 0
M  V30 4 C 1.305984 -2.283116 -0.536108 0
M  V30 5 C 1.433437 -1.303805 0.416040 0
M  V30 6 C 2.569617 -1.299917 1.182331 0
M  V30 7 N 2.844790 -0.353712 2.204481 0
M  V30 8 C 2.048559 0.745380 2.638923 0
M  V30 9 N 2.460611 1.526354 3.618874 0
M  V30 10 C 1.766940 2.565359 4.068851 0
M  V30 11 C 0.544855 2.906418 3.533014 0
M  V30 12 C -0.406344 3.894556 3.760271 0
M  V30 13 C -0.422142 4.929857 4.672996 0
M  V30 14 C -1.522699 5.774111 4.669303 0
M  V30 15 N -2.511025 5.558119 3.796928 0
M  V30 16 C -2.476621 4.527512 2.901152 0
M  V30 17 C -1.422899 3.649431 2.842479 0
M  V30 18 N -1.111435 2.578562 2.101411 0
M  V30 19 C -1.928107 2.025924 1.044559 0
M  V30 20 C -3.259353 1.590211 1.552051 0
M  V30 21 C -4.262054 1.985725 0.504507 0
M  V30 22 C -3.459834 2.574037 -0.647575 0
M  V30 23 C -2.134200 2.986475 -0.093078 0
M  V30 24 C 0.102590 2.119563 2.527064 0
M  V30 25 N 0.873088 1.094609 2.142379 0
M  V30 26 N 3.475803 -2.256276 0.944508 0
M  V30 27 C 3.307601 -3.190421 0.005320 0
M  V30 28 C 1.108637 -4.780718 -2.705656 0
M  V30 29 C 0.745151 -6.235752 -2.471497 0
M  V30 30 C -0.441489 -6.448974 -1.596014 0
M  V30 31 C -1.599458 -5.540072 -1.959155 0
M  V30 32 N -1.168137 -4.181280 -1.968977 0
M  V30 33 C -0.129175 -4.008890 -2.953601 0
M  V30 34 H 3.196761 -5.864479 -2.690053 0
M  V30 35 H 4.171793 -4.500331 -1.951060 0
M  V30 36 H 3.409546 -5.744739 -0.924879 0
M  V30 37 H 0.392749 -2.210960 -1.099296 0
M  V30 38 H 0.678600 -0.568063 0.560510 0
M  V30 39 H 3.761654 -0.468199 2.721627 0
M  V30 40 H 2.172857 3.163457 4.881344 0
M  V30 41 H 0.414256 5.063646 5.367383 0
M  V30 42 H -1.507146 6.575642 5.395120 0
M  V30 43 H -3.303645 4.414698 2.231602 0
M  V30 44 H -1.423886 1.129268 0.605283 0
M  V30 45 H -3.278009 0.471224 1.706440 0
M  V30 46 H -3.513578 1.989275 2.564316 0
M  V30 47 H -4.821187 1.075825 0.178437 0
M  V30 48 H -4.966375 2.714887 0.912501 0
M  V30 49 H -4.023952 3.384998 -1.145283 0
M  V30 50 H -3.285125 1.718524 -1.349057 0
M  V30 51 H -2.085062 4.051982 0.192542 0
M  V30 52 H -1.353651 2.838330 -0.869013 0
M  V30 53 H 4.137030 -3.894904 -0.053934 0
M  V30 54 H 1.649841 -4.791110 -3.723921 0
M  V30 55 H 1.557203 -6.857649 -2.099589 0
M  V30 56 H 0.470521 -6.652660 -3.484733 0
M  V30 57 H -0.780367 -7.498046 -1.765551 0
M  V30 58 H -0.248078 -6.329475 -0.521091 0
M  V30 59 H -2.107356 -5.898378 -2.860227 0
M  V30 60 H -2.325858 -5.628062 -1.099876 0
M  V30 61 H -1.970987 -3.584881 -2.236680 0
M  V30 62 H -0.578824 -4.475606 -3.900072 0
M  V30 63 H 0.032741 -2.956069 -3.271788 0
M  V30 END ATOM
M  V30 BEGIN BOND
M  V30 1 1 1 2
M  V30 2 1 2 3
M  V30 3 2 3 4
M  V30 4 1 4 5
M  V30 5 2 5 6
M  V30 6 1 6 7
M  V30 7 1 7 8
M  V30 8 2 8 9
M  V30 9 1 9 10
M  V30 10 2 10 11
M  V30 11 1 11 12
M  V30 12 2 12 13
M  V30 13 1 13 14
M  V30 14 2 14 15
M  V30 15 1 15 16
M  V30 16 2 16 17
M  V30 17 1 17 18
M  V30 18 1 18 19
M  V30 19 1 19 20
M  V30 20 1 20 21
M  V30 21 1 21 22
M  V30 22 1 22 23
M  V30 23 1 18 24
M  V30 24 2 24 25
M  V30 25 1 6 26
M  V30 26 2 26 27
M  V30 27 1 2 28
M  V30 28 1 28 29
M  V30 29 1 29 30
M  V30 30 1 30 31
M  V30 31 1 31 32
M  V30 32 1 32 33
M  V30 33 1 27 3
M  V30 34 1 33 28
M  V30 35 1 25 8
M  V30 36 1 24 11
M  V30 37 1 17 12
M  V30 38 1 23 19
M  V30 39 1 1 34
M  V30 40 1 1 35
M  V30 41 1 1 36
M  V30 42 1 4 37
M  V30 43 1 5 38
M  V30 44 1 7 39
M  V30 45 1 10 40
M  V30 46 1 13 41
M  V30 47 1 14 42
M  V30 48 1 16 43
M  V30 49 1 19 44
M  V30 50 1 20 45
M  V30 51 1 20 46
M  V30 52 1 21 47
M  V30 53 1 21 48
M  V30 54 1 22 49
M  V30 55 1 22 50
M  V30 56 1 23 51
M  V30 57 1 23 52
M  V30 58 1 27 53
M  V30 59 1 28 54
M  V30 60 1 29 55
M  V30 61 1 29 56
M  V30 62 1 30 57
M  V30 63 1 30 58
M  V30 64 1 31 59
M  V30 65 1 31 60
M  V30 66 1 32 61
M  V30 67 1 33 62
M  V30 68 1 33 63
M  V30 END BOND
M  V30 END CTAB
M  END
>  <Dataset>  (447) 
ChEMBL_Kinases

>  <Ligand_Instance>  (447) 
nan

>  <PDB_ID>  (447) 
nan

>  <Standardized_SMILES>  (447) 
CN(c1ccc(Nc2ncc3c4ccncc4n(C4CCCC4)c3n2)nc1)C1CCCNC1

>  <Name>  (447) 
nan

>  <Pocket>  (447) 
nan

>  <ATP_Site>  (447) 
nan

>  <Peripheral>  (447) 
nan

>  <Num_H_Atoms_ProtBoundConf>  (447) 
nan

>  <Num_Resolved_Atoms>  (447) 
nan

>  <Num_Not_Resolved_Atoms>  (447) 
nan

$$$$
CHEMBL3698648
     RDKit          3D

  0  0  0  0  0  0  0  0  0  0999 V3000
M  V30 BEGIN CTAB
M  V30 COUNTS 66 71 0 0 0
M  V30 BEGIN ATOM
M  V30 1 C 4.987184 0.140013 1.707275 0
M  V30 2 N 3.900366 0.661534 2.504735 0
M  V30 3 C 3.847157 -0.136716 3.726753 0
M  V30 4 C 4.209415 2.054526 2.837566 0
M  V30 5 C 3.102086 2.654932 3.676740 0
M  V30 6 C 1.773820 2.568897 2.921628 0
M  V30 7 N 1.996760 2.809352 1.505438 0
M  V30 8 C 1.129639 2.285579 0.509290 0
M  V30 9 C 0.037424 1.556575 0.922884 0
M  V30 10 C -0.832082 1.027207 -0.040666 0
M  V30 11 C -0.522283 1.282206 -1.382348 0
M  V30 12 N -1.397039 0.749289 -2.392669 0
M  V30 13 C -2.511494 0.001987 -1.922912 0
M  V30 14 N -3.746912 0.512168 -1.638452 0
M  V30 15 C -4.728538 -0.321225 -1.192215 0
M  V30 16 C -4.460350 -1.664845 -1.034836 0
M  V30 17 C -5.238674 -2.723225 -0.610333 0
M  V30 18 C -6.559308 -2.745128 -0.205501 0
M  V30 19 C -7.114829 -3.961388 0.179270 0
M  V30 20 N -6.326319 -5.054658 0.134160 0
M  V30 21 C -5.041257 -5.029028 -0.260511 0
M  V30 22 C -4.415362 -3.842905 -0.661279 0
M  V30 23 N -3.192277 -3.476207 -1.097910 0
M  V30 24 C -2.098860 -4.400846 -1.265066 0
M  V30 25 C -1.055382 -3.940533 -2.220929 0
M  V30 26 C 0.176926 -3.604680 -1.439305 0
M  V30 27 C -0.304198 -3.536014 -0.012365 0
M  V30 28 C -1.372226 -4.608581 0.046308 0
M  V30 29 C -3.202795 -2.143587 -1.331674 0
M  V30 30 N -2.267366 -1.289185 -1.767599 0
M  V30 31 N 0.560543 2.003026 -1.741473 0
M  V30 32 C 1.397536 2.512925 -0.822069 0
M  V30 33 C 3.169315 3.618867 1.263676 0
M  V30 34 C 4.388683 2.774910 1.532460 0
M  V30 35 H 5.929553 0.704948 1.861485 0
M  V30 36 H 4.712246 0.061825 0.615481 0
M  V30 37 H 5.222690 -0.925604 1.991385 0
M  V30 38 H 2.907181 0.012327 4.288266 0
M  V30 39 H 4.760969 0.150279 4.315705 0
M  V30 40 H 3.981259 -1.210148 3.495369 0
M  V30 41 H 5.129101 2.042911 3.436536 0
M  V30 42 H 2.993606 2.031878 4.586935 0
M  V30 43 H 3.363162 3.692789 3.912875 0
M  V30 44 H 1.057939 3.258772 3.371824 0
M  V30 45 H 1.487409 1.484356 3.008470 0
M  V30 46 H -0.235718 1.338985 1.937632 0
M  V30 47 H -1.699737 0.449373 0.259480 0
M  V30 48 H -1.183055 0.927985 -3.389018 0
M  V30 49 H -5.693635 0.113012 -0.976307 0
M  V30 50 H -7.167123 -1.855651 -0.179069 0
M  V30 51 H -8.134858 -4.046736 0.504033 0
M  V30 52 H -4.424614 -5.938332 -0.286249 0
M  V30 53 H -2.518748 -5.410555 -1.539919 0
M  V30 54 H -1.362912 -3.159724 -2.933478 0
M  V30 55 H -0.788973 -4.824949 -2.871196 0
M  V30 56 H 0.947922 -4.429039 -1.471960 0
M  V30 57 H 0.662515 -2.644016 -1.761495 0
M  V30 58 H -0.757835 -2.569880 0.211419 0
M  V30 59 H 0.520003 -3.742722 0.704608 0
M  V30 60 H -0.905741 -5.621745 0.063023 0
M  V30 61 H -2.040898 -4.435970 0.930165 0
M  V30 62 H 2.245285 3.079897 -1.179238 0
M  V30 63 H 3.213482 4.465521 2.010957 0
M  V30 64 H 3.196116 4.118747 0.289453 0
M  V30 65 H 5.255463 3.475613 1.609617 0
M  V30 66 H 4.595425 2.096307 0.672376 0
M  V30 END ATOM
M  V30 BEGIN BOND
M  V30 1 1 1 2
M  V30 2 1 2 3
M  V30 3 1 2 4
M  V30 4 1 4 5
M  V30 5 1 5 6
M  V30 6 1 6 7
M  V30 7 1 7 8
M  V30 8 2 8 9
M  V30 9 1 9 10
M  V30 10 2 10 11
M  V30 11 1 11 12
M  V30 12 1 12 13
M  V30 13 2 13 14
M  V30 14 1 14 15
M  V30 15 2 15 16
M  V30 16 1 16 17
M  V30 17 2 17 18
M  V30 18 1 18 19
M  V30 19 2 19 20
M  V30 20 1 20 21
M  V30 21 2 21 22
M  V30 22 1 22 23
M  V30 23 1 23 24
M  V30 24 1 24 25
M  V30 25 1 25 26
M  V30 26 1 26 27
M  V30 27 1 27 28
M  V30 28 1 23 29
M  V30 29 2 29 30
M  V30 30 1 11 31
M  V30 31 2 31 32
M  V30 32 1 7 33
M  V30 33 1 33 34
M  V30 34 1 34 4
M  V30 35 1 32 8
M  V30 36 1 30 13
M  V30 37 1 29 16
M  V30 38 1 22 17
M  V30 39 1 28 24
M  V30 40 1 1 35
M  V30 41 1 1 36
M  V30 42 1 1 37
M  V30 43 1 3 38
M  V30 44 1 3 39
M  V30 45 1 3 40
M  V30 46 1 4 41
M  V30 47 1 5 42
M  V30 48 1 5 43
M  V30 49 1 6 44
M  V30 50 1 6 45
M  V30 51 1 9 46
M  V30 52 1 10 47
M  V30 53 1 12 48
M  V30 54 1 15 49
M  V30 55 1 18 50
M  V30 56 1 19 51
M  V30 57 1 21 52
M  V30 58 1 24 53
M  V30 59 1 25 54
M  V30 60 1 25 55
M  V30 61 1 26 56
M  V30 62 1 26 57
M  V30 63 1 27 58
M  V30 64 1 27 59
M  V30 65 1 28 60
M  V30 66 1 28 61
M  V30 67 1 32 62
M  V30 68 1 33 63
M  V30 69 1 33 64
M  V30 70 1 34 65
M  V30 71 1 34 66
M  V30 END BOND
M  V30 END CTAB
M  END
>  <Dataset>  (448) 
ChEMBL_Kinases

>  <Ligand_Instance>  (448) 
nan

>  <PDB_ID>  (448) 
nan

>  <Standardized_SMILES>  (448) 
CN(C)C1CCN(c2ccc(Nc3ncc4c5ccncc5n(C5CCCC5)c4n3)nc2)CC1

>  <Name>  (448) 
nan

>  <Pocket>  (448) 
nan

>  <ATP_Site>  (448) 
nan

>  <Peripheral>  (448) 
nan

>  <Num_H_Atoms_ProtBoundConf>  (448) 
nan

>  <Num_Resolved_Atoms>  (448) 
nan

>  <Num_Not_Resolved_Atoms>  (448) 
nan

$$$$
CHEMBL3698688
     RDKit          3D

  0  0  0  0  0  0  0  0  0  0999 V3000
M  V30 BEGIN CTAB
M  V30 COUNTS 66 71 0 0 0
M  V30 BEGIN ATOM
M  V30 1 C 5.565524 -0.387861 3.471377 0
M  V30 2 N 5.518869 0.985995 3.008987 0
M  V30 3 C 4.328338 1.665247 3.423831 0
M  V30 4 C 5.777586 1.061856 1.577768 0
M  V30 5 C 5.758399 2.465672 1.096389 0
M  V30 6 C 4.481916 2.942659 0.505780 0
M  V30 7 N 3.590921 1.871299 0.087881 0
M  V30 8 C 2.191573 1.941421 0.178570 0
M  V30 9 C 1.402455 0.804643 0.057170 0
M  V30 10 C 0.010617 0.815495 0.146638 0
M  V30 11 C -0.654256 2.003631 0.367084 0
M  V30 12 N -2.067139 2.116791 0.504173 0
M  V30 13 C -2.836046 0.927228 0.598729 0
M  V30 14 N -3.632763 1.022649 1.688656 0
M  V30 15 C -4.483283 0.019859 2.058587 0
M  V30 16 C -4.519389 -1.119781 1.286509 0
M  V30 17 C -5.223264 -2.294702 1.363706 0
M  V30 18 C -6.165871 -2.710728 2.293093 0
M  V30 19 C -6.698319 -3.966940 2.103479 0
M  V30 20 N -6.316896 -4.737791 1.069314 0
M  V30 21 C -5.403326 -4.328386 0.172243 0
M  V30 22 C -4.813904 -3.082241 0.281762 0
M  V30 23 N -3.885318 -2.401111 -0.433550 0
M  V30 24 C -3.240155 -2.897676 -1.625654 0
M  V30 25 C -4.172953 -3.156081 -2.754168 0
M  V30 26 C -3.462197 -4.222818 -3.554540 0
M  V30 27 C -2.339030 -4.761813 -2.731574 0
M  V30 28 C -2.383322 -4.086837 -1.398987 0
M  V30 29 C -3.705991 -1.212060 0.175812 0
M  V30 30 N -2.902125 -0.201410 -0.129308 0
M  V30 31 C 0.165223 3.109098 0.480406 0
M  V30 32 N 1.532261 3.094976 0.392503 0
M  V30 33 C 4.370064 0.785524 -0.405641 0
M  V30 34 C 4.966216 0.090515 0.795822 0
M  V30 35 H 6.096087 -0.409051 4.450958 0
M  V30 36 H 6.003929 -1.063541 2.708927 0
M  V30 37 H 4.521303 -0.705540 3.670837 0
M  V30 38 H 4.556099 2.746981 3.544931 0
M  V30 39 H 4.119450 1.291287 4.471395 0
M  V30 40 H 3.432033 1.440054 2.839104 0
M  V30 41 H 6.855723 0.698610 1.495628 0
M  V30 42 H 6.575247 2.611780 0.325729 0
M  V30 43 H 5.995533 3.158061 1.945539 0
M  V30 44 H 4.694847 3.667960 -0.306515 0
M  V30 45 H 3.886899 3.546939 1.253642 0
M  V30 46 H 1.900539 -0.124402 -0.114477 0
M  V30 47 H -0.546180 -0.089535 0.045235 0
M  V30 48 H -2.478910 3.066795 0.528592 0
M  V30 49 H -5.134480 0.091859 2.944212 0
M  V30 50 H -6.419977 -2.025398 3.102762 0
M  V30 51 H -7.441164 -4.309493 2.828128 0
M  V30 52 H -5.138929 -4.990191 -0.626876 0
M  V30 53 H -2.558829 -2.069626 -1.993364 0
M  V30 54 H -4.329780 -2.258270 -3.402781 0
M  V30 55 H -5.174878 -3.523244 -2.489656 0
M  V30 56 H -4.158899 -5.033054 -3.871505 0
M  V30 57 H -2.982310 -3.726118 -4.446399 0
M  V30 58 H -1.327025 -4.619040 -3.193043 0
M  V30 59 H -2.448859 -5.852986 -2.620175 0
M  V30 60 H -2.708031 -4.758085 -0.580785 0
M  V30 61 H -1.359374 -3.744004 -1.085832 0
M  V30 62 H -0.295347 4.077560 0.653830 0
M  V30 63 H 5.195292 1.150453 -1.050271 0
M  V30 64 H 3.798638 0.081612 -1.048556 0
M  V30 65 H 4.087386 -0.303864 1.373938 0
M  V30 66 H 5.586332 -0.755133 0.411235 0
M  V30 END ATOM
M  V30 BEGIN BOND
M  V30 1 1 1 2
M  V30 2 1 2 3
M  V30 3 1 2 4
M  V30 4 1 4 5
M  V30 5 1 5 6
M  V30 6 1 6 7
M  V30 7 1 7 8
M  V30 8 2 8 9
M  V30 9 1 9 10
M  V30 10 2 10 11
M  V30 11 1 11 12
M  V30 12 1 12 13
M  V30 13 2 13 14
M  V30 14 1 14 15
M  V30 15 2 15 16
M  V30 16 1 16 17
M  V30 17 2 17 18
M  V30 18 1 18 19
M  V30 19 2 19 20
M  V30 20 1 20 21
M  V30 21 2 21 22
M  V30 22 1 22 23
M  V30 23 1 23 24
M  V30 24 1 24 25
M  V30 25 1 25 26
M  V30 26 1 26 27
M  V30 27 1 27 28
M  V30 28 1 23 29
M  V30 29 2 29 30
M  V30 30 1 11 31
M  V30 31 2 31 32
M  V30 32 1 7 33
M  V30 33 1 33 34
M  V30 34 1 34 4
M  V30 35 1 32 8
M  V30 36 1 30 13
M  V30 37 1 29 16
M  V30 38 1 22 17
M  V30 39 1 28 24
M  V30 40 1 1 35
M  V30 41 1 1 36
M  V30 42 1 1 37
M  V30 43 1 3 38
M  V30 44 1 3 39
M  V30 45 1 3 40
M  V30 46 1 4 41
M  V30 47 1 5 42
M  V30 48 1 5 43
M  V30 49 1 6 44
M  V30 50 1 6 45
M  V30 51 1 9 46
M  V30 52 1 10 47
M  V30 53 1 12 48
M  V30 54 1 15 49
M  V30 55 1 18 50
M  V30 56 1 19 51
M  V30 57 1 21 52
M  V30 58 1 24 53
M  V30 59 1 25 54
M  V30 60 1 25 55
M  V30 61 1 26 56
M  V30 62 1 26 57
M  V30 63 1 27 58
M  V30 64 1 27 59
M  V30 65 1 28 60
M  V30 66 1 28 61
M  V30 67 1 31 62
M  V30 68 1 33 63
M  V30 69 1 33 64
M  V30 70 1 34 65
M  V30 71 1 34 66
M  V30 END BOND
M  V30 END CTAB
M  END
>  <Dataset>  (449) 
ChEMBL_Kinases

>  <Ligand_Instance>  (449) 
nan

>  <PDB_ID>  (449) 
nan

>  <Standardized_SMILES>  (449) 
CN(C)C1CCN(c2ccc(Nc3ncc4c5ccncc5n(C5CCCC5)c4n3)cn2)CC1

>  <Name>  (449) 
nan

>  <Pocket>  (449) 
nan

>  <ATP_Site>  (449) 
nan

>  <Peripheral>  (449) 
nan

>  <Num_H_Atoms_ProtBoundConf>  (449) 
nan

>  <Num_Resolved_Atoms>  (449) 
nan

>  <Num_Not_Resolved_Atoms>  (449) 
nan

$$$$
CHEMBL3698689
     RDKit          3D

  0  0  0  0  0  0  0  0  0  0999 V3000
M  V30 BEGIN CTAB
M  V30 COUNTS 57 62 0 0 0
M  V30 BEGIN ATOM
M  V30 1 F 6.335124 -2.704500 1.777361 0
M  V30 2 C 5.386068 -3.557376 1.347572 0
M  V30 3 C 5.415236 -4.947539 1.493876 0
M  V30 4 N 4.417044 -5.723289 1.031500 0
M  V30 5 C 3.339401 -5.251976 0.408811 0
M  V30 6 C 3.252602 -3.884013 0.233402 0
M  V30 7 C 4.254484 -3.081055 0.695447 0
M  V30 8 C 3.886540 -1.800218 0.377331 0
M  V30 9 C 4.461718 -0.562462 0.572738 0
M  V30 10 N 3.849565 0.553499 0.140362 0
M  V30 11 C 2.668863 0.540425 -0.494751 0
M  V30 12 N 1.791456 1.518140 -1.044742 0
M  V30 13 C 0.539225 1.711194 -0.391583 0
M  V30 14 C 0.223855 0.964201 0.747874 0
M  V30 15 C -1.011793 1.118931 1.387538 0
M  V30 16 C -1.919143 2.024956 0.874120 0
M  V30 17 N -3.162543 2.188869 1.495594 0
M  V30 18 C -3.611135 1.577534 2.721812 0
M  V30 19 C -4.632512 0.488888 2.440006 0
M  V30 20 N -5.252064 0.777993 1.173528 0
M  V30 21 C -5.553616 2.205550 1.106163 0
M  V30 22 C -4.263015 3.011445 1.005733 0
M  V30 23 C -1.564551 2.736713 -0.246700 0
M  V30 24 N -0.374428 2.581739 -0.855435 0
M  V30 25 N 2.132409 -0.678822 -0.670824 0
M  V30 26 C 2.660913 -1.830679 -0.279158 0
M  V30 27 N 2.302889 -3.132625 -0.347122 0
M  V30 28 C 1.048838 -3.511685 -0.955401 0
M  V30 29 C -0.088651 -3.027090 -0.075591 0
M  V30 30 C -1.196268 -2.639824 -1.021859 0
M  V30 31 C -0.451548 -2.124622 -2.229163 0
M  V30 32 C 0.770478 -2.966218 -2.293284 0
M  V30 33 H 6.272265 -5.359482 1.992734 0
M  V30 34 H 2.524555 -5.849903 0.027963 0
M  V30 35 H 5.410123 -0.425637 1.070376 0
M  V30 36 H 2.000868 2.098057 -1.883603 0
M  V30 37 H 0.938503 0.246746 1.157964 0
M  V30 38 H -1.172388 0.503440 2.258623 0
M  V30 39 H -4.115381 2.293756 3.417235 0
M  V30 40 H -2.776411 1.132641 3.303973 0
M  V30 41 H -5.381345 0.445225 3.269355 0
M  V30 42 H -4.126347 -0.502335 2.432216 0
M  V30 43 H -6.128908 0.240460 0.991899 0
M  V30 44 H -6.109264 2.519370 1.989699 0
M  V30 45 H -6.184239 2.370969 0.215794 0
M  V30 46 H -4.347078 3.880175 1.692116 0
M  V30 47 H -4.132964 3.326403 -0.046610 0
M  V30 48 H -2.218877 3.464054 -0.706748 0
M  V30 49 H 1.012991 -4.621397 -0.914912 0
M  V30 50 H -0.451226 -3.786243 0.620890 0
M  V30 51 H 0.268301 -2.109527 0.410769 0
M  V30 52 H -1.852202 -3.496843 -1.261965 0
M  V30 53 H -1.806061 -1.838939 -0.543307 0
M  V30 54 H -1.116758 -2.251809 -3.113050 0
M  V30 55 H -0.249514 -1.044177 -2.046515 0
M  V30 56 H 0.519873 -3.839830 -2.968895 0
M  V30 57 H 1.628056 -2.485012 -2.800067 0
M  V30 END ATOM
M  V30 BEGIN BOND
M  V30 1 1 1 2
M  V30 2 2 2 3
M  V30 3 1 3 4
M  V30 4 2 4 5
M  V30 5 1 5 6
M  V30 6 2 6 7
M  V30 7 1 7 8
M  V30 8 2 8 9
M  V30 9 1 9 10
M  V30 10 2 10 11
M  V30 11 1 11 12
M  V30 12 1 12 13
M  V30 13 2 13 14
M  V30 14 1 14 15
M  V30 15 2 15 16
M  V30 16 1 16 17
M  V30 17 1 17 18
M  V30 18 1 18 19
M  V30 19 1 19 20
M  V30 20 1 20 21
M  V30 21 1 21 22
M  V30 22 1 16 23
M  V30 23 2 23 24
M  V30 24 1 11 25
M  V30 25 2 25 26
M  V30 26 1 26 27
M  V30 27 1 27 28
M  V30 28 1 28 29
M  V30 29 1 29 30
M  V30 30 1 30 31
M  V30 31 1 31 32
M  V30 32 1 7 2
M  V30 33 1 26 8
M  V30 34 1 32 28
M  V30 35 1 27 6
M  V30 36 1 24 13
M  V30 37 1 22 17
M  V30 38 1 3 33
M  V30 39 1 5 34
M  V30 40 1 9 35
M  V30 41 1 12 36
M  V30 42 1 14 37
M  V30 43 1 15 38
M  V30 44 1 18 39
M  V30 45 1 18 40
M  V30 46 1 19 41
M  V30 47 1 19 42
M  V30 48 1 20 43
M  V30 49 1 21 44
M  V30 50 1 21 45
M  V30 51 1 22 46
M  V30 52 1 22 47
M  V30 53 1 23 48
M  V30 54 1 28 49
M  V30 55 1 29 50
M  V30 56 1 29 51
M  V30 57 1 30 52
M  V30 58 1 30 53
M  V30 59 1 31 54
M  V30 60 1 31 55
M  V30 61 1 32 56
M  V30 62 1 32 57
M  V30 END BOND
M  V30 END CTAB
M  END
>  <Dataset>  (450) 
ChEMBL_Kinases

>  <Ligand_Instance>  (450) 
nan

>  <PDB_ID>  (450) 
nan

>  <Standardized_SMILES>  (450) 
Fc1cncc2c1c1cnc(Nc3ccc(N4CCNCC4)cn3)nc1n2C1CCCC1

>  <Name>  (450) 
nan

>  <Pocket>  (450) 
nan

>  <ATP_Site>  (450) 
nan

>  <Peripheral>  (450) 
nan

>  <Num_H_Atoms_ProtBoundConf>  (450) 
nan

>  <Num_Resolved_Atoms>  (450) 
nan

>  <Num_Not_Resolved_Atoms>  (450) 
nan

$$$$
CHEMBL3698690
     RDKit          3D

  0  0  0  0  0  0  0  0  0  0999 V3000
M  V30 BEGIN CTAB
M  V30 COUNTS 56 61 0 0 0
M  V30 BEGIN ATOM
M  V30 1 C 5.047983 -5.255545 1.226069 0
M  V30 2 N 4.189486 -6.030880 0.547941 0
M  V30 3 C 3.191466 -5.544798 -0.209731 0
M  V30 4 C 3.021270 -4.182052 -0.310517 0
M  V30 5 C 3.897548 -3.374414 0.382075 0
M  V30 6 N 4.897256 -3.908766 1.139907 0
M  V30 7 C 3.471709 -2.109818 0.083035 0
M  V30 8 C 3.997190 -0.887897 0.514762 0
M  V30 9 N 3.419107 0.253227 0.095696 0
M  V30 10 C 2.354059 0.223309 -0.724155 0
M  V30 11 N 1.681282 1.382933 -1.217259 0
M  V30 12 C 0.621109 1.881303 -0.375635 0
M  V30 13 C 0.316907 1.252542 0.812078 0
M  V30 14 C -0.703140 1.726850 1.632909 0
M  V30 15 C -1.436013 2.834962 1.283234 0
M  V30 16 N -2.477728 3.350448 2.094531 0
M  V30 17 C -2.822338 2.828756 3.403289 0
M  V30 18 C -4.172607 2.137721 3.178580 0
M  V30 19 N -5.134643 3.096682 2.705020 0
M  V30 20 C -4.734387 3.847538 1.552099 0
M  V30 21 C -3.341919 4.455444 1.738092 0
M  V30 22 C -1.082190 3.414066 0.087856 0
M  V30 23 N -0.098961 2.962340 -0.710001 0
M  V30 24 N 1.879968 -0.953323 -1.115385 0
M  V30 25 C 2.376310 -2.141092 -0.760337 0
M  V30 26 N 2.113267 -3.463818 -0.992732 0
M  V30 27 C 1.041330 -3.777513 -1.823545 0
M  V30 28 C 0.561453 -5.092295 -2.121303 0
M  V30 29 C -0.262827 -5.511552 -0.927705 0
M  V30 30 C -1.093792 -4.231462 -0.749829 0
M  V30 31 C -0.246663 -3.102170 -1.309261 0
M  V30 32 H 5.859892 -5.652340 1.842327 0
M  V30 33 H 2.524511 -6.208286 -0.737529 0
M  V30 34 H 4.849261 -0.892482 1.170175 0
M  V30 35 H 1.878623 1.887535 -2.101346 0
M  V30 36 H 0.878287 0.365488 1.126235 0
M  V30 37 H -0.879587 1.183338 2.538621 0
M  V30 38 H -2.116664 2.116868 3.821682 0
M  V30 39 H -3.032547 3.663569 4.120322 0
M  V30 40 H -4.556330 1.720165 4.123747 0
M  V30 41 H -4.000690 1.346118 2.423085 0
M  V30 42 H -6.047622 2.652340 2.551805 0
M  V30 43 H -5.419347 4.731881 1.503498 0
M  V30 44 H -4.850384 3.320006 0.598156 0
M  V30 45 H -3.073162 5.003626 0.846033 0
M  V30 46 H -3.438747 5.162949 2.590632 0
M  V30 47 H -1.578004 4.289376 -0.302444 0
M  V30 48 H 1.223390 -3.259525 -2.817809 0
M  V30 49 H -0.273448 -4.939990 -2.893980 0
M  V30 50 H 1.148228 -5.848641 -2.614534 0
M  V30 51 H 0.281523 -5.618720 0.009958 0
M  V30 52 H -0.936364 -6.370128 -1.133845 0
M  V30 53 H -1.358210 -4.067239 0.315210 0
M  V30 54 H -2.023078 -4.406227 -1.330677 0
M  V30 55 H -0.842219 -2.671013 -2.150813 0
M  V30 56 H -0.065299 -2.395261 -0.505441 0
M  V30 END ATOM
M  V30 BEGIN BOND
M  V30 1 2 1 2
M  V30 2 1 2 3
M  V30 3 2 3 4
M  V30 4 1 4 5
M  V30 5 2 5 6
M  V30 6 1 5 7
M  V30 7 2 7 8
M  V30 8 1 8 9
M  V30 9 2 9 10
M  V30 10 1 10 11
M  V30 11 1 11 12
M  V30 12 2 12 13
M  V30 13 1 13 14
M  V30 14 2 14 15
M  V30 15 1 15 16
M  V30 16 1 16 17
M  V30 17 1 17 18
M  V30 18 1 18 19
M  V30 19 1 19 20
M  V30 20 1 20 21
M  V30 21 1 15 22
M  V30 22 2 22 23
M  V30 23 1 10 24
M  V30 24 2 24 25
M  V30 25 1 25 26
M  V30 26 1 26 27
M  V30 27 1 27 28
M  V30 28 1 28 29
M  V30 29 1 29 30
M  V30 30 1 30 31
M  V30 31 1 6 1
M  V30 32 1 25 7
M  V30 33 1 31 27
M  V30 34 1 26 4
M  V30 35 1 23 12
M  V30 36 1 21 16
M  V30 37 1 1 32
M  V30 38 1 3 33
M  V30 39 1 8 34
M  V30 40 1 11 35
M  V30 41 1 13 36
M  V30 42 1 14 37
M  V30 43 1 17 38
M  V30 44 1 17 39
M  V30 45 1 18 40
M  V30 46 1 18 41
M  V30 47 1 19 42
M  V30 48 1 20 43
M  V30 49 1 20 44
M  V30 50 1 21 45
M  V30 51 1 21 46
M  V30 52 1 22 47
M  V30 53 1 27 48
M  V30 54 1 28 49
M  V30 55 1 28 50
M  V30 56 1 29 51
M  V30 57 1 29 52
M  V30 58 1 30 53
M  V30 59 1 30 54
M  V30 60 1 31 55
M  V30 61 1 31 56
M  V30 END BOND
M  V30 END CTAB
M  END
>  <Dataset>  (451) 
ChEMBL_Kinases

>  <Ligand_Instance>  (451) 
nan

>  <PDB_ID>  (451) 
nan

>  <Standardized_SMILES>  (451) 
c1ncc2c(n1)c1cnc(Nc3ccc(N4CCNCC4)cn3)nc1n2C1CCCC1

>  <Name>  (451) 
nan

>  <Pocket>  (451) 
nan

>  <ATP_Site>  (451) 
nan

>  <Peripheral>  (451) 
nan

>  <Num_H_Atoms_ProtBoundConf>  (451) 
nan

>  <Num_Resolved_Atoms>  (451) 
nan

>  <Num_Not_Resolved_Atoms>  (451) 
nan

$$$$
CHEMBL3698691
     RDKit          3D

  0  0  0  0  0  0  0  0  0  0999 V3000
M  V30 BEGIN CTAB
M  V30 COUNTS 63 68 0 0 0
M  V30 BEGIN ATOM
M  V30 1 N 3.931688 0.853106 6.819648 0
M  V30 2 C 3.531431 -0.469838 6.353700 0
M  V30 3 C 3.445557 -0.375846 4.847329 0
M  V30 4 C 4.755350 0.005091 4.243999 0
M  V30 5 C 4.866204 -0.199896 2.764522 0
M  V30 6 N 3.565288 -0.634741 2.240965 0
M  V30 7 C 2.765486 0.050174 1.291072 0
M  V30 8 C 3.239102 1.064694 0.491947 0
M  V30 9 C 2.358613 1.666889 -0.395825 0
M  V30 10 C 1.031939 1.281517 -0.500049 0
M  V30 11 N 0.093523 1.866422 -1.422293 0
M  V30 12 C -1.252185 1.404079 -1.410825 0
M  V30 13 N -2.064752 2.241277 -0.767931 0
M  V30 14 C -3.383104 1.966601 -0.644086 0
M  V30 15 C -3.859332 0.797754 -1.200661 0
M  V30 16 C -5.119566 0.237060 -1.249251 0
M  V30 17 C -6.373929 0.604608 -0.779937 0
M  V30 18 C -7.502865 -0.188542 -0.988402 0
M  V30 19 N -7.349632 -1.337069 -1.664971 0
M  V30 20 C -6.171762 -1.775087 -2.157465 0
M  V30 21 C -5.046309 -0.971768 -1.942729 0
M  V30 22 N -3.743787 -1.129369 -2.307601 0
M  V30 23 C -3.248463 -2.265420 -3.041575 0
M  V30 24 C -2.525861 -3.251811 -2.134937 0
M  V30 25 C -1.904049 -4.178225 -3.158094 0
M  V30 26 C -1.651278 -3.335195 -4.392546 0
M  V30 27 C -2.138860 -1.929704 -4.011198 0
M  V30 28 C -3.022306 -0.082733 -1.873243 0
M  V30 29 N -1.743620 0.291889 -1.932869 0
M  V30 30 N 0.629254 0.274585 0.318350 0
M  V30 31 C 1.448708 -0.336334 1.192024 0
M  V30 32 C 3.243810 -1.902889 2.861943 0
M  V30 33 C 2.803699 -1.591469 4.261826 0
M  V30 34 H 3.760140 1.599555 6.129708 0
M  V30 35 H 4.862735 0.888337 7.249912 0
M  V30 36 H 4.194205 -1.273427 6.715318 0
M  V30 37 H 2.470068 -0.602205 6.718041 0
M  V30 38 H 2.744283 0.467324 4.634926 0
M  V30 39 H 5.532604 -0.630027 4.717425 0
M  V30 40 H 5.025234 1.049577 4.491610 0
M  V30 41 H 5.587584 -1.005424 2.482529 0
M  V30 42 H 5.207858 0.716337 2.286543 0
M  V30 43 H 4.258284 1.372797 0.564368 0
M  V30 44 H 2.676539 2.471665 -1.051307 0
M  V30 45 H 0.493986 2.612174 -2.047958 0
M  V30 46 H -4.110218 2.598410 -0.133775 0
M  V30 47 H -6.465297 1.541258 -0.236024 0
M  V30 48 H -8.462322 0.149476 -0.597817 0
M  V30 49 H -6.092569 -2.712589 -2.700041 0
M  V30 50 H -4.023384 -2.826241 -3.567754 0
M  V30 51 H -3.189207 -3.762712 -1.431394 0
M  V30 52 H -1.677272 -2.731413 -1.613915 0
M  V30 53 H -2.708855 -4.918130 -3.419206 0
M  V30 54 H -1.001939 -4.679056 -2.774591 0
M  V30 55 H -2.199262 -3.718167 -5.259875 0
M  V30 56 H -0.552838 -3.320438 -4.554499 0
M  V30 57 H -2.484084 -1.348817 -4.870816 0
M  V30 58 H -1.292272 -1.485429 -3.462125 0
M  V30 59 H 0.921148 -1.098628 1.735202 0
M  V30 60 H 4.103732 -2.608276 2.819378 0
M  V30 61 H 2.391963 -2.340150 2.308718 0
M  V30 62 H 1.696293 -1.525792 4.275206 0
M  V30 63 H 3.069406 -2.462366 4.901667 0
M  V30 END ATOM
M  V30 BEGIN BOND
M  V30 1 1 1 2
M  V30 2 1 2 3
M  V30 3 1 3 4
M  V30 4 1 4 5
M  V30 5 1 5 6
M  V30 6 1 6 7
M  V30 7 2 7 8
M  V30 8 1 8 9
M  V30 9 2 9 10
M  V30 10 1 10 11
M  V30 11 1 11 12
M  V30 12 2 12 13
M  V30 13 1 13 14
M  V30 14 2 14 15
M  V30 15 1 15 16
M  V30 16 2 16 17
M  V30 17 1 17 18
M  V30 18 2 18 19
M  V30 19 1 19 20
M  V30 20 2 20 21
M  V30 21 1 21 22
M  V30 22 1 22 23
M  V30 23 1 23 24
M  V30 24 1 24 25
M  V30 25 1 25 26
M  V30 26 1 26 27
M  V30 27 1 22 28
M  V30 28 2 28 29
M  V30 29 1 10 30
M  V30 30 2 30 31
M  V30 31 1 6 32
M  V30 32 1 32 33
M  V30 33 1 33 3
M  V30 34 1 31 7
M  V30 35 1 29 12
M  V30 36 1 28 15
M  V30 37 1 21 16
M  V30 38 1 27 23
M  V30 39 1 1 34
M  V30 40 1 1 35
M  V30 41 1 2 36
M  V30 42 1 2 37
M  V30 43 1 3 38
M  V30 44 1 4 39
M  V30 45 1 4 40
M  V30 46 1 5 41
M  V30 47 1 5 42
M  V30 48 1 8 43
M  V30 49 1 9 44
M  V30 50 1 11 45
M  V30 51 1 14 46
M  V30 52 1 17 47
M  V30 53 1 18 48
M  V30 54 1 20 49
M  V30 55 1 23 50
M  V30 56 1 24 51
M  V30 57 1 24 52
M  V30 58 1 25 53
M  V30 59 1 25 54
M  V30 60 1 26 55
M  V30 61 1 26 56
M  V30 62 1 27 57
M  V30 63 1 27 58
M  V30 64 1 31 59
M  V30 65 1 32 60
M  V30 66 1 32 61
M  V30 67 1 33 62
M  V30 68 1 33 63
M  V30 END BOND
M  V30 END CTAB
M  END
>  <Dataset>  (452) 
ChEMBL_Kinases

>  <Ligand_Instance>  (452) 
nan

>  <PDB_ID>  (452) 
nan

>  <Standardized_SMILES>  (452) 
NCC1CCN(c2ccc(Nc3ncc4c5ccncc5n(C5CCCC5)c4n3)nc2)CC1

>  <Name>  (452) 
nan

>  <Pocket>  (452) 
nan

>  <ATP_Site>  (452) 
nan

>  <Peripheral>  (452) 
nan

>  <Num_H_Atoms_ProtBoundConf>  (452) 
nan

>  <Num_Resolved_Atoms>  (452) 
nan

>  <Num_Not_Resolved_Atoms>  (452) 
nan

$$$$
CHEMBL3698692
     RDKit          3D

  0  0  0  0  0  0  0  0  0  0999 V3000
M  V30 BEGIN CTAB
M  V30 COUNTS 60 65 0 0 0
M  V30 BEGIN ATOM
M  V30 1 C -0.470455 -2.667448 5.590683 0
M  V30 2 C 0.983827 -3.137600 5.688388 0 CFG=2
M  V30 3 C 1.838724 -2.064025 5.058578 0
M  V30 4 N 2.592822 -2.645480 3.964860 0
M  V30 5 C 2.577345 -2.218324 2.608630 0
M  V30 6 C 3.296260 -2.768623 1.568427 0
M  V30 7 C 3.200094 -2.266310 0.286441 0
M  V30 8 C 2.388057 -1.195488 -0.027990 0
M  V30 9 N 2.306328 -0.694401 -1.356990 0
M  V30 10 C 1.481949 0.404370 -1.721124 0
M  V30 11 N 1.899008 1.690219 -1.686641 0
M  V30 12 C 1.101203 2.705295 -2.035634 0
M  V30 13 C -0.209284 2.442365 -2.451718 0
M  V30 14 C -1.326622 3.138661 -2.881630 0
M  V30 15 C -1.419946 4.518702 -3.025275 0
M  V30 16 C -2.629533 5.012030 -3.469528 0
M  V30 17 N -3.660867 4.164290 -3.744958 0
M  V30 18 C -3.526078 2.833327 -3.591457 0
M  V30 19 C -2.347155 2.249849 -3.150081 0
M  V30 20 N -1.892997 1.001614 -2.896670 0
M  V30 21 C -2.775140 -0.096025 -3.102594 0
M  V30 22 C -3.935394 -0.298616 -2.243652 0
M  V30 23 C -3.307767 -0.656855 -0.924583 0
M  V30 24 C -2.308882 -1.712344 -1.434864 0
M  V30 25 C -2.110891 -1.443454 -2.884760 0
M  V30 26 C -0.614714 1.124041 -2.479688 0
M  V30 27 N 0.224490 0.136721 -2.119108 0
M  V30 28 N 1.696496 -0.675441 1.003102 0
M  V30 29 C 1.776364 -1.150815 2.260684 0
M  V30 30 C 3.387804 -3.756277 4.457524 0
M  V30 31 C 2.376642 -4.870730 4.761575 0
M  V30 32 N 1.067885 -4.397761 5.036658 0
M  V30 33 H -1.113432 -3.110938 6.373120 0
M  V30 34 H -0.506803 -1.547992 5.607908 0
M  V30 35 H -0.906761 -2.959211 4.610553 0
M  V30 36 H 1.194089 -3.276584 6.768439 0
M  V30 37 H 2.599213 -1.778894 5.846191 0
M  V30 38 H 1.306134 -1.150177 4.833213 0
M  V30 39 H 3.929615 -3.594353 1.779645 0
M  V30 40 H 3.781554 -2.729579 -0.494306 0
M  V30 41 H 2.864393 -1.141529 -2.088371 0
M  V30 42 H 1.371096 3.739342 -2.029790 0
M  V30 43 H -0.591573 5.177082 -2.802184 0
M  V30 44 H -2.789049 6.088927 -3.610544 0
M  V30 45 H -4.362701 2.167912 -3.816926 0
M  V30 46 H -3.157317 -0.148784 -4.167657 0
M  V30 47 H -4.396475 -1.257233 -2.583416 0
M  V30 48 H -4.756140 0.405996 -2.238027 0
M  V30 49 H -4.012895 -1.080398 -0.196327 0
M  V30 50 H -2.678592 0.124302 -0.495669 0
M  V30 51 H -2.836088 -2.692812 -1.243136 0
M  V30 52 H -1.395114 -1.753451 -0.843114 0
M  V30 53 H -2.685104 -2.227538 -3.442200 0
M  V30 54 H -1.085649 -1.496427 -3.248574 0
M  V30 55 H 1.149491 -0.592891 2.906330 0
M  V30 56 H 4.109523 -4.097867 3.717516 0
M  V30 57 H 3.854080 -3.534851 5.441351 0
M  V30 58 H 2.747367 -5.559896 5.522243 0
M  V30 59 H 2.310675 -5.470337 3.806916 0
M  V30 60 H 0.353564 -4.552251 4.295077 0
M  V30 END ATOM
M  V30 BEGIN BOND
M  V30 1 1 1 2
M  V30 2 1 2 3
M  V30 3 1 3 4
M  V30 4 1 4 5
M  V30 5 2 5 6
M  V30 6 1 6 7
M  V30 7 2 7 8
M  V30 8 1 8 9
M  V30 9 1 9 10
M  V30 10 2 10 11
M  V30 11 1 11 12
M  V30 12 2 12 13
M  V30 13 1 13 14
M  V30 14 2 14 15
M  V30 15 1 15 16
M  V30 16 2 16 17
M  V30 17 1 17 18
M  V30 18 2 18 19
M  V30 19 1 19 20
M  V30 20 1 20 21
M  V30 21 1 21 22
M  V30 22 1 22 23
M  V30 23 1 23 24
M  V30 24 1 24 25
M  V30 25 1 20 26
M  V30 26 2 26 27
M  V30 27 1 8 28
M  V30 28 2 28 29
M  V30 29 1 4 30
M  V30 30 1 30 31
M  V30 31 1 31 32
M  V30 32 1 32 2
M  V30 33 1 29 5
M  V30 34 1 27 10
M  V30 35 1 26 13
M  V30 36 1 19 14
M  V30 37 1 25 21
M  V30 38 1 1 33
M  V30 39 1 1 34
M  V30 40 1 1 35
M  V30 41 1 2 36 CFG=1
M  V30 42 1 3 37
M  V30 43 1 3 38
M  V30 44 1 6 39
M  V30 45 1 7 40
M  V30 46 1 9 41
M  V30 47 1 12 42
M  V30 48 1 15 43
M  V30 49 1 16 44
M  V30 50 1 18 45
M  V30 51 1 21 46
M  V30 52 1 22 47
M  V30 53 1 22 48
M  V30 54 1 23 49
M  V30 55 1 23 50
M  V30 56 1 24 51
M  V30 57 1 24 52
M  V30 58 1 25 53
M  V30 59 1 25 54
M  V30 60 1 29 55
M  V30 61 1 30 56
M  V30 62 1 30 57
M  V30 63 1 31 58
M  V30 64 1 31 59
M  V30 65 1 32 60
M  V30 END BOND
M  V30 END CTAB
M  END
>  <Dataset>  (453) 
ChEMBL_Kinases

>  <Ligand_Instance>  (453) 
nan

>  <PDB_ID>  (453) 
nan

>  <Standardized_SMILES>  (453) 
C[C@@H]1CN(c2ccc(Nc3ncc4c5ccncc5n(C5CCCC5)c4n3)nc2)CCN1

>  <Name>  (453) 
nan

>  <Pocket>  (453) 
nan

>  <ATP_Site>  (453) 
nan

>  <Peripheral>  (453) 
nan

>  <Num_H_Atoms_ProtBoundConf>  (453) 
nan

>  <Num_Resolved_Atoms>  (453) 
nan

>  <Num_Not_Resolved_Atoms>  (453) 
nan

$$$$
CHEMBL3698693
     RDKit          3D

  0  0  0  0  0  0  0  0  0  0999 V3000
M  V30 BEGIN CTAB
M  V30 COUNTS 60 65 0 0 0
M  V30 BEGIN ATOM
M  V30 1 C 0.242172 -2.139832 5.760942 0
M  V30 2 C 0.741406 -2.870663 4.536285 0 CFG=1
M  V30 3 C 2.129785 -2.327573 4.228434 0
M  V30 4 N 2.507576 -3.045511 3.010913 0
M  V30 5 C 2.591270 -2.463503 1.716614 0
M  V30 6 C 3.197741 -3.030005 0.598077 0
M  V30 7 C 3.146580 -2.326527 -0.583342 0
M  V30 8 C 2.521483 -1.087082 -0.709521 0
M  V30 9 N 2.481779 -0.410518 -1.974600 0
M  V30 10 C 1.784628 0.836436 -2.020959 0
M  V30 11 N 2.139559 2.131619 -2.204107 0
M  V30 12 C 1.174173 3.080967 -2.175665 0
M  V30 13 C -0.127508 2.702450 -1.962826 0
M  V30 14 C -1.270731 3.472610 -1.890856 0
M  V30 15 C -1.477324 4.825853 -2.008330 0
M  V30 16 C -2.776216 5.258779 -1.879474 0
M  V30 17 N -3.790787 4.402178 -1.650951 0
M  V30 18 C -3.559612 3.067630 -1.538375 0
M  V30 19 C -2.281586 2.570526 -1.657681 0
M  V30 20 N -1.876548 1.301149 -1.577931 0
M  V30 21 C -2.503613 0.044445 -1.346547 0
M  V30 22 C -3.586611 -0.345498 -2.317121 0
M  V30 23 C -3.849073 -1.788006 -1.835986 0
M  V30 24 C -2.478411 -2.310604 -1.520844 0
M  V30 25 C -1.545194 -1.118378 -1.512729 0
M  V30 26 C -0.524488 1.398673 -1.772450 0
M  V30 27 N 0.498682 0.509480 -1.815033 0
M  V30 28 N 1.935122 -0.553493 0.404054 0
M  V30 29 C 1.984176 -1.238300 1.558821 0
M  V30 30 C 2.751769 -4.458688 3.329443 0
M  V30 31 C 1.482715 -5.071313 3.866568 0
M  V30 32 N 0.780275 -4.276125 4.833213 0
M  V30 33 H 0.979834 -1.409132 6.161575 0
M  V30 34 H -0.660818 -1.510431 5.502141 0
M  V30 35 H -0.097668 -2.857335 6.526059 0
M  V30 36 H 0.052137 -2.648253 3.704267 0
M  V30 37 H 2.799784 -2.633782 5.062529 0
M  V30 38 H 2.111938 -1.250836 4.139102 0
M  V30 39 H 3.671379 -3.989514 0.733455 0
M  V30 40 H 3.598883 -2.727430 -1.458410 0
M  V30 41 H 2.958145 -0.876267 -2.764580 0
M  V30 42 H 1.486865 4.096209 -2.323402 0
M  V30 43 H -0.619958 5.480964 -2.194706 0
M  V30 44 H -2.901971 6.345522 -1.978956 0
M  V30 45 H -4.395535 2.410844 -1.349748 0
M  V30 46 H -2.967087 -0.017851 -0.322398 0
M  V30 47 H -4.513765 0.245055 -2.236736 0
M  V30 48 H -3.231750 -0.443390 -3.364548 0
M  V30 49 H -4.375312 -1.660199 -0.850426 0
M  V30 50 H -4.421314 -2.373949 -2.561872 0
M  V30 51 H -2.207708 -3.016696 -2.358023 0
M  V30 52 H -2.406437 -2.808006 -0.535186 0
M  V30 53 H -1.125492 -1.049743 -2.545893 0
M  V30 54 H -0.782957 -1.190696 -0.737051 0
M  V30 55 H 1.469000 -0.656358 2.314741 0
M  V30 56 H 3.579311 -4.465294 4.065796 0
M  V30 57 H 3.070507 -5.049786 2.461137 0
M  V30 58 H 0.852825 -5.400567 3.014078 0
M  V30 59 H 1.794865 -6.009724 4.396379 0
M  V30 60 H -0.204218 -4.619490 4.877509 0
M  V30 END ATOM
M  V30 BEGIN BOND
M  V30 1 1 1 2
M  V30 2 1 2 3
M  V30 3 1 3 4
M  V30 4 1 4 5
M  V30 5 2 5 6
M  V30 6 1 6 7
M  V30 7 2 7 8
M  V30 8 1 8 9
M  V30 9 1 9 10
M  V30 10 2 10 11
M  V30 11 1 11 12
M  V30 12 2 12 13
M  V30 13 1 13 14
M  V30 14 2 14 15
M  V30 15 1 15 16
M  V30 16 2 16 17
M  V30 17 1 17 18
M  V30 18 2 18 19
M  V30 19 1 19 20
M  V30 20 1 20 21
M  V30 21 1 21 22
M  V30 22 1 22 23
M  V30 23 1 23 24
M  V30 24 1 24 25
M  V30 25 1 20 26
M  V30 26 2 26 27
M  V30 27 1 8 28
M  V30 28 2 28 29
M  V30 29 1 4 30
M  V30 30 1 30 31
M  V30 31 1 31 32
M  V30 32 1 32 2
M  V30 33 1 29 5
M  V30 34 1 27 10
M  V30 35 1 26 13
M  V30 36 1 19 14
M  V30 37 1 25 21
M  V30 38 1 1 33
M  V30 39 1 1 34
M  V30 40 1 1 35
M  V30 41 1 2 36 CFG=3
M  V30 42 1 3 37
M  V30 43 1 3 38
M  V30 44 1 6 39
M  V30 45 1 7 40
M  V30 46 1 9 41
M  V30 47 1 12 42
M  V30 48 1 15 43
M  V30 49 1 16 44
M  V30 50 1 18 45
M  V30 51 1 21 46
M  V30 52 1 22 47
M  V30 53 1 22 48
M  V30 54 1 23 49
M  V30 55 1 23 50
M  V30 56 1 24 51
M  V30 57 1 24 52
M  V30 58 1 25 53
M  V30 59 1 25 54
M  V30 60 1 29 55
M  V30 61 1 30 56
M  V30 62 1 30 57
M  V30 63 1 31 58
M  V30 64 1 31 59
M  V30 65 1 32 60
M  V30 END BOND
M  V30 END CTAB
M  END
>  <Dataset>  (454) 
ChEMBL_Kinases

>  <Ligand_Instance>  (454) 
nan

>  <PDB_ID>  (454) 
nan

>  <Standardized_SMILES>  (454) 
C[C@H]1CN(c2ccc(Nc3ncc4c5ccncc5n(C5CCCC5)c4n3)nc2)CCN1

>  <Name>  (454) 
nan

>  <Pocket>  (454) 
nan

>  <ATP_Site>  (454) 
nan

>  <Peripheral>  (454) 
nan

>  <Num_H_Atoms_ProtBoundConf>  (454) 
nan

>  <Num_Resolved_Atoms>  (454) 
nan

>  <Num_Not_Resolved_Atoms>  (454) 
nan

$$$$
CHEMBL3698698
     RDKit          3D

  0  0  0  0  0  0  0  0  0  0999 V3000
M  V30 BEGIN CTAB
M  V30 COUNTS 63 68 0 0 0
M  V30 BEGIN ATOM
M  V30 1 N 2.439969 -1.675708 5.283881 0
M  V30 2 C 2.074106 -0.290971 5.173013 0
M  V30 3 C 2.133859 0.166151 3.754501 0
M  V30 4 C 3.460241 0.063788 3.091052 0
M  V30 5 C 4.242289 1.345131 2.996845 0
M  V30 6 C 3.457201 2.550020 2.597361 0
M  V30 7 N 2.061167 2.152719 2.403959 0
M  V30 8 C 1.281186 2.289467 1.237048 0
M  V30 9 C 1.570457 3.060489 0.133779 0
M  V30 10 C 0.735415 3.081558 -0.974538 0
M  V30 11 C -0.437512 2.311915 -1.001218 0
M  V30 12 N -1.319620 2.288104 -2.138692 0
M  V30 13 C -2.462577 1.415330 -1.994446 0
M  V30 14 N -3.781494 1.610841 -1.879525 0
M  V30 15 C -4.593080 0.532679 -1.726265 0
M  V30 16 C -4.055745 -0.731901 -1.690610 0
M  V30 17 C -4.616137 -1.960533 -1.545790 0
M  V30 18 C -5.915236 -2.395006 -1.386827 0
M  V30 19 C -6.201111 -3.754746 -1.259355 0
M  V30 20 N -5.178489 -4.606802 -1.296807 0
M  V30 21 C -3.926994 -4.184785 -1.450320 0
M  V30 22 C -3.570925 -2.873027 -1.581223 0
M  V30 23 N -2.393517 -2.279469 -1.740330 0
M  V30 24 C -1.071206 -2.794618 -1.825006 0
M  V30 25 C -0.769010 -3.751679 -2.917111 0
M  V30 26 C 0.678911 -4.132479 -2.568989 0
M  V30 27 C 0.809641 -3.989493 -1.073393 0
M  V30 28 C -0.518983 -3.413867 -0.580288 0
M  V30 29 C -2.725444 -0.948299 -1.805081 0
M  V30 30 N -1.940643 0.158562 -1.958750 0
M  V30 31 N -0.675382 1.579664 0.099174 0
M  V30 32 C 0.125904 1.553287 1.172794 0
M  V30 33 C 1.527368 1.553783 3.626934 0
M  V30 34 H 3.476213 -1.748716 5.364452 0
M  V30 35 H 2.022042 -2.162724 6.119287 0
M  V30 36 H 2.720126 0.352131 5.815061 0
M  V30 37 H 1.048091 -0.206005 5.607792 0
M  V30 38 H 1.417768 -0.493000 3.182290 0
M  V30 39 H 4.073995 -0.643937 3.694656 0
M  V30 40 H 3.371706 -0.432870 2.079367 0
M  V30 41 H 5.028157 1.156119 2.213371 0
M  V30 42 H 4.821786 1.546139 3.923385 0
M  V30 43 H 3.863719 3.114196 1.738027 0
M  V30 44 H 3.446546 3.255255 3.472232 0
M  V30 45 H 2.474337 3.645690 0.167173 0
M  V30 46 H 0.939415 3.669789 -1.841866 0
M  V30 47 H -1.067971 2.889252 -2.955002 0
M  V30 48 H -5.645765 0.737292 -1.638869 0
M  V30 49 H -6.687036 -1.637171 -1.366122 0
M  V30 50 H -7.222165 -4.055727 -1.138178 0
M  V30 51 H -3.160279 -4.925030 -1.468578 0
M  V30 52 H -0.354259 -1.935122 -2.018391 0
M  V30 53 H -1.322538 -4.676337 -2.962682 0
M  V30 54 H -0.791895 -3.275765 -3.936720 0
M  V30 55 H 0.932792 -5.148927 -2.932923 0
M  V30 56 H 1.308470 -3.331972 -3.008880 0
M  V30 57 H 1.642514 -3.309316 -0.764092 0
M  V30 58 H 1.014404 -4.991853 -0.610911 0
M  V30 59 H -1.070737 -4.234283 -0.142830 0
M  V30 60 H -0.357641 -2.652830 0.227034 0
M  V30 61 H -0.301913 0.880373 1.909030 0
M  V30 62 H 0.427027 1.557752 3.650407 0
M  V30 63 H 1.853018 2.194926 4.466996 0
M  V30 END ATOM
M  V30 BEGIN BOND
M  V30 1 1 1 2
M  V30 2 1 2 3
M  V30 3 1 3 4
M  V30 4 1 4 5
M  V30 5 1 5 6
M  V30 6 1 6 7
M  V30 7 1 7 8
M  V30 8 2 8 9
M  V30 9 1 9 10
M  V30 10 2 10 11
M  V30 11 1 11 12
M  V30 12 1 12 13
M  V30 13 2 13 14
M  V30 14 1 14 15
M  V30 15 2 15 16
M  V30 16 1 16 17
M  V30 17 2 17 18
M  V30 18 1 18 19
M  V30 19 2 19 20
M  V30 20 1 20 21
M  V30 21 2 21 22
M  V30 22 1 22 23
M  V30 23 1 23 24
M  V30 24 1 24 25
M  V30 25 1 25 26
M  V30 26 1 26 27
M  V30 27 1 27 28
M  V30 28 1 23 29
M  V30 29 2 29 30
M  V30 30 1 11 31
M  V30 31 2 31 32
M  V30 32 1 7 33
M  V30 33 1 33 3
M  V30 34 1 32 8
M  V30 35 1 30 13
M  V30 36 1 29 16
M  V30 37 1 22 17
M  V30 38 1 28 24
M  V30 39 1 1 34
M  V30 40 1 1 35
M  V30 41 1 2 36
M  V30 42 1 2 37
M  V30 43 1 3 38
M  V30 44 1 4 39
M  V30 45 1 4 40
M  V30 46 1 5 41
M  V30 47 1 5 42
M  V30 48 1 6 43
M  V30 49 1 6 44
M  V30 50 1 9 45
M  V30 51 1 10 46
M  V30 52 1 12 47
M  V30 53 1 15 48
M  V30 54 1 18 49
M  V30 55 1 19 50
M  V30 56 1 21 51
M  V30 57 1 24 52
M  V30 58 1 25 53
M  V30 59 1 25 54
M  V30 60 1 26 55
M  V30 61 1 26 56
M  V30 62 1 27 57
M  V30 63 1 27 58
M  V30 64 1 28 59
M  V30 65 1 28 60
M  V30 66 1 32 61
M  V30 67 1 33 62
M  V30 68 1 33 63
M  V30 END BOND
M  V30 END CTAB
M  END
>  <Dataset>  (455) 
ChEMBL_Kinases

>  <Ligand_Instance>  (455) 
nan

>  <PDB_ID>  (455) 
nan

>  <Standardized_SMILES>  (455) 
NCC1CCCN(c2ccc(Nc3ncc4c5ccncc5n(C5CCCC5)c4n3)nc2)C1

>  <Name>  (455) 
nan

>  <Pocket>  (455) 
nan

>  <ATP_Site>  (455) 
nan

>  <Peripheral>  (455) 
nan

>  <Num_H_Atoms_ProtBoundConf>  (455) 
nan

>  <Num_Resolved_Atoms>  (455) 
nan

>  <Num_Not_Resolved_Atoms>  (455) 
nan

$$$$
CHEMBL3698646
     RDKit          3D

  0  0  0  0  0  0  0  0  0  0999 V3000
M  V30 BEGIN CTAB
M  V30 COUNTS 62 67 0 0 0
M  V30 BEGIN ATOM
M  V30 1 C 3.902573 0.406745 5.637064 0
M  V30 2 C 3.644029 -1.012171 5.157825 0
M  V30 3 C 4.231367 -2.004296 6.160990 0
M  V30 4 C 4.235052 -1.202467 3.777432 0
M  V30 5 N 3.145841 -1.406360 2.815587 0
M  V30 6 C 2.753941 -0.636706 1.693321 0
M  V30 7 C 3.523135 0.229132 0.948868 0
M  V30 8 C 2.967071 0.928657 -0.107321 0
M  V30 9 C 1.621310 0.783758 -0.451113 0
M  V30 10 N 1.017470 1.500966 -1.542003 0
M  V30 11 C -0.376751 1.273312 -1.692308 0
M  V30 12 N -0.936042 2.496718 -1.774640 0
M  V30 13 C -2.285605 2.653180 -1.911650 0
M  V30 14 C -3.080777 1.535812 -1.965840 0
M  V30 15 C -4.434807 1.261833 -2.086355 0
M  V30 16 C -5.460816 2.209688 -2.204971 0
M  V30 17 C -6.729216 1.736231 -2.310972 0
M  V30 18 N -6.957137 0.418584 -2.299009 0
M  V30 19 C -5.968835 -0.459024 -2.185704 0
M  V30 20 C -4.635577 -0.104314 -2.070852 0
M  V30 21 N -3.411122 -0.698636 -1.940732 0
M  V30 22 C -3.288945 -2.106460 -1.893389 0
M  V30 23 C -1.931902 -2.651121 -1.664187 0
M  V30 24 C -1.325377 -3.030214 -2.997810 0
M  V30 25 C -2.310943 -2.438978 -3.979762 0
M  V30 26 C -3.624087 -2.670828 -3.264399 0
M  V30 27 C -2.504723 0.284322 -1.880809 0
M  V30 28 N -1.164980 0.217194 -1.747184 0
M  V30 29 N 0.956233 -0.074281 0.323411 0
M  V30 30 N 1.448851 -0.757742 1.334446 0
M  V30 31 C 2.408259 -2.633235 3.130438 0
M  V30 32 C 1.879460 -2.493113 4.531625 0
M  V30 33 N 2.215984 -1.193512 5.090703 0
M  V30 34 H 2.968616 1.023683 5.635019 0
M  V30 35 H 4.307949 0.402185 6.679867 0
M  V30 36 H 4.643474 0.912047 4.990440 0
M  V30 37 H 4.953447 -2.657688 5.621621 0
M  V30 38 H 3.449112 -2.551304 6.695487 0
M  V30 39 H 4.827787 -1.421972 6.914021 0
M  V30 40 H 4.825655 -0.297579 3.498297 0
M  V30 41 H 4.850123 -2.111917 3.756939 0
M  V30 42 H 4.548602 0.311811 1.245979 0
M  V30 43 H 3.587041 1.608215 -0.686750 0
M  V30 44 H 1.594102 2.101399 -2.130653 0
M  V30 45 H -2.825065 3.595633 -1.985679 0
M  V30 46 H -5.230476 3.262387 -2.207708 0
M  V30 47 H -7.498625 2.510463 -2.403222 0
M  V30 48 H -6.172706 -1.521380 -2.179960 0
M  V30 49 H -4.023239 -2.526776 -1.151088 0
M  V30 50 H -1.221700 -2.056431 -1.096087 0
M  V30 51 H -2.062626 -3.622774 -1.101238 0
M  V30 52 H -0.308884 -2.610216 -3.145740 0
M  V30 53 H -1.339457 -4.137137 -3.170304 0
M  V30 54 H -2.152440 -1.342625 -4.041811 0
M  V30 55 H -2.283325 -2.933447 -4.971821 0
M  V30 56 H -3.829819 -3.763548 -3.139131 0
M  V30 57 H -4.463706 -2.139766 -3.744621 0
M  V30 58 H 1.565623 -2.783181 2.399537 0
M  V30 59 H 3.094437 -3.510904 3.043323 0
M  V30 60 H 0.778621 -2.609360 4.605615 0
M  V30 61 H 2.357078 -3.311953 5.149569 0
M  V30 62 H 1.736284 -1.002776 5.973108 0
M  V30 END ATOM
M  V30 BEGIN BOND
M  V30 1 1 1 2
M  V30 2 1 2 3
M  V30 3 1 2 4
M  V30 4 1 4 5
M  V30 5 1 5 6
M  V30 6 2 6 7
M  V30 7 1 7 8
M  V30 8 2 8 9
M  V30 9 1 9 10
M  V30 10 1 10 11
M  V30 11 2 11 12
M  V30 12 1 12 13
M  V30 13 2 13 14
M  V30 14 1 14 15
M  V30 15 2 15 16
M  V30 16 1 16 17
M  V30 17 2 17 18
M  V30 18 1 18 19
M  V30 19 2 19 20
M  V30 20 1 20 21
M  V30 21 1 21 22
M  V30 22 1 22 23
M  V30 23 1 23 24
M  V30 24 1 24 25
M  V30 25 1 25 26
M  V30 26 1 21 27
M  V30 27 2 27 28
M  V30 28 1 9 29
M  V30 29 2 29 30
M  V30 30 1 5 31
M  V30 31 1 31 32
M  V30 32 1 32 33
M  V30 33 1 33 2
M  V30 34 1 30 6
M  V30 35 1 28 11
M  V30 36 1 27 14
M  V30 37 1 20 15
M  V30 38 1 26 22
M  V30 39 1 1 34
M  V30 40 1 1 35
M  V30 41 1 1 36
M  V30 42 1 3 37
M  V30 43 1 3 38
M  V30 44 1 3 39
M  V30 45 1 4 40
M  V30 46 1 4 41
M  V30 47 1 7 42
M  V30 48 1 8 43
M  V30 49 1 10 44
M  V30 50 1 13 45
M  V30 51 1 16 46
M  V30 52 1 17 47
M  V30 53 1 19 48
M  V30 54 1 22 49
M  V30 55 1 23 50
M  V30 56 1 23 51
M  V30 57 1 24 52
M  V30 58 1 24 53
M  V30 59 1 25 54
M  V30 60 1 25 55
M  V30 61 1 26 56
M  V30 62 1 26 57
M  V30 63 1 31 58
M  V30 64 1 31 59
M  V30 65 1 32 60
M  V30 66 1 32 61
M  V30 67 1 33 62
M  V30 END BOND
M  V30 END CTAB
M  END
>  <Dataset>  (456) 
ChEMBL_Kinases

>  <Ligand_Instance>  (456) 
nan

>  <PDB_ID>  (456) 
nan

>  <Standardized_SMILES>  (456) 
CC1(C)CN(c2ccc(Nc3ncc4c5ccncc5n(C5CCCC5)c4n3)nn2)CCN1

>  <Name>  (456) 
nan

>  <Pocket>  (456) 
nan

>  <ATP_Site>  (456) 
nan

>  <Peripheral>  (456) 
nan

>  <Num_H_Atoms_ProtBoundConf>  (456) 
nan

>  <Num_Resolved_Atoms>  (456) 
nan

>  <Num_Not_Resolved_Atoms>  (456) 
nan

$$$$
CHEMBL3698927
     RDKit          3D

  0  0  0  0  0  0  0  0  0  0999 V3000
M  V30 BEGIN CTAB
M  V30 COUNTS 43 45 0 0 0
M  V30 BEGIN ATOM
M  V30 1 C 1.273144 -5.332511 3.434546 0
M  V30 2 O 1.341093 -4.369653 2.430351 0
M  V30 3 C 2.443909 -4.065613 1.654109 0
M  V30 4 O 3.539906 -4.660836 1.800027 0
M  V30 5 C 2.387510 -3.034750 0.621281 0
M  V30 6 S 3.806537 -2.670821 -0.355773 0
M  V30 7 C 2.970478 -1.376918 -1.349789 0
M  V30 8 N 3.439070 -0.600046 -2.369641 0
M  V30 9 C 2.642955 0.291657 -2.977764 0
M  V30 10 N 1.414397 0.322528 -2.493785 0
M  V30 11 C 0.924496 -0.422042 -1.498543 0
M  V30 12 N -0.425809 -0.157879 -1.225255 0
M  V30 13 C -1.027918 0.987301 -0.612585 0
M  V30 14 C -2.009116 1.500843 -1.477952 0
M  V30 15 C -2.718084 2.618908 -1.100555 0
M  V30 16 C -2.501110 3.267984 0.113280 0
M  V30 17 F -3.129896 4.365649 0.590357 0
M  V30 18 C -1.525800 2.696350 0.890461 0
M  V30 19 C -0.757077 1.593109 0.627285 0
M  V30 20 O 0.206830 0.877140 1.181861 0
M  V30 21 C 0.954721 0.846504 2.329143 0
M  V30 22 C 0.206378 0.595212 3.603670 0
M  V30 23 N -0.799945 1.528898 3.955626 0
M  V30 24 C 1.720210 -1.351501 -0.849452 0
M  V30 25 C 1.394472 -2.187217 0.159050 0
M  V30 26 C 0.105880 -2.348535 0.884666 0
M  V30 27 H 1.690493 -4.972157 4.391812 0
M  V30 28 H 1.811016 -6.259016 3.099452 0
M  V30 29 H 0.210054 -5.608818 3.604215 0
M  V30 30 H 3.169489 0.814712 -3.752963 0
M  V30 31 H -0.957061 -0.979586 -1.576500 0
M  V30 32 H -2.322842 1.151895 -2.446242 0
M  V30 33 H -3.499651 3.092083 -1.699065 0
M  V30 34 H -1.277998 3.136322 1.839677 0
M  V30 35 H 1.627813 1.748934 2.424160 0
M  V30 36 H 1.719834 -0.001116 2.289204 0
M  V30 37 H 0.943397 0.538187 4.454192 0
M  V30 38 H -0.212806 -0.447935 3.517813 0
M  V30 39 H -1.668814 1.362137 3.441457 0
M  V30 40 H -0.484682 2.513188 3.997382 0
M  V30 41 H -0.273948 -3.399315 0.713048 0
M  V30 42 H 0.293571 -2.338670 2.005081 0
M  V30 43 H -0.670131 -1.643988 0.621446 0
M  V30 END ATOM
M  V30 BEGIN BOND
M  V30 1 1 1 2
M  V30 2 1 2 3
M  V30 3 2 3 4
M  V30 4 1 3 5
M  V30 5 1 5 6
M  V30 6 1 6 7
M  V30 7 2 7 8
M  V30 8 1 8 9
M  V30 9 2 9 10
M  V30 10 1 10 11
M  V30 11 1 11 12
M  V30 12 1 12 13
M  V30 13 2 13 14
M  V30 14 1 14 15
M  V30 15 2 15 16
M  V30 16 1 16 17
M  V30 17 1 16 18
M  V30 18 2 18 19
M  V30 19 1 19 20
M  V30 20 1 20 21
M  V30 21 1 21 22
M  V30 22 1 22 23
M  V30 23 2 11 24
M  V30 24 1 24 25
M  V30 25 1 25 26
M  V30 26 2 25 5
M  V30 27 1 24 7
M  V30 28 1 19 13
M  V30 29 1 1 27
M  V30 30 1 1 28
M  V30 31 1 1 29
M  V30 32 1 9 30
M  V30 33 1 12 31
M  V30 34 1 14 32
M  V30 35 1 15 33
M  V30 36 1 18 34
M  V30 37 1 21 35
M  V30 38 1 21 36
M  V30 39 1 22 37
M  V30 40 1 22 38
M  V30 41 1 23 39
M  V30 42 1 23 40
M  V30 43 1 26 41
M  V30 44 1 26 42
M  V30 45 1 26 43
M  V30 END BOND
M  V30 END CTAB
M  END
>  <Dataset>  (457) 
ChEMBL_Kinases

>  <Ligand_Instance>  (457) 
nan

>  <PDB_ID>  (457) 
nan

>  <Standardized_SMILES>  (457) 
COC(=O)c1sc2ncnc(Nc3ccc(F)cc3OCCN)c2c1C

>  <Name>  (457) 
nan

>  <Pocket>  (457) 
nan

>  <ATP_Site>  (457) 
nan

>  <Peripheral>  (457) 
nan

>  <Num_H_Atoms_ProtBoundConf>  (457) 
nan

>  <Num_Resolved_Atoms>  (457) 
nan

>  <Num_Not_Resolved_Atoms>  (457) 
nan

$$$$
CHEMBL3698926
     RDKit          3D

  0  0  0  0  0  0  0  0  0  0999 V3000
M  V30 BEGIN CTAB
M  V30 COUNTS 53 55 0 0 0
M  V30 BEGIN ATOM
M  V30 1 C 1.828505 -0.498184 2.606151 0
M  V30 2 C 2.849921 0.579774 2.559240 0
M  V30 3 C 4.045379 0.337353 3.161241 0
M  V30 4 C 4.554171 -0.804386 3.861660 0
M  V30 5 N 5.849708 -0.827953 4.412955 0
M  V30 6 O 4.088591 -1.915165 4.141018 0
M  V30 7 S 4.983047 1.797512 2.928151 0
M  V30 8 C 3.705460 2.696223 2.010067 0
M  V30 9 N 3.698296 3.936280 1.478623 0
M  V30 10 C 2.623002 4.392782 0.837810 0
M  V30 11 N 1.616461 3.538823 0.783567 0
M  V30 12 C 1.589203 2.319658 1.290776 0
M  V30 13 N 0.355710 1.659337 1.053832 0
M  V30 14 C 0.161692 1.211330 -0.309463 0
M  V30 15 C 1.118660 1.510202 -1.260472 0
M  V30 16 C 1.068275 1.143651 -2.610795 0
M  V30 17 C -0.064503 0.413915 -2.976020 0
M  V30 18 F -0.172703 0.032789 -4.280713 0
M  V30 19 C -1.053067 0.089216 -2.045974 0
M  V30 20 C -0.939914 0.479833 -0.747290 0
M  V30 21 O -1.839079 0.215229 0.238173 0
M  V30 22 C -3.022769 -0.509646 0.115832 0
M  V30 23 C -3.920027 -0.031544 -0.995162 0
M  V30 24 C -2.710115 -2.021985 -0.008307 0
M  V30 25 N -3.863406 -2.789082 -0.120602 0
M  V30 26 C -3.961770 -4.116650 -0.441843 0
M  V30 27 C -3.535573 -5.262541 0.366240 0
M  V30 28 C -2.112137 -5.487395 0.700916 0
M  V30 29 F -1.474608 -4.548700 1.416049 0
M  V30 30 F -2.037954 -6.706172 1.402662 0
M  V30 31 F -1.405387 -5.731160 -0.491580 0
M  V30 32 C 2.671903 1.800664 1.962135 0
M  V30 33 H 1.731950 -1.077766 1.686919 0
M  V30 34 H 0.812242 -0.100684 2.823281 0
M  V30 35 H 2.013626 -1.188061 3.479656 0
M  V30 36 H 6.816863 -0.945205 4.684127 0
M  V30 37 H 6.714630 -1.345539 4.080131 0
M  V30 38 H 2.748049 5.392664 0.462002 0
M  V30 39 H -0.460291 1.439242 1.665115 0
M  V30 40 H 2.016012 2.070592 -1.032518 0
M  V30 41 H 1.836432 1.399671 -3.321594 0
M  V30 42 H -1.864051 -0.469466 -2.430623 0
M  V30 43 H -3.580393 -0.392950 1.079947 0
M  V30 44 H -3.536415 0.909034 -1.468688 0
M  V30 45 H -4.928925 0.271429 -0.569418 0
M  V30 46 H -4.079313 -0.841587 -1.733733 0
M  V30 47 H -2.182953 -2.270556 0.968782 0
M  V30 48 H -1.951248 -2.197269 -0.792652 0
M  V30 49 H -4.714324 -2.430662 0.367347 0
M  V30 50 H -5.071523 -4.319779 -0.696625 0
M  V30 51 H -3.437814 -4.277611 -1.467574 0
M  V30 52 H -3.899946 -6.243727 -0.115787 0
M  V30 53 H -4.091515 -5.299758 1.360631 0
M  V30 END ATOM
M  V30 BEGIN BOND
M  V30 1 1 1 2
M  V30 2 2 2 3
M  V30 3 1 3 4
M  V30 4 1 4 5
M  V30 5 2 4 6
M  V30 6 1 3 7
M  V30 7 1 7 8
M  V30 8 2 8 9
M  V30 9 1 9 10
M  V30 10 2 10 11
M  V30 11 1 11 12
M  V30 12 1 12 13
M  V30 13 1 13 14
M  V30 14 2 14 15
M  V30 15 1 15 16
M  V30 16 2 16 17
M  V30 17 1 17 18
M  V30 18 1 17 19
M  V30 19 2 19 20
M  V30 20 1 20 21
M  V30 21 1 21 22
M  V30 22 1 22 23
M  V30 23 1 22 24
M  V30 24 1 24 25
M  V30 25 1 25 26
M  V30 26 1 26 27
M  V30 27 1 27 28
M  V30 28 1 28 29
M  V30 29 1 28 30
M  V30 30 1 28 31
M  V30 31 2 12 32
M  V30 32 1 32 2
M  V30 33 1 32 8
M  V30 34 1 20 14
M  V30 35 1 1 33
M  V30 36 1 1 34
M  V30 37 1 1 35
M  V30 38 1 5 36
M  V30 39 1 5 37
M  V30 40 1 10 38
M  V30 41 1 13 39
M  V30 42 1 15 40
M  V30 43 1 16 41
M  V30 44 1 19 42
M  V30 45 1 22 43
M  V30 46 1 23 44
M  V30 47 1 23 45
M  V30 48 1 23 46
M  V30 49 1 24 47
M  V30 50 1 24 48
M  V30 51 1 25 49
M  V30 52 1 26 50
M  V30 53 1 26 51
M  V30 54 1 27 52
M  V30 55 1 27 53
M  V30 END BOND
M  V30 END CTAB
M  END
>  <Dataset>  (458) 
ChEMBL_Kinases

>  <Ligand_Instance>  (458) 
nan

>  <PDB_ID>  (458) 
nan

>  <Standardized_SMILES>  (458) 
Cc1c(C(N)=O)sc2ncnc(Nc3ccc(F)cc3OC(C)CNCCC(F)(F)F)c12

>  <Name>  (458) 
nan

>  <Pocket>  (458) 
nan

>  <ATP_Site>  (458) 
nan

>  <Peripheral>  (458) 
nan

>  <Num_H_Atoms_ProtBoundConf>  (458) 
nan

>  <Num_Resolved_Atoms>  (458) 
nan

>  <Num_Not_Resolved_Atoms>  (458) 
nan

$$$$
CHEMBL3698925
     RDKit          3D

  0  0  0  0  0  0  0  0  0  0999 V3000
M  V30 BEGIN CTAB
M  V30 COUNTS 43 45 0 0 0
M  V30 BEGIN ATOM
M  V30 1 C 1.341180 -2.776350 0.616089 0
M  V30 2 C 0.833430 -3.096287 -0.742347 0
M  V30 3 C 1.180140 -4.318576 -1.248213 0
M  V30 4 C 1.964013 -5.423887 -0.714721 0
M  V30 5 O 2.156118 -6.463750 -1.382103 0
M  V30 6 O 2.664501 -5.780810 0.415895 0
M  V30 7 S 0.464458 -4.425231 -2.844765 0
M  V30 8 C -0.300504 -2.743693 -2.748209 0
M  V30 9 N -1.050399 -2.120132 -3.688539 0
M  V30 10 C -1.519412 -0.899996 -3.445558 0
M  V30 11 N -1.172766 -0.457452 -2.278359 0
M  V30 12 C -0.448123 -1.008197 -1.317822 0
M  V30 13 N -0.257196 -0.235720 -0.170137 0
M  V30 14 C -0.588870 1.076974 0.152134 0
M  V30 15 C -1.226137 1.911555 -0.733021 0
M  V30 16 C -1.586796 3.234562 -0.491336 0
M  V30 17 C -1.277852 3.758525 0.748028 0
M  V30 18 F -1.605124 5.050331 1.043121 0
M  V30 19 C -0.639527 2.969805 1.676694 0
M  V30 20 C -0.305030 1.673352 1.391781 0
M  V30 21 O 0.326459 0.893033 2.311914 0
M  V30 22 C 0.758813 1.156226 3.592999 0
M  V30 23 C -0.080057 0.475943 4.662714 0
M  V30 24 C 2.188691 0.822416 3.896611 0
M  V30 25 N 2.444421 -0.589872 3.690906 0
M  V30 26 C 0.064965 -2.263617 -1.504695 0
M  V30 27 H 1.995277 -3.618530 0.999432 0
M  V30 28 H 2.044448 -1.934374 0.558362 0
M  V30 29 H 0.558337 -2.722346 1.395953 0
M  V30 30 H 2.262320 -6.380372 1.148628 0
M  V30 31 H -2.110063 -0.389132 -4.169714 0
M  V30 32 H 0.202462 -0.669222 0.630402 0
M  V30 33 H -1.526115 1.654595 -1.727747 0
M  V30 34 H -2.087799 3.888196 -1.188861 0
M  V30 35 H -0.435659 3.448497 2.607299 0
M  V30 36 H 0.626475 2.258403 3.808307 0
M  V30 37 H -0.386000 -0.511521 4.269671 0
M  V30 38 H -0.951383 1.116098 4.917775 0
M  V30 39 H 0.533866 0.294874 5.565896 0
M  V30 40 H 2.906878 1.497274 3.438899 0
M  V30 41 H 2.295827 0.976269 5.011616 0
M  V30 42 H 3.382335 -0.860804 4.065742 0
M  V30 43 H 2.334366 -0.846436 2.668071 0
M  V30 END ATOM
M  V30 BEGIN BOND
M  V30 1 1 1 2
M  V30 2 2 2 3
M  V30 3 1 3 4
M  V30 4 2 4 5
M  V30 5 1 4 6
M  V30 6 1 3 7
M  V30 7 1 7 8
M  V30 8 2 8 9
M  V30 9 1 9 10
M  V30 10 2 10 11
M  V30 11 1 11 12
M  V30 12 1 12 13
M  V30 13 1 13 14
M  V30 14 2 14 15
M  V30 15 1 15 16
M  V30 16 2 16 17
M  V30 17 1 17 18
M  V30 18 1 17 19
M  V30 19 2 19 20
M  V30 20 1 20 21
M  V30 21 1 21 22
M  V30 22 1 22 23
M  V30 23 1 22 24
M  V30 24 1 24 25
M  V30 25 2 12 26
M  V30 26 1 26 2
M  V30 27 1 26 8
M  V30 28 1 20 14
M  V30 29 1 1 27
M  V30 30 1 1 28
M  V30 31 1 1 29
M  V30 32 1 6 30
M  V30 33 1 10 31
M  V30 34 1 13 32
M  V30 35 1 15 33
M  V30 36 1 16 34
M  V30 37 1 19 35
M  V30 38 1 22 36
M  V30 39 1 23 37
M  V30 40 1 23 38
M  V30 41 1 23 39
M  V30 42 1 24 40
M  V30 43 1 24 41
M  V30 44 1 25 42
M  V30 45 1 25 43
M  V30 END BOND
M  V30 END CTAB
M  END
>  <Dataset>  (459) 
ChEMBL_Kinases

>  <Ligand_Instance>  (459) 
nan

>  <PDB_ID>  (459) 
nan

>  <Standardized_SMILES>  (459) 
Cc1c(C(=O)O)sc2ncnc(Nc3ccc(F)cc3OC(C)CN)c12

>  <Name>  (459) 
nan

>  <Pocket>  (459) 
nan

>  <ATP_Site>  (459) 
nan

>  <Peripheral>  (459) 
nan

>  <Num_H_Atoms_ProtBoundConf>  (459) 
nan

>  <Num_Resolved_Atoms>  (459) 
nan

>  <Num_Not_Resolved_Atoms>  (459) 
nan

$$$$
CHEMBL3698924
     RDKit          3D

  0  0  0  0  0  0  0  0  0  0999 V3000
M  V30 BEGIN CTAB
M  V30 COUNTS 44 46 0 0 0
M  V30 BEGIN ATOM
M  V30 1 C 0.914667 -2.484745 0.047752 0
M  V30 2 C 0.678285 -2.334656 -1.413505 0
M  V30 3 C 1.133211 -3.329010 -2.210995 0
M  V30 4 C 1.848262 -4.570290 -1.983408 0
M  V30 5 N 2.282583 -5.050553 -0.724997 0
M  V30 6 O 2.159559 -5.359088 -2.903441 0
M  V30 7 S 0.685044 -2.849935 -3.846863 0
M  V30 8 C -0.108079 -1.305766 -3.384434 0
M  V30 9 N -0.719594 -0.324285 -4.088549 0
M  V30 10 C -1.236771 0.756796 -3.489017 0
M  V30 11 N -1.100915 0.782214 -2.175560 0
M  V30 12 C -0.507442 -0.158136 -1.431051 0
M  V30 13 N -0.516973 0.166012 -0.051496 0
M  V30 14 C 0.619070 0.868326 0.502152 0
M  V30 15 C 1.644020 1.167019 -0.391195 0
M  V30 16 C 2.791807 1.828131 0.005432 0
M  V30 17 C 2.887717 2.185770 1.332648 0
M  V30 18 F 3.949667 2.844959 1.905685 0
M  V30 19 C 1.869375 1.884625 2.200315 0
M  V30 20 C 0.708142 1.229685 1.857107 0
M  V30 21 O -0.412661 0.834781 2.541662 0
M  V30 22 C -0.566056 1.069961 3.917384 0 CFG=1
M  V30 23 C -1.753057 2.009746 4.170452 0
M  V30 24 C -0.866671 -0.227134 4.668564 0
M  V30 25 N -2.087077 -0.799172 4.159174 0
M  V30 26 C 0.035339 -1.283025 -2.010126 0
M  V30 27 H 0.820611 -3.567817 0.360180 0
M  V30 28 H 1.941240 -2.184236 0.342070 0
M  V30 29 H 0.154070 -1.964273 0.668905 0
M  V30 30 H 2.891061 -5.097075 0.142915 0
M  V30 31 H 2.273295 -5.641538 0.105527 0
M  V30 32 H -1.705043 1.487498 -4.123596 0
M  V30 33 H -1.330714 -0.092159 0.570733 0
M  V30 34 H 1.611348 0.906187 -1.437881 0
M  V30 35 H 3.625491 2.098497 -0.603687 0
M  V30 36 H 1.897728 2.141679 3.239700 0
M  V30 37 H 0.336285 1.549769 4.326215 0
M  V30 38 H -2.268172 2.205436 3.196396 0
M  V30 39 H -2.456682 1.563210 4.874967 0
M  V30 40 H -1.384854 2.968297 4.609654 0
M  V30 41 H -0.920028 0.000406 5.739884 0
M  V30 42 H -0.010353 -0.934491 4.523336 0
M  V30 43 H -2.586115 -0.071903 3.610876 0
M  V30 44 H -1.822735 -1.590539 3.527700 0
M  V30 END ATOM
M  V30 BEGIN BOND
M  V30 1 1 1 2
M  V30 2 2 2 3
M  V30 3 1 3 4
M  V30 4 1 4 5
M  V30 5 2 4 6
M  V30 6 1 3 7
M  V30 7 1 7 8
M  V30 8 2 8 9
M  V30 9 1 9 10
M  V30 10 2 10 11
M  V30 11 1 11 12
M  V30 12 1 12 13
M  V30 13 1 13 14
M  V30 14 2 14 15
M  V30 15 1 15 16
M  V30 16 2 16 17
M  V30 17 1 17 18
M  V30 18 1 17 19
M  V30 19 2 19 20
M  V30 20 1 20 21
M  V30 21 1 21 22
M  V30 22 1 22 23
M  V30 23 1 22 24
M  V30 24 1 24 25
M  V30 25 2 12 26
M  V30 26 1 26 2
M  V30 27 1 26 8
M  V30 28 1 20 14
M  V30 29 1 1 27
M  V30 30 1 1 28
M  V30 31 1 1 29
M  V30 32 1 5 30
M  V30 33 1 5 31
M  V30 34 1 10 32
M  V30 35 1 13 33
M  V30 36 1 15 34
M  V30 37 1 16 35
M  V30 38 1 19 36
M  V30 39 1 22 37 CFG=1
M  V30 40 1 23 38
M  V30 41 1 23 39
M  V30 42 1 23 40
M  V30 43 1 24 41
M  V30 44 1 24 42
M  V30 45 1 25 43
M  V30 46 1 25 44
M  V30 END BOND
M  V30 END CTAB
M  END
>  <Dataset>  (460) 
ChEMBL_Kinases

>  <Ligand_Instance>  (460) 
nan

>  <PDB_ID>  (460) 
nan

>  <Standardized_SMILES>  (460) 
Cc1c(C(N)=O)sc2ncnc(Nc3ccc(F)cc3O[C@@H](C)CN)c12

>  <Name>  (460) 
nan

>  <Pocket>  (460) 
nan

>  <ATP_Site>  (460) 
nan

>  <Peripheral>  (460) 
nan

>  <Num_H_Atoms_ProtBoundConf>  (460) 
nan

>  <Num_Resolved_Atoms>  (460) 
nan

>  <Num_Not_Resolved_Atoms>  (460) 
nan

$$$$
CHEMBL3698923
     RDKit          3D

  0  0  0  0  0  0  0  0  0  0999 V3000
M  V30 BEGIN CTAB
M  V30 COUNTS 59 61 0 0 0
M  V30 BEGIN ATOM
M  V30 1 C 1.663216 2.297686 3.029597 0
M  V30 2 C 2.951132 2.546420 2.329659 0
M  V30 3 C 3.922031 3.171022 3.055536 0
M  V30 4 C 3.971713 3.661525 4.424059 0
M  V30 5 N 2.948671 3.589531 5.369379 0
M  V30 6 O 4.984545 4.215876 4.891454 0
M  V30 7 S 5.270375 3.313271 1.964142 0
M  V30 8 C 4.497205 2.527992 0.553457 0
M  V30 9 N 4.931825 2.263488 -0.692843 0
M  V30 10 C 4.131578 1.651028 -1.568310 0
M  V30 11 N 2.909863 1.332211 -1.127797 0
M  V30 12 C 2.473680 1.591116 0.104039 0
M  V30 13 N 1.139071 1.128780 0.268677 0
M  V30 14 C 1.006925 -0.232132 0.733486 0
M  V30 15 C 2.168203 -0.968007 0.978699 0
M  V30 16 C 2.152792 -2.290140 1.429709 0
M  V30 17 C 0.922261 -2.873274 1.634709 0
M  V30 18 F 0.837640 -4.145218 2.068977 0
M  V30 19 C -0.217348 -2.142788 1.391219 0
M  V30 20 C -0.236011 -0.839817 0.946911 0
M  V30 21 O -1.286866 -0.020995 0.672835 0
M  V30 22 C -2.646190 -0.371635 0.799058 0 CFG=1
M  V30 23 C -3.297560 0.523096 1.858776 0
M  V30 24 C -3.396751 -0.131816 -0.512498 0
M  V30 25 N -2.825229 -0.922464 -1.577011 0
M  V30 26 C -2.798946 -2.339140 -1.468358 0
M  V30 27 O -3.243266 -2.994320 -0.496024 0
M  V30 28 O -2.283287 -3.186699 -2.413204 0
M  V30 29 C -2.231773 -4.580094 -2.357937 0
M  V30 30 C -1.440732 -5.101750 -1.178331 0
M  V30 31 C -1.629673 -5.118097 -3.628788 0
M  V30 32 C -3.636214 -5.177023 -2.205236 0
M  V30 33 C 3.253785 2.220664 1.050317 0
M  V30 34 H 1.363546 3.198703 3.646720 0
M  V30 35 H 0.802717 2.140077 2.366734 0
M  V30 36 H 1.718848 1.459701 3.751069 0
M  V30 37 H 2.199536 4.214215 5.758887 0
M  V30 38 H 2.987914 2.610191 5.771994 0
M  V30 39 H 4.590769 1.496583 -2.524818 0
M  V30 40 H 0.265289 1.666644 0.087911 0
M  V30 41 H 3.174322 -0.555677 0.833052 0
M  V30 42 H 3.073761 -2.825295 1.607675 0
M  V30 43 H -1.186994 -2.581794 1.545784 0
M  V30 44 H -2.781763 -1.406465 1.153019 0
M  V30 45 H -2.797878 1.517449 1.891938 0
M  V30 46 H -3.280046 0.064843 2.850299 0
M  V30 47 H -4.356312 0.733596 1.598729 0
M  V30 48 H -4.461033 -0.365510 -0.354578 0
M  V30 49 H -3.307604 0.947805 -0.719521 0
M  V30 50 H -2.398214 -0.582216 -2.478725 0
M  V30 51 H -0.461933 -4.540747 -1.187841 0
M  V30 52 H -1.164467 -6.151868 -1.326459 0
M  V30 53 H -1.919479 -4.898647 -0.208277 0
M  V30 54 H -0.725158 -5.752380 -3.456180 0
M  V30 55 H -1.297757 -4.287933 -4.309606 0
M  V30 56 H -2.349401 -5.715018 -4.221788 0
M  V30 57 H -3.903576 -5.243417 -1.109703 0
M  V30 58 H -3.685480 -6.208940 -2.601830 0
M  V30 59 H -4.397404 -4.547135 -2.683295 0
M  V30 END ATOM
M  V30 BEGIN BOND
M  V30 1 1 1 2
M  V30 2 2 2 3
M  V30 3 1 3 4
M  V30 4 1 4 5
M  V30 5 2 4 6
M  V30 6 1 3 7
M  V30 7 1 7 8
M  V30 8 2 8 9
M  V30 9 1 9 10
M  V30 10 2 10 11
M  V30 11 1 11 12
M  V30 12 1 12 13
M  V30 13 1 13 14
M  V30 14 2 14 15
M  V30 15 1 15 16
M  V30 16 2 16 17
M  V30 17 1 17 18
M  V30 18 1 17 19
M  V30 19 2 19 20
M  V30 20 1 20 21
M  V30 21 1 21 22
M  V30 22 1 22 23
M  V30 23 1 22 24
M  V30 24 1 24 25
M  V30 25 1 25 26
M  V30 26 2 26 27
M  V30 27 1 26 28
M  V30 28 1 28 29
M  V30 29 1 29 30
M  V30 30 1 29 31
M  V30 31 1 29 32
M  V30 32 2 12 33
M  V30 33 1 33 2
M  V30 34 1 33 8
M  V30 35 1 20 14
M  V30 36 1 1 34
M  V30 37 1 1 35
M  V30 38 1 1 36
M  V30 39 1 5 37
M  V30 40 1 5 38
M  V30 41 1 10 39
M  V30 42 1 13 40
M  V30 43 1 15 41
M  V30 44 1 16 42
M  V30 45 1 19 43
M  V30 46 1 22 44 CFG=1
M  V30 47 1 23 45
M  V30 48 1 23 46
M  V30 49 1 23 47
M  V30 50 1 24 48
M  V30 51 1 24 49
M  V30 52 1 25 50
M  V30 53 1 30 51
M  V30 54 1 30 52
M  V30 55 1 30 53
M  V30 56 1 31 54
M  V30 57 1 31 55
M  V30 58 1 31 56
M  V30 59 1 32 57
M  V30 60 1 32 58
M  V30 61 1 32 59
M  V30 END BOND
M  V30 END CTAB
M  END
>  <Dataset>  (461) 
ChEMBL_Kinases

>  <Ligand_Instance>  (461) 
nan

>  <PDB_ID>  (461) 
nan

>  <Standardized_SMILES>  (461) 
Cc1c(C(N)=O)sc2ncnc(Nc3ccc(F)cc3O[C@@H](C)CNC(=O)OC(C)(C)C)c12

>  <Name>  (461) 
nan

>  <Pocket>  (461) 
nan

>  <ATP_Site>  (461) 
nan

>  <Peripheral>  (461) 
nan

>  <Num_H_Atoms_ProtBoundConf>  (461) 
nan

>  <Num_Resolved_Atoms>  (461) 
nan

>  <Num_Not_Resolved_Atoms>  (461) 
nan

$$$$
CHEMBL3698922
     RDKit          3D

  0  0  0  0  0  0  0  0  0  0999 V3000
M  V30 BEGIN CTAB
M  V30 COUNTS 59 61 0 0 0
M  V30 BEGIN ATOM
M  V30 1 C 1.464880 2.278992 2.105909 0
M  V30 2 C 2.928372 2.363088 1.846619 0
M  V30 3 C 3.485499 3.641271 1.871647 0
M  V30 4 C 2.952092 4.929473 2.157713 0
M  V30 5 N 1.689941 5.339587 2.623362 0
M  V30 6 O 3.627504 5.987042 2.018815 0
M  V30 7 S 5.185822 3.366336 1.491364 0
M  V30 8 C 5.083093 1.587226 1.317985 0
M  V30 9 N 6.061373 0.735246 1.031379 0
M  V30 10 C 5.748291 -0.601427 0.966348 0
M  V30 11 N 4.463568 -0.907729 1.205010 0
M  V30 12 C 3.508195 -0.020885 1.489490 0
M  V30 13 N 2.240584 -0.617472 1.707192 0
M  V30 14 C 1.628599 -0.768737 3.020745 0
M  V30 15 C 2.424753 -0.296664 4.065165 0
M  V30 16 C 1.735334 -0.374004 5.227822 0
M  V30 17 C 0.467976 -0.816632 5.493428 0
M  V30 18 F -0.138497 -0.865510 6.682880 0
M  V30 19 C -0.215658 -1.261768 4.356445 0
M  V30 20 C 0.319982 -1.266746 3.060938 0
M  V30 21 O -0.159656 -1.647147 1.871657 0
M  V30 22 C -1.429031 -2.074255 1.476286 0
M  V30 23 C -1.712311 -3.457388 2.115972 0
M  V30 24 C -1.504605 -2.206566 -0.017376 0
M  V30 25 N -2.809952 -2.561692 -0.525986 0
M  V30 26 C -2.751441 -2.710912 -1.920643 0
M  V30 27 O -1.585011 -2.515711 -2.370651 0
M  V30 28 O -3.693671 -3.012075 -2.839194 0
M  V30 29 C -3.608542 -3.165901 -4.212728 0
M  V30 30 C -2.725812 -4.270090 -4.692768 0
M  V30 31 C -3.009386 -1.863840 -4.784990 0
M  V30 32 C -4.997511 -3.368680 -4.809446 0
M  V30 33 C 3.764458 1.318771 1.562882 0
M  V30 34 H 0.950810 3.253637 1.837913 0
M  V30 35 H 1.184312 2.091391 3.137491 0
M  V30 36 H 0.948813 1.542740 1.454402 0
M  V30 37 H 0.962834 5.986394 2.174901 0
M  V30 38 H 0.980560 5.266166 3.414977 0
M  V30 39 H 6.597384 -1.212545 0.727290 0
M  V30 40 H 1.807285 -0.944751 0.800758 0
M  V30 41 H 3.418582 0.056816 3.914832 0
M  V30 42 H 2.226148 -0.040282 6.150998 0
M  V30 43 H -1.236421 -1.656583 4.379171 0
M  V30 44 H -2.199294 -1.434905 1.901105 0
M  V30 45 H -2.359392 -3.994224 1.404649 0
M  V30 46 H -0.775498 -3.961268 2.363555 0
M  V30 47 H -2.311584 -3.277238 3.023026 0
M  V30 48 H -1.162705 -1.298798 -0.548762 0
M  V30 49 H -0.743100 -2.995737 -0.304122 0
M  V30 50 H -3.775934 -2.739426 -0.117347 0
M  V30 51 H -3.042449 -4.516065 -5.750959 0
M  V30 52 H -2.854993 -5.223067 -4.131831 0
M  V30 53 H -1.659828 -3.978205 -4.787475 0
M  V30 54 H -2.510194 -1.254374 -4.018935 0
M  V30 55 H -3.887850 -1.267387 -5.125754 0
M  V30 56 H -2.303204 -2.078014 -5.596829 0
M  V30 57 H -5.249883 -2.524990 -5.499845 0
M  V30 58 H -5.059500 -4.294340 -5.398109 0
M  V30 59 H -5.715262 -3.415082 -3.988822 0
M  V30 END ATOM
M  V30 BEGIN BOND
M  V30 1 1 1 2
M  V30 2 2 2 3
M  V30 3 1 3 4
M  V30 4 1 4 5
M  V30 5 2 4 6
M  V30 6 1 3 7
M  V30 7 1 7 8
M  V30 8 2 8 9
M  V30 9 1 9 10
M  V30 10 2 10 11
M  V30 11 1 11 12
M  V30 12 1 12 13
M  V30 13 1 13 14
M  V30 14 2 14 15
M  V30 15 1 15 16
M  V30 16 2 16 17
M  V30 17 1 17 18
M  V30 18 1 17 19
M  V30 19 2 19 20
M  V30 20 1 20 21
M  V30 21 1 21 22
M  V30 22 1 22 23
M  V30 23 1 22 24
M  V30 24 1 24 25
M  V30 25 1 25 26
M  V30 26 2 26 27
M  V30 27 1 26 28
M  V30 28 1 28 29
M  V30 29 1 29 30
M  V30 30 1 29 31
M  V30 31 1 29 32
M  V30 32 2 12 33
M  V30 33 1 33 2
M  V30 34 1 33 8
M  V30 35 1 20 14
M  V30 36 1 1 34
M  V30 37 1 1 35
M  V30 38 1 1 36
M  V30 39 1 5 37
M  V30 40 1 5 38
M  V30 41 1 10 39
M  V30 42 1 13 40
M  V30 43 1 15 41
M  V30 44 1 16 42
M  V30 45 1 19 43
M  V30 46 1 22 44
M  V30 47 1 23 45
M  V30 48 1 23 46
M  V30 49 1 23 47
M  V30 50 1 24 48
M  V30 51 1 24 49
M  V30 52 1 25 50
M  V30 53 1 30 51
M  V30 54 1 30 52
M  V30 55 1 30 53
M  V30 56 1 31 54
M  V30 57 1 31 55
M  V30 58 1 31 56
M  V30 59 1 32 57
M  V30 60 1 32 58
M  V30 61 1 32 59
M  V30 END BOND
M  V30 END CTAB
M  END
>  <Dataset>  (462) 
ChEMBL_Kinases

>  <Ligand_Instance>  (462) 
nan

>  <PDB_ID>  (462) 
nan

>  <Standardized_SMILES>  (462) 
Cc1c(C(N)=O)sc2ncnc(Nc3ccc(F)cc3OC(C)CNC(=O)OC(C)(C)C)c12

>  <Name>  (462) 
nan

>  <Pocket>  (462) 
nan

>  <ATP_Site>  (462) 
nan

>  <Peripheral>  (462) 
nan

>  <Num_H_Atoms_ProtBoundConf>  (462) 
nan

>  <Num_Resolved_Atoms>  (462) 
nan

>  <Num_Not_Resolved_Atoms>  (462) 
nan

$$$$
CHEMBL3698921
     RDKit          3D

  0  0  0  0  0  0  0  0  0  0999 V3000
M  V30 BEGIN CTAB
M  V30 COUNTS 52 54 0 0 0
M  V30 BEGIN ATOM
M  V30 1 C 2.036474 -6.596584 2.895354 0
M  V30 2 O 2.086551 -5.408447 2.099964 0
M  V30 3 C 3.086960 -5.140226 1.205692 0
M  V30 4 O 4.023468 -5.956526 1.050583 0
M  V30 5 C 3.107334 -3.939313 0.418974 0
M  V30 6 S 4.398567 -3.603733 -0.755159 0
M  V30 7 C 3.800592 -2.043396 -1.330580 0
M  V30 8 N 4.248407 -1.188786 -2.234012 0
M  V30 9 C 3.600714 -0.046553 -2.515976 0
M  V30 10 N 2.480222 0.134686 -1.804975 0
M  V30 11 C 1.995595 -0.705263 -0.883092 0
M  V30 12 N 0.786727 -0.200878 -0.341215 0
M  V30 13 C 0.875345 0.932532 0.512225 0
M  V30 14 C 2.137653 1.491461 0.731765 0
M  V30 15 C 2.387184 2.604293 1.527044 0
M  V30 16 C 1.282028 3.182962 2.136225 0
M  V30 17 F 1.485686 4.281350 2.928778 0
M  V30 18 C 0.047974 2.622637 1.911591 0
M  V30 19 C -0.208402 1.524819 1.128846 0
M  V30 20 O -1.480688 1.003398 0.941974 0
M  V30 21 C -2.665102 1.489648 1.478207 0
M  V30 22 C -3.208669 0.595953 2.585634 0
M  V30 23 C -3.727341 1.600360 0.415087 0
M  V30 24 N -4.073943 0.361979 -0.216272 0
M  V30 25 C -5.137849 0.543929 -1.208918 0
M  V30 26 C -2.967556 -0.223595 -0.941932 0
M  V30 27 C 2.656733 -1.872587 -0.594605 0
M  V30 28 C 2.261757 -2.816127 0.313964 0
M  V30 29 C 1.085452 -2.836876 1.216037 0
M  V30 30 H 3.052740 -6.861592 3.251673 0
M  V30 31 H 1.342066 -6.472974 3.733206 0
M  V30 32 H 1.708062 -7.465918 2.256631 0
M  V30 33 H 4.046574 0.583294 -3.264381 0
M  V30 34 H -0.153967 -0.589457 -0.525494 0
M  V30 35 H 3.054537 1.085167 0.283043 0
M  V30 36 H 3.379393 3.000651 1.668013 0
M  V30 37 H -0.739043 3.155885 2.439073 0
M  V30 38 H -2.545090 2.490316 1.947248 0
M  V30 39 H -3.707607 1.219242 3.341867 0
M  V30 40 H -3.993189 -0.038215 2.139055 0
M  V30 41 H -2.448864 -0.103140 2.989785 0
M  V30 42 H -4.635455 2.097359 0.834212 0
M  V30 43 H -3.385672 2.303551 -0.387852 0
M  V30 44 H -5.666400 -0.426809 -1.359699 0
M  V30 45 H -5.845287 1.341283 -0.886039 0
M  V30 46 H -4.682504 0.879620 -2.163146 0
M  V30 47 H -3.346318 -0.824710 -1.780745 0
M  V30 48 H -2.475290 -0.957593 -0.256368 0
M  V30 49 H -2.272484 0.544012 -1.338436 0
M  V30 50 H 0.589535 -1.856848 1.302143 0
M  V30 51 H 1.379147 -3.217492 2.235402 0
M  V30 52 H 0.307584 -3.573291 0.853289 0
M  V30 END ATOM
M  V30 BEGIN BOND
M  V30 1 1 1 2
M  V30 2 1 2 3
M  V30 3 2 3 4
M  V30 4 1 3 5
M  V30 5 1 5 6
M  V30 6 1 6 7
M  V30 7 2 7 8
M  V30 8 1 8 9
M  V30 9 2 9 10
M  V30 10 1 10 11
M  V30 11 1 11 12
M  V30 12 1 12 13
M  V30 13 2 13 14
M  V30 14 1 14 15
M  V30 15 2 15 16
M  V30 16 1 16 17
M  V30 17 1 16 18
M  V30 18 2 18 19
M  V30 19 1 19 20
M  V30 20 1 20 21
M  V30 21 1 21 22
M  V30 22 1 21 23
M  V30 23 1 23 24
M  V30 24 1 24 25
M  V30 25 1 24 26
M  V30 26 2 11 27
M  V30 27 1 27 28
M  V30 28 1 28 29
M  V30 29 2 28 5
M  V30 30 1 27 7
M  V30 31 1 19 13
M  V30 32 1 1 30
M  V30 33 1 1 31
M  V30 34 1 1 32
M  V30 35 1 9 33
M  V30 36 1 12 34
M  V30 37 1 14 35
M  V30 38 1 15 36
M  V30 39 1 18 37
M  V30 40 1 21 38
M  V30 41 1 22 39
M  V30 42 1 22 40
M  V30 43 1 22 41
M  V30 44 1 23 42
M  V30 45 1 23 43
M  V30 46 1 25 44
M  V30 47 1 25 45
M  V30 48 1 25 46
M  V30 49 1 26 47
M  V30 50 1 26 48
M  V30 51 1 26 49
M  V30 52 1 29 50
M  V30 53 1 29 51
M  V30 54 1 29 52
M  V30 END BOND
M  V30 END CTAB
M  END
>  <Dataset>  (463) 
ChEMBL_Kinases

>  <Ligand_Instance>  (463) 
nan

>  <PDB_ID>  (463) 
nan

>  <Standardized_SMILES>  (463) 
COC(=O)c1sc2ncnc(Nc3ccc(F)cc3OC(C)CN(C)C)c2c1C

>  <Name>  (463) 
nan

>  <Pocket>  (463) 
nan

>  <ATP_Site>  (463) 
nan

>  <Peripheral>  (463) 
nan

>  <Num_H_Atoms_ProtBoundConf>  (463) 
nan

>  <Num_Resolved_Atoms>  (463) 
nan

>  <Num_Not_Resolved_Atoms>  (463) 
nan

$$$$
CHEMBL3698920
     RDKit          3D

  0  0  0  0  0  0  0  0  0  0999 V3000
M  V30 BEGIN CTAB
M  V30 COUNTS 57 59 0 0 0
M  V30 BEGIN ATOM
M  V30 1 C 5.665360 -4.714444 2.845156 0
M  V30 2 O 5.484420 -3.566913 2.031757 0
M  V30 3 C 4.255232 -2.942758 1.891860 0
M  V30 4 O 3.517735 -3.644798 2.616254 0
M  V30 5 C 4.158281 -1.777825 1.043027 0
M  V30 6 S 5.502284 -1.050475 0.139213 0
M  V30 7 C 4.507085 0.265014 -0.588784 0
M  V30 8 N 4.869906 1.253747 -1.432219 0
M  V30 9 C 3.949130 2.134457 -1.854778 0
M  V30 10 N 2.703067 1.963999 -1.396139 0
M  V30 11 C 2.326661 0.990307 -0.560075 0
M  V30 12 N 0.948621 1.024734 -0.206378 0
M  V30 13 C 0.615992 1.847279 0.896225 0
M  V30 14 C 1.618283 2.540453 1.525612 0
M  V30 15 C 1.204681 3.307908 2.594182 0
M  V30 16 C -0.114966 3.385796 3.014365 0
M  V30 17 F -0.316329 4.189995 4.077582 0
M  V30 18 C -1.064460 2.641971 2.308325 0
M  V30 19 C -0.715846 1.837493 1.208783 0
M  V30 20 O -1.821337 1.280475 0.777076 0
M  V30 21 C -2.346792 0.457550 -0.153419 0
M  V30 22 C -3.502693 1.127523 -0.902017 0
M  V30 23 C -2.968778 -0.816891 0.469191 0
M  V30 24 N -3.482725 -1.602469 -0.656636 0
M  V30 25 C -4.049096 -2.784009 -0.115300 0
M  V30 26 O -3.926948 -2.776907 1.156007 0
M  V30 27 C -4.678317 -3.838357 -0.974850 0
M  V30 28 C -3.621478 -4.312093 -1.947238 0
M  V30 29 C -5.821004 -3.253096 -1.782156 0
M  V30 30 C 3.242082 0.062005 -0.100968 0
M  V30 31 C 3.061567 -0.996461 0.744333 0
M  V30 32 C 1.729035 -1.342787 1.351904 0
M  V30 33 H 6.711510 -5.056618 2.762207 0
M  V30 34 H 5.444305 -4.441329 3.889077 0
M  V30 35 H 4.922986 -5.528431 2.598577 0
M  V30 36 H 4.212405 2.931267 -2.527291 0
M  V30 37 H 0.645429 0.376056 -0.947242 0
M  V30 38 H 2.649175 2.496462 1.218058 0
M  V30 39 H 2.003706 3.860254 3.095615 0
M  V30 40 H -2.031859 2.829369 2.780598 0
M  V30 41 H -1.618615 0.156720 -0.929589 0
M  V30 42 H -3.095432 1.599539 -1.829919 0
M  V30 43 H -4.038473 1.832610 -0.251822 0
M  V30 44 H -4.236300 0.363013 -1.214601 0
M  V30 45 H -3.763894 -0.532659 1.181510 0
M  V30 46 H -2.158744 -1.316443 1.005561 0
M  V30 47 H -3.505658 -1.463636 -1.705942 0
M  V30 48 H -5.049744 -4.677303 -0.348046 0
M  V30 49 H -3.664172 -3.723388 -2.907374 0
M  V30 50 H -3.702911 -5.393601 -2.134615 0
M  V30 51 H -2.577729 -4.124302 -1.579574 0
M  V30 52 H -6.523694 -2.703575 -1.155985 0
M  V30 53 H -5.343723 -2.503224 -2.460854 0
M  V30 54 H -6.283722 -4.000239 -2.444888 0
M  V30 55 H 0.947612 -1.442115 0.579484 0
M  V30 56 H 1.430281 -0.620456 2.136192 0
M  V30 57 H 1.760621 -2.322146 1.862056 0
M  V30 END ATOM
M  V30 BEGIN BOND
M  V30 1 1 1 2
M  V30 2 1 2 3
M  V30 3 2 3 4
M  V30 4 1 3 5
M  V30 5 1 5 6
M  V30 6 1 6 7
M  V30 7 2 7 8
M  V30 8 1 8 9
M  V30 9 2 9 10
M  V30 10 1 10 11
M  V30 11 1 11 12
M  V30 12 1 12 13
M  V30 13 2 13 14
M  V30 14 1 14 15
M  V30 15 2 15 16
M  V30 16 1 16 17
M  V30 17 1 16 18
M  V30 18 2 18 19
M  V30 19 1 19 20
M  V30 20 1 20 21
M  V30 21 1 21 22
M  V30 22 1 21 23
M  V30 23 1 23 24
M  V30 24 1 24 25
M  V30 25 2 25 26
M  V30 26 1 25 27
M  V30 27 1 27 28
M  V30 28 1 27 29
M  V30 29 2 11 30
M  V30 30 1 30 31
M  V30 31 1 31 32
M  V30 32 2 31 5
M  V30 33 1 30 7
M  V30 34 1 19 13
M  V30 35 1 1 33
M  V30 36 1 1 34
M  V30 37 1 1 35
M  V30 38 1 9 36
M  V30 39 1 12 37
M  V30 40 1 14 38
M  V30 41 1 15 39
M  V30 42 1 18 40
M  V30 43 1 21 41
M  V30 44 1 22 42
M  V30 45 1 22 43
M  V30 46 1 22 44
M  V30 47 1 23 45
M  V30 48 1 23 46
M  V30 49 1 24 47
M  V30 50 1 27 48
M  V30 51 1 28 49
M  V30 52 1 28 50
M  V30 53 1 28 51
M  V30 54 1 29 52
M  V30 55 1 29 53
M  V30 56 1 29 54
M  V30 57 1 32 55
M  V30 58 1 32 56
M  V30 59 1 32 57
M  V30 END BOND
M  V30 END CTAB
M  END
>  <Dataset>  (464) 
ChEMBL_Kinases

>  <Ligand_Instance>  (464) 
nan

>  <PDB_ID>  (464) 
nan

>  <Standardized_SMILES>  (464) 
COC(=O)c1sc2ncnc(Nc3ccc(F)cc3OC(C)CNC(=O)C(C)C)c2c1C

>  <Name>  (464) 
nan

>  <Pocket>  (464) 
nan

>  <ATP_Site>  (464) 
nan

>  <Peripheral>  (464) 
nan

>  <Num_H_Atoms_ProtBoundConf>  (464) 
nan

>  <Num_Resolved_Atoms>  (464) 
nan

>  <Num_Not_Resolved_Atoms>  (464) 
nan

$$$$
CHEMBL3698919
     RDKit          3D

  0  0  0  0  0  0  0  0  0  0999 V3000
M  V30 BEGIN CTAB
M  V30 COUNTS 51 53 0 0 0
M  V30 BEGIN ATOM
M  V30 1 C 4.767487 -5.906323 -1.481337 0
M  V30 2 O 4.145351 -4.673830 -1.068356 0
M  V30 3 C 4.868179 -3.513004 -0.976565 0
M  V30 4 O 6.042634 -3.783226 -1.302257 0
M  V30 5 C 4.625209 -2.123185 -0.612779 0
M  V30 6 S 5.872551 -0.970835 -0.643531 0
M  V30 7 C 4.795123 0.464463 -0.050830 0
M  V30 8 N 5.159870 1.790609 0.180624 0
M  V30 9 C 4.181128 2.577110 0.611378 0
M  V30 10 N 2.993383 2.036152 0.771474 0
M  V30 11 C 2.645193 0.778399 0.551930 0
M  V30 12 N 1.288762 0.496642 0.823849 0
M  V30 13 C 0.555531 -0.104540 1.880938 0
M  V30 14 C 1.165839 -0.648647 2.989804 0
M  V30 15 C 0.464538 -1.243086 4.031186 0
M  V30 16 C -0.895313 -1.254805 3.885146 0
M  V30 17 F -1.575935 -1.845817 4.919685 0
M  V30 18 C -1.509792 -0.716709 2.789233 0
M  V30 19 C -0.813668 -0.128684 1.760201 0
M  V30 20 O -1.457245 0.405521 0.678765 0
M  V30 21 C -2.822906 0.433419 0.416934 0
M  V30 22 C -3.214454 0.166691 -1.009260 0
M  V30 23 C -3.459328 1.743772 0.902016 0
M  V30 24 N -4.892180 1.776241 0.638265 0
M  V30 25 C -5.778067 0.824424 1.190385 0
M  V30 26 C -7.226321 0.937307 0.862933 0
M  V30 27 O -5.442800 -0.115658 1.939844 0
M  V30 28 C 3.548332 -0.147347 0.105580 0
M  V30 29 C 3.445026 -1.472034 -0.178749 0
M  V30 30 C 2.160634 -2.213205 -0.051437 0
M  V30 31 H 5.835549 -5.919170 -1.195976 0
M  V30 32 H 4.632583 -5.948383 -2.580798 0
M  V30 33 H 4.164044 -6.712934 -1.045150 0
M  V30 34 H 4.508462 3.586914 0.774900 0
M  V30 35 H 0.791725 0.859522 -0.028615 0
M  V30 36 H 2.258493 -0.585819 3.007826 0
M  V30 37 H 1.079943 -1.626292 4.835562 0
M  V30 38 H -2.570886 -0.810183 2.837070 0
M  V30 39 H -3.307409 -0.334505 1.054548 0
M  V30 40 H -4.025622 0.837743 -1.366489 0
M  V30 41 H -2.283440 0.305689 -1.629598 0
M  V30 42 H -3.617811 -0.858679 -1.137506 0
M  V30 43 H -3.352417 1.803837 2.017007 0
M  V30 44 H -3.005349 2.588221 0.366481 0
M  V30 45 H -5.296760 2.534479 0.010898 0
M  V30 46 H -7.779371 1.291234 1.754898 0
M  V30 47 H -7.406370 1.641729 0.013264 0
M  V30 48 H -7.620246 -0.050890 0.561191 0
M  V30 49 H 2.277019 -3.166235 -0.620014 0
M  V30 50 H 1.327639 -1.601906 -0.460476 0
M  V30 51 H 2.001166 -2.530895 1.000568 0
M  V30 END ATOM
M  V30 BEGIN BOND
M  V30 1 1 1 2
M  V30 2 1 2 3
M  V30 3 2 3 4
M  V30 4 1 3 5
M  V30 5 1 5 6
M  V30 6 1 6 7
M  V30 7 2 7 8
M  V30 8 1 8 9
M  V30 9 2 9 10
M  V30 10 1 10 11
M  V30 11 1 11 12
M  V30 12 1 12 13
M  V30 13 2 13 14
M  V30 14 1 14 15
M  V30 15 2 15 16
M  V30 16 1 16 17
M  V30 17 1 16 18
M  V30 18 2 18 19
M  V30 19 1 19 20
M  V30 20 1 20 21
M  V30 21 1 21 22
M  V30 22 1 21 23
M  V30 23 1 23 24
M  V30 24 1 24 25
M  V30 25 1 25 26
M  V30 26 2 25 27
M  V30 27 2 11 28
M  V30 28 1 28 29
M  V30 29 1 29 30
M  V30 30 2 29 5
M  V30 31 1 28 7
M  V30 32 1 19 13
M  V30 33 1 1 31
M  V30 34 1 1 32
M  V30 35 1 1 33
M  V30 36 1 9 34
M  V30 37 1 12 35
M  V30 38 1 14 36
M  V30 39 1 15 37
M  V30 40 1 18 38
M  V30 41 1 21 39
M  V30 42 1 22 40
M  V30 43 1 22 41
M  V30 44 1 22 42
M  V30 45 1 23 43
M  V30 46 1 23 44
M  V30 47 1 24 45
M  V30 48 1 26 46
M  V30 49 1 26 47
M  V30 50 1 26 48
M  V30 51 1 30 49
M  V30 52 1 30 50
M  V30 53 1 30 51
M  V30 END BOND
M  V30 END CTAB
M  END
>  <Dataset>  (465) 
ChEMBL_Kinases

>  <Ligand_Instance>  (465) 
nan

>  <PDB_ID>  (465) 
nan

>  <Standardized_SMILES>  (465) 
COC(=O)c1sc2ncnc(Nc3ccc(F)cc3OC(C)CNC(C)=O)c2c1C

>  <Name>  (465) 
nan

>  <Pocket>  (465) 
nan

>  <ATP_Site>  (465) 
nan

>  <Peripheral>  (465) 
nan

>  <Num_H_Atoms_ProtBoundConf>  (465) 
nan

>  <Num_Resolved_Atoms>  (465) 
nan

>  <Num_Not_Resolved_Atoms>  (465) 
nan

$$$$
CHEMBL3698918
     RDKit          3D

  0  0  0  0  0  0  0  0  0  0999 V3000
M  V30 BEGIN CTAB
M  V30 COUNTS 67 69 0 0 0
M  V30 BEGIN ATOM
M  V30 1 C -0.051385 -0.069671 -0.728897 0
M  V30 2 C -1.063315 0.965325 -0.445613 0
M  V30 3 C -0.615303 2.317097 -0.560533 0
M  V30 4 C 0.541843 3.115762 -0.818041 0
M  V30 5 O 0.396255 4.371326 -0.792654 0
M  V30 6 N 1.885684 2.977661 -1.110223 0
M  V30 7 C 2.736310 4.095201 -1.303510 0
M  V30 8 C 2.412276 5.035228 -2.404745 0
M  V30 9 C 2.394393 4.406359 -3.786968 0
M  V30 10 N 2.058869 5.488246 -4.703304 0
M  V30 11 C 0.713803 5.966107 -4.552106 0
M  V30 12 C 2.304904 5.183379 -6.079414 0
M  V30 13 S -2.064984 3.296654 -0.244450 0
M  V30 14 C -3.183914 1.933861 0.024641 0
M  V30 15 N -4.503081 1.883781 0.320809 0
M  V30 16 C -5.154854 0.745932 0.481731 0
M  V30 17 N -4.366040 -0.302171 0.320326 0
M  V30 18 C -3.081354 -0.350630 0.033029 0
M  V30 19 N -2.615782 -1.643917 -0.023603 0
M  V30 20 C -3.247147 -2.893108 -0.158638 0
M  V30 21 C -4.613441 -3.004040 -0.311925 0
M  V30 22 C -5.290623 -4.205989 -0.429864 0
M  V30 23 C -4.576882 -5.384015 -0.395711 0
M  V30 24 F -5.163172 -6.606539 -0.507823 0
M  V30 25 C -3.211039 -5.319264 -0.244620 0
M  V30 26 C -2.563565 -4.114317 -0.129584 0
M  V30 27 O -1.212820 -4.070570 0.019470 0
M  V30 28 C -0.281297 -5.095081 0.111611 0
M  V30 29 C 0.728965 -5.079667 -1.011077 0
M  V30 30 C 0.497471 -4.818748 1.410745 0
M  V30 31 N 1.106623 -3.502912 1.192196 0
M  V30 32 S 2.033719 -2.972793 2.519792 0
M  V30 33 C 1.268855 -1.587028 3.329762 0
M  V30 34 O 2.122582 -4.101811 3.521681 0
M  V30 35 O 3.415716 -2.566780 2.107256 0
M  V30 36 C -2.369781 0.795608 -0.145576 0
M  V30 37 H 0.850620 0.329941 -1.213325 0
M  V30 38 H -0.450247 -0.800705 -1.477439 0
M  V30 39 H 0.295965 -0.498836 0.220818 0
M  V30 40 H 2.226979 1.999502 -1.171004 0
M  V30 41 H 3.767757 3.693261 -1.532526 0
M  V30 42 H 2.896324 4.704285 -0.384515 0
M  V30 43 H 3.296545 5.748144 -2.456231 0
M  V30 44 H 1.558594 5.713869 -2.240103 0
M  V30 45 H 1.702841 3.568545 -3.881610 0
M  V30 46 H 3.444870 4.135771 -4.026315 0
M  V30 47 H 0.049882 5.099544 -4.390762 0
M  V30 48 H 0.581975 6.707002 -3.736469 0
M  V30 49 H 0.452751 6.523974 -5.487691 0
M  V30 50 H 1.311028 5.013898 -6.582617 0
M  V30 51 H 2.723070 6.101452 -6.583149 0
M  V30 52 H 2.942472 4.306611 -6.247329 0
M  V30 53 H -6.189567 0.879040 0.710655 0
M  V30 54 H -1.601438 -1.775960 0.089247 0
M  V30 55 H -5.318323 -2.212573 -0.367160 0
M  V30 56 H -6.356973 -4.345765 -0.549652 0
M  V30 57 H -2.665931 -6.252081 -0.217547 0
M  V30 58 H -0.698170 -6.097089 0.154816 0
M  V30 59 H 0.791568 -6.058167 -1.527038 0
M  V30 60 H 0.552947 -4.228981 -1.732632 0
M  V30 61 H 1.730397 -4.907157 -0.581445 0
M  V30 62 H -0.245157 -4.720068 2.205345 0
M  V30 63 H 1.264039 -5.581313 1.605625 0
M  V30 64 H 0.405239 -2.805270 0.891666 0
M  V30 65 H 0.818599 -0.903294 2.564969 0
M  V30 66 H 0.554054 -1.883598 4.111401 0
M  V30 67 H 2.085681 -1.008936 3.830554 0
M  V30 END ATOM
M  V30 BEGIN BOND
M  V30 1 1 1 2
M  V30 2 2 2 3
M  V30 3 1 3 4
M  V30 4 2 4 5
M  V30 5 1 4 6
M  V30 6 1 6 7
M  V30 7 1 7 8
M  V30 8 1 8 9
M  V30 9 1 9 10
M  V30 10 1 10 11
M  V30 11 1 10 12
M  V30 12 1 3 13
M  V30 13 1 13 14
M  V30 14 2 14 15
M  V30 15 1 15 16
M  V30 16 2 16 17
M  V30 17 1 17 18
M  V30 18 1 18 19
M  V30 19 1 19 20
M  V30 20 2 20 21
M  V30 21 1 21 22
M  V30 22 2 22 23
M  V30 23 1 23 24
M  V30 24 1 23 25
M  V30 25 2 25 26
M  V30 26 1 26 27
M  V30 27 1 27 28
M  V30 28 1 28 29
M  V30 29 1 28 30
M  V30 30 1 30 31
M  V30 31 1 31 32
M  V30 32 1 32 33
M  V30 33 2 32 34
M  V30 34 2 32 35
M  V30 35 2 18 36
M  V30 36 1 36 2
M  V30 37 1 36 14
M  V30 38 1 26 20
M  V30 39 1 1 37
M  V30 40 1 1 38
M  V30 41 1 1 39
M  V30 42 1 6 40
M  V30 43 1 7 41
M  V30 44 1 7 42
M  V30 45 1 8 43
M  V30 46 1 8 44
M  V30 47 1 9 45
M  V30 48 1 9 46
M  V30 49 1 11 47
M  V30 50 1 11 48
M  V30 51 1 11 49
M  V30 52 1 12 50
M  V30 53 1 12 51
M  V30 54 1 12 52
M  V30 55 1 16 53
M  V30 56 1 19 54
M  V30 57 1 21 55
M  V30 58 1 22 56
M  V30 59 1 25 57
M  V30 60 1 28 58
M  V30 61 1 29 59
M  V30 62 1 29 60
M  V30 63 1 29 61
M  V30 64 1 30 62
M  V30 65 1 30 63
M  V30 66 1 31 64
M  V30 67 1 33 65
M  V30 68 1 33 66
M  V30 69 1 33 67
M  V30 END BOND
M  V30 END CTAB
M  END
>  <Dataset>  (466) 
ChEMBL_Kinases

>  <Ligand_Instance>  (466) 
nan

>  <PDB_ID>  (466) 
nan

>  <Standardized_SMILES>  (466) 
Cc1c(C(=O)NCCCN(C)C)sc2ncnc(Nc3ccc(F)cc3OC(C)CNS(C)(=O)=O)c12

>  <Name>  (466) 
nan

>  <Pocket>  (466) 
nan

>  <ATP_Site>  (466) 
nan

>  <Peripheral>  (466) 
nan

>  <Num_H_Atoms_ProtBoundConf>  (466) 
nan

>  <Num_Resolved_Atoms>  (466) 
nan

>  <Num_Not_Resolved_Atoms>  (466) 
nan

$$$$
CHEMBL3698917
     RDKit          3D

  0  0  0  0  0  0  0  0  0  0999 V3000
M  V30 BEGIN CTAB
M  V30 COUNTS 58 60 0 0 0
M  V30 BEGIN ATOM
M  V30 1 C -6.729651 4.146253 -3.168033 0
M  V30 2 O -5.904510 3.041796 -2.893432 0
M  V30 3 C -4.539861 3.032889 -3.082645 0
M  V30 4 O -4.380150 4.190351 -3.522337 0
M  V30 5 C -3.793590 1.861684 -2.765267 0
M  V30 6 S -4.516916 0.355193 -2.089183 0
M  V30 7 C -2.861415 -0.535619 -2.017288 0
M  V30 8 N -2.610222 -1.779148 -1.587523 0
M  V30 9 C -1.364290 -2.241626 -1.605578 0
M  V30 10 N -0.477985 -1.384479 -2.065446 0
M  V30 11 C -0.701880 -0.150082 -2.497001 0
M  V30 12 N 0.463112 0.507938 -2.943898 0
M  V30 13 C 1.780084 -0.008264 -2.715629 0
M  V30 14 C 2.600600 -0.439417 -3.769109 0
M  V30 15 C 3.887236 -0.893123 -3.578047 0
M  V30 16 C 4.419271 -0.937146 -2.317461 0
M  V30 17 F 5.678745 -1.379419 -2.116650 0
M  V30 18 C 3.616770 -0.510483 -1.249745 0
M  V30 19 C 2.328997 -0.053998 -1.418963 0
M  V30 20 O 1.506386 0.383683 -0.403643 0
M  V30 21 C 1.837378 0.555816 0.937722 0
M  V30 22 C 1.574738 2.016714 1.312491 0
M  V30 23 C 1.202710 -0.368944 1.936556 0
M  V30 24 N -0.210367 -0.276959 1.874242 0
M  V30 25 S -1.052033 -1.247113 2.976685 0
M  V30 26 O -0.821039 -0.843143 4.409670 0
M  V30 27 O -2.534380 -0.985166 2.730866 0
M  V30 28 C -0.815221 -2.968543 2.853080 0
M  V30 29 C 0.609897 -3.379966 3.243777 0
M  V30 30 C -1.244461 -3.609074 1.580605 0
M  V30 31 C -1.957492 0.381353 -2.502281 0
M  V30 32 C -2.391204 1.608557 -2.891520 0
M  V30 33 C -1.533324 2.695352 -3.426755 0
M  V30 34 H -7.788203 3.841288 -2.921065 0
M  V30 35 H -6.751563 4.449734 -4.225133 0
M  V30 36 H -6.514677 4.984107 -2.473291 0
M  V30 37 H -1.199751 -3.242904 -1.261114 0
M  V30 38 H 0.743697 1.367667 -3.459149 0
M  V30 39 H 2.121116 -0.379481 -4.747964 0
M  V30 40 H 4.448398 -1.209505 -4.473162 0
M  V30 41 H 4.086415 -0.568918 -0.283964 0
M  V30 42 H 2.963991 0.403651 1.022838 0
M  V30 43 H 1.066258 2.097092 2.287280 0
M  V30 44 H 2.526227 2.565409 1.402533 0
M  V30 45 H 0.954744 2.500080 0.521701 0
M  V30 46 H 1.608821 -1.394806 1.821769 0
M  V30 47 H 1.554576 -0.037951 2.960489 0
M  V30 48 H -0.516928 0.696081 1.958761 0
M  V30 49 H -1.464892 -3.428577 3.662493 0
M  V30 50 H 1.086442 -2.572192 3.836534 0
M  V30 51 H 0.586097 -4.263114 3.920471 0
M  V30 52 H 1.168492 -3.685722 2.349109 0
M  V30 53 H -1.634724 -4.653237 1.778749 0
M  V30 54 H -0.367891 -3.810359 0.895332 0
M  V30 55 H -2.058312 -3.074112 1.075700 0
M  V30 56 H -1.104541 2.455471 -4.421047 0
M  V30 57 H -2.121533 3.627596 -3.588149 0
M  V30 58 H -0.745393 3.002017 -2.708238 0
M  V30 END ATOM
M  V30 BEGIN BOND
M  V30 1 1 1 2
M  V30 2 1 2 3
M  V30 3 2 3 4
M  V30 4 1 3 5
M  V30 5 1 5 6
M  V30 6 1 6 7
M  V30 7 2 7 8
M  V30 8 1 8 9
M  V30 9 2 9 10
M  V30 10 1 10 11
M  V30 11 1 11 12
M  V30 12 1 12 13
M  V30 13 2 13 14
M  V30 14 1 14 15
M  V30 15 2 15 16
M  V30 16 1 16 17
M  V30 17 1 16 18
M  V30 18 2 18 19
M  V30 19 1 19 20
M  V30 20 1 20 21
M  V30 21 1 21 22
M  V30 22 1 21 23
M  V30 23 1 23 24
M  V30 24 1 24 25
M  V30 25 2 25 26
M  V30 26 2 25 27
M  V30 27 1 25 28
M  V30 28 1 28 29
M  V30 29 1 28 30
M  V30 30 2 11 31
M  V30 31 1 31 32
M  V30 32 1 32 33
M  V30 33 2 32 5
M  V30 34 1 31 7
M  V30 35 1 19 13
M  V30 36 1 1 34
M  V30 37 1 1 35
M  V30 38 1 1 36
M  V30 39 1 9 37
M  V30 40 1 12 38
M  V30 41 1 14 39
M  V30 42 1 15 40
M  V30 43 1 18 41
M  V30 44 1 21 42
M  V30 45 1 22 43
M  V30 46 1 22 44
M  V30 47 1 22 45
M  V30 48 1 23 46
M  V30 49 1 23 47
M  V30 50 1 24 48
M  V30 51 1 28 49
M  V30 52 1 29 50
M  V30 53 1 29 51
M  V30 54 1 29 52
M  V30 55 1 30 53
M  V30 56 1 30 54
M  V30 57 1 30 55
M  V30 58 1 33 56
M  V30 59 1 33 57
M  V30 60 1 33 58
M  V30 END BOND
M  V30 END CTAB
M  END
>  <Dataset>  (467) 
ChEMBL_Kinases

>  <Ligand_Instance>  (467) 
nan

>  <PDB_ID>  (467) 
nan

>  <Standardized_SMILES>  (467) 
COC(=O)c1sc2ncnc(Nc3ccc(F)cc3OC(C)CNS(=O)(=O)C(C)C)c2c1C

>  <Name>  (467) 
nan

>  <Pocket>  (467) 
nan

>  <ATP_Site>  (467) 
nan

>  <Peripheral>  (467) 
nan

>  <Num_H_Atoms_ProtBoundConf>  (467) 
nan

>  <Num_Resolved_Atoms>  (467) 
nan

>  <Num_Not_Resolved_Atoms>  (467) 
nan

$$$$
CHEMBL3698916
     RDKit          3D

  0  0  0  0  0  0  0  0  0  0999 V3000
M  V30 BEGIN CTAB
M  V30 COUNTS 52 54 0 0 0
M  V30 BEGIN ATOM
M  V30 1 C 0.884779 -5.809518 -0.315906 0
M  V30 2 O 1.299370 -4.467272 -0.145122 0
M  V30 3 C 2.236854 -4.108102 0.832536 0
M  V30 4 O 2.720734 -4.996144 1.571333 0
M  V30 5 C 2.625985 -2.734150 0.971147 0
M  V30 6 S 3.832811 -2.283533 2.230393 0
M  V30 7 C 3.837073 -0.523272 1.849673 0
M  V30 8 N 4.526337 0.489842 2.393647 0
M  V30 9 C 4.363205 1.738697 1.926228 0
M  V30 10 N 3.488847 1.860069 0.916741 0
M  V30 11 C 2.792288 0.862521 0.361391 0
M  V30 12 N 1.958941 1.330993 -0.684048 0
M  V30 13 C 0.752640 2.091337 -0.441000 0
M  V30 14 C 0.937256 3.297727 -1.108298 0
M  V30 15 C -0.041389 4.302544 -1.082958 0
M  V30 16 C -1.208557 4.060453 -0.369033 0
M  V30 17 F -2.214125 4.957320 -0.277956 0
M  V30 18 C -1.331720 2.856081 0.266107 0
M  V30 19 C -0.405476 1.844298 0.271063 0
M  V30 20 O -0.377298 0.609254 0.844875 0
M  V30 21 C -1.436545 0.140501 1.634132 0
M  V30 22 C -0.912917 -0.127589 3.029147 0
M  V30 23 C -2.129078 -1.076571 1.057546 0
M  V30 24 N -3.215432 -1.518134 1.911133 0
M  V30 25 S -3.969115 -2.891185 1.224290 0
M  V30 26 C -4.677478 -2.544457 -0.362610 0
M  V30 27 O -2.986579 -4.024481 1.024396 0
M  V30 28 O -5.049709 -3.378180 2.131110 0
M  V30 29 C 2.939921 -0.422973 0.818953 0
M  V30 30 C 2.322267 -1.555475 0.371423 0
M  V30 31 C 1.333718 -1.683849 -0.725029 0
M  V30 32 H 0.217957 -5.866607 -1.188729 0
M  V30 33 H 0.273434 -6.066792 0.579786 0
M  V30 34 H 1.714846 -6.537428 -0.316011 0
M  V30 35 H 4.932150 2.502725 2.392039 0
M  V30 36 H 2.285256 1.091198 -1.639975 0
M  V30 37 H 1.768561 3.662608 -1.708079 0
M  V30 38 H 0.003630 5.264659 -1.563398 0
M  V30 39 H -2.226880 2.663565 0.815995 0
M  V30 40 H -2.196779 0.927368 1.734028 0
M  V30 41 H -1.441037 0.464599 3.803897 0
M  V30 42 H 0.156636 0.169527 3.109817 0
M  V30 43 H -0.950689 -1.186391 3.314832 0
M  V30 44 H -1.419327 -1.897946 0.941459 0
M  V30 45 H -2.559064 -0.827611 0.074022 0
M  V30 46 H -2.860693 -1.766080 2.839026 0
M  V30 47 H -4.917105 -3.522036 -0.830075 0
M  V30 48 H -5.627775 -1.982519 -0.281467 0
M  V30 49 H -3.955094 -2.051809 -1.047420 0
M  V30 50 H 0.925748 -0.757207 -1.115939 0
M  V30 51 H 0.464796 -2.319771 -0.458849 0
M  V30 52 H 1.878160 -2.157350 -1.596572 0
M  V30 END ATOM
M  V30 BEGIN BOND
M  V30 1 1 1 2
M  V30 2 1 2 3
M  V30 3 2 3 4
M  V30 4 1 3 5
M  V30 5 1 5 6
M  V30 6 1 6 7
M  V30 7 2 7 8
M  V30 8 1 8 9
M  V30 9 2 9 10
M  V30 10 1 10 11
M  V30 11 1 11 12
M  V30 12 1 12 13
M  V30 13 2 13 14
M  V30 14 1 14 15
M  V30 15 2 15 16
M  V30 16 1 16 17
M  V30 17 1 16 18
M  V30 18 2 18 19
M  V30 19 1 19 20
M  V30 20 1 20 21
M  V30 21 1 21 22
M  V30 22 1 21 23
M  V30 23 1 23 24
M  V30 24 1 24 25
M  V30 25 1 25 26
M  V30 26 2 25 27
M  V30 27 2 25 28
M  V30 28 2 11 29
M  V30 29 1 29 30
M  V30 30 1 30 31
M  V30 31 2 30 5
M  V30 32 1 29 7
M  V30 33 1 19 13
M  V30 34 1 1 32
M  V30 35 1 1 33
M  V30 36 1 1 34
M  V30 37 1 9 35
M  V30 38 1 12 36
M  V30 39 1 14 37
M  V30 40 1 15 38
M  V30 41 1 18 39
M  V30 42 1 21 40
M  V30 43 1 22 41
M  V30 44 1 22 42
M  V30 45 1 22 43
M  V30 46 1 23 44
M  V30 47 1 23 45
M  V30 48 1 24 46
M  V30 49 1 26 47
M  V30 50 1 26 48
M  V30 51 1 26 49
M  V30 52 1 31 50
M  V30 53 1 31 51
M  V30 54 1 31 52
M  V30 END BOND
M  V30 END CTAB
M  END
>  <Dataset>  (468) 
ChEMBL_Kinases

>  <Ligand_Instance>  (468) 
nan

>  <PDB_ID>  (468) 
nan

>  <Standardized_SMILES>  (468) 
COC(=O)c1sc2ncnc(Nc3ccc(F)cc3OC(C)CNS(C)(=O)=O)c2c1C

>  <Name>  (468) 
nan

>  <Pocket>  (468) 
nan

>  <ATP_Site>  (468) 
nan

>  <Peripheral>  (468) 
nan

>  <Num_H_Atoms_ProtBoundConf>  (468) 
nan

>  <Num_Resolved_Atoms>  (468) 
nan

>  <Num_Not_Resolved_Atoms>  (468) 
nan

$$$$
CHEMBL3698915
     RDKit          3D

  0  0  0  0  0  0  0  0  0  0999 V3000
M  V30 BEGIN CTAB
M  V30 COUNTS 47 49 0 0 0
M  V30 BEGIN ATOM
M  V30 1 C -1.128827 -6.271638 3.015127 0
M  V30 2 N -0.756738 -5.370180 1.948369 0
M  V30 3 C -1.245710 -4.051308 1.818471 0
M  V30 4 O -2.066460 -3.666728 2.720198 0
M  V30 5 C -0.824755 -3.218875 0.725547 0
M  V30 6 S 0.339692 -3.817000 -0.522936 0
M  V30 7 C 0.323735 -2.228028 -1.475415 0
M  V30 8 N 1.006301 -1.933187 -2.612420 0
M  V30 9 C 0.829484 -0.707966 -3.128489 0
M  V30 10 N -0.003333 0.113225 -2.475510 0
M  V30 11 C -0.652535 -0.209286 -1.366842 0
M  V30 12 N -1.450850 0.881558 -0.935424 0
M  V30 13 C -0.597131 1.918998 -0.388704 0
M  V30 14 C -0.821878 3.071698 -1.167321 0
M  V30 15 C -0.171809 4.262240 -0.944978 0
M  V30 16 C 0.748815 4.360127 0.082616 0
M  V30 17 F 1.480028 5.442539 0.448648 0
M  V30 18 C 0.952841 3.226637 0.828798 0
M  V30 19 C 0.337572 2.012471 0.657413 0
M  V30 20 O 0.373907 0.792811 1.245424 0
M  V30 21 C 1.147009 0.382717 2.324242 0
M  V30 22 C 0.832532 1.091583 3.622053 0
M  V30 23 C 2.638288 0.424947 2.100785 0
M  V30 24 N 2.937878 -0.442619 0.988648 0
M  V30 25 C -0.544134 -1.429933 -0.759689 0
M  V30 26 C -1.122763 -1.922024 0.344397 0
M  V30 27 C -2.082306 -1.258066 1.255893 0
M  V30 28 H -0.212047 -6.544458 3.564007 0
M  V30 29 H -1.893091 -5.831997 3.696278 0
M  V30 30 H -1.498783 -7.208897 2.520546 0
M  V30 31 H -0.080700 -5.804138 1.278487 0
M  V30 32 H 1.382826 -0.508997 -4.027577 0
M  V30 33 H -2.487479 1.070815 -0.948742 0
M  V30 34 H -1.503167 3.191748 -2.012837 0
M  V30 35 H -0.295753 5.177392 -1.499478 0
M  V30 36 H 1.648162 3.205517 1.646741 0
M  V30 37 H 0.937107 -0.719969 2.551793 0
M  V30 38 H -0.028924 0.586196 4.148987 0
M  V30 39 H 1.699263 1.011974 4.313052 0
M  V30 40 H 0.613567 2.150293 3.471110 0
M  V30 41 H 3.079308 -0.087255 3.005648 0
M  V30 42 H 3.096353 1.405525 2.076702 0
M  V30 43 H 3.413520 -1.323015 1.259734 0
M  V30 44 H 3.356690 0.061102 0.186257 0
M  V30 45 H -3.032290 -1.867616 1.351572 0
M  V30 46 H -2.434354 -0.272296 0.923287 0
M  V30 47 H -1.648976 -1.090907 2.267128 0
M  V30 END ATOM
M  V30 BEGIN BOND
M  V30 1 1 1 2
M  V30 2 1 2 3
M  V30 3 2 3 4
M  V30 4 1 3 5
M  V30 5 1 5 6
M  V30 6 1 6 7
M  V30 7 2 7 8
M  V30 8 1 8 9
M  V30 9 2 9 10
M  V30 10 1 10 11
M  V30 11 1 11 12
M  V30 12 1 12 13
M  V30 13 2 13 14
M  V30 14 1 14 15
M  V30 15 2 15 16
M  V30 16 1 16 17
M  V30 17 1 16 18
M  V30 18 2 18 19
M  V30 19 1 19 20
M  V30 20 1 20 21
M  V30 21 1 21 22
M  V30 22 1 21 23
M  V30 23 1 23 24
M  V30 24 2 11 25
M  V30 25 1 25 26
M  V30 26 1 26 27
M  V30 27 2 26 5
M  V30 28 1 25 7
M  V30 29 1 19 13
M  V30 30 1 1 28
M  V30 31 1 1 29
M  V30 32 1 1 30
M  V30 33 1 2 31
M  V30 34 1 9 32
M  V30 35 1 12 33
M  V30 36 1 14 34
M  V30 37 1 15 35
M  V30 38 1 18 36
M  V30 39 1 21 37
M  V30 40 1 22 38
M  V30 41 1 22 39
M  V30 42 1 22 40
M  V30 43 1 23 41
M  V30 44 1 23 42
M  V30 45 1 24 43
M  V30 46 1 24 44
M  V30 47 1 27 45
M  V30 48 1 27 46
M  V30 49 1 27 47
M  V30 END BOND
M  V30 END CTAB
M  END
>  <Dataset>  (469) 
ChEMBL_Kinases

>  <Ligand_Instance>  (469) 
nan

>  <PDB_ID>  (469) 
nan

>  <Standardized_SMILES>  (469) 
CNC(=O)c1sc2ncnc(Nc3ccc(F)cc3OC(C)CN)c2c1C

>  <Name>  (469) 
nan

>  <Pocket>  (469) 
nan

>  <ATP_Site>  (469) 
nan

>  <Peripheral>  (469) 
nan

>  <Num_H_Atoms_ProtBoundConf>  (469) 
nan

>  <Num_Resolved_Atoms>  (469) 
nan

>  <Num_Not_Resolved_Atoms>  (469) 
nan

$$$$
CHEMBL3698914
     RDKit          3D

  0  0  0  0  0  0  0  0  0  0999 V3000
M  V30 BEGIN CTAB
M  V30 COUNTS 51 53 0 0 0
M  V30 BEGIN ATOM
M  V30 1 C 0.836564 -0.758977 1.393138 0
M  V30 2 C 1.249264 0.670237 1.185478 0
M  V30 3 C 2.581607 1.056045 1.376512 0
M  V30 4 C 3.735945 0.235049 1.767313 0
M  V30 5 O 3.877692 -0.980545 2.035003 0
M  V30 6 N 4.983938 0.916440 1.882223 0
M  V30 7 C 6.224029 0.278853 2.264925 0
M  V30 8 C 6.165219 -0.303518 3.657515 0
M  V30 9 O 5.893614 0.780324 4.523458 0
M  V30 10 S 2.598849 2.818722 1.034218 0
M  V30 11 C 0.861440 2.927192 0.667132 0
M  V30 12 N 0.154822 4.001321 0.318597 0
M  V30 13 C -1.161203 3.902476 0.077758 0
M  V30 14 N -1.668652 2.678903 0.214860 0
M  V30 15 C -0.978254 1.601427 0.559022 0
M  V30 16 N -1.736352 0.382586 0.631768 0
M  V30 17 C -2.039048 -0.205394 -0.655126 0
M  V30 18 C -1.646215 0.514712 -1.792143 0
M  V30 19 C -1.859827 0.086342 -3.099382 0
M  V30 20 C -2.508791 -1.143059 -3.281010 0
M  V30 21 F -2.758607 -1.634316 -4.510517 0
M  V30 22 C -2.880696 -1.824379 -2.144626 0
M  V30 23 C -2.686130 -1.432084 -0.851189 0
M  V30 24 O -3.024401 -2.055091 0.320499 0
M  V30 25 C -3.689319 -3.290396 0.345364 0
M  V30 26 C -4.976154 -3.231290 1.163583 0
M  V30 27 C -2.791276 -4.369159 0.971181 0
M  V30 28 N -1.588036 -4.496285 0.170340 0
M  V30 29 C 0.383993 1.648394 0.820574 0
M  V30 30 H 0.533133 -1.261970 0.465854 0
M  V30 31 H -0.015181 -0.754921 2.144831 0
M  V30 32 H 1.635084 -1.313160 1.923271 0
M  V30 33 H 5.022320 1.962496 1.676671 0
M  V30 34 H 6.533847 -0.499657 1.522721 0
M  V30 35 H 7.037269 1.045619 2.279234 0
M  V30 36 H 7.142945 -0.758259 3.935663 0
M  V30 37 H 5.339476 -1.012745 3.762164 0
M  V30 38 H 5.527052 1.551721 4.036185 0
M  V30 39 H -1.586079 4.846260 -0.189178 0
M  V30 40 H -2.139019 -0.190037 1.412270 0
M  V30 41 H -1.136106 1.479870 -1.782073 0
M  V30 42 H -1.564318 0.628105 -3.976417 0
M  V30 43 H -3.373183 -2.757005 -2.292326 0
M  V30 44 H -3.971471 -3.695295 -0.636795 0
M  V30 45 H -4.978166 -4.032126 1.929416 0
M  V30 46 H -5.881035 -3.416686 0.532048 0
M  V30 47 H -5.107037 -2.229883 1.617907 0
M  V30 48 H -3.316745 -5.344399 0.977078 0
M  V30 49 H -2.556955 -4.113545 2.024022 0
M  V30 50 H -1.646699 -5.282389 -0.527720 0
M  V30 51 H -0.805442 -4.753232 0.843367 0
M  V30 END ATOM
M  V30 BEGIN BOND
M  V30 1 1 1 2
M  V30 2 2 2 3
M  V30 3 1 3 4
M  V30 4 2 4 5
M  V30 5 1 4 6
M  V30 6 1 6 7
M  V30 7 1 7 8
M  V30 8 1 8 9
M  V30 9 1 3 10
M  V30 10 1 10 11
M  V30 11 2 11 12
M  V30 12 1 12 13
M  V30 13 2 13 14
M  V30 14 1 14 15
M  V30 15 1 15 16
M  V30 16 1 16 17
M  V30 17 2 17 18
M  V30 18 1 18 19
M  V30 19 2 19 20
M  V30 20 1 20 21
M  V30 21 1 20 22
M  V30 22 2 22 23
M  V30 23 1 23 24
M  V30 24 1 24 25
M  V30 25 1 25 26
M  V30 26 1 25 27
M  V30 27 1 27 28
M  V30 28 2 15 29
M  V30 29 1 29 2
M  V30 30 1 29 11
M  V30 31 1 23 17
M  V30 32 1 1 30
M  V30 33 1 1 31
M  V30 34 1 1 32
M  V30 35 1 6 33
M  V30 36 1 7 34
M  V30 37 1 7 35
M  V30 38 1 8 36
M  V30 39 1 8 37
M  V30 40 1 9 38
M  V30 41 1 13 39
M  V30 42 1 16 40
M  V30 43 1 18 41
M  V30 44 1 19 42
M  V30 45 1 22 43
M  V30 46 1 25 44
M  V30 47 1 26 45
M  V30 48 1 26 46
M  V30 49 1 26 47
M  V30 50 1 27 48
M  V30 51 1 27 49
M  V30 52 1 28 50
M  V30 53 1 28 51
M  V30 END BOND
M  V30 END CTAB
M  END
>  <Dataset>  (470) 
ChEMBL_Kinases

>  <Ligand_Instance>  (470) 
nan

>  <PDB_ID>  (470) 
nan

>  <Standardized_SMILES>  (470) 
Cc1c(C(=O)NCCO)sc2ncnc(Nc3ccc(F)cc3OC(C)CN)c12

>  <Name>  (470) 
nan

>  <Pocket>  (470) 
nan

>  <ATP_Site>  (470) 
nan

>  <Peripheral>  (470) 
nan

>  <Num_H_Atoms_ProtBoundConf>  (470) 
nan

>  <Num_Resolved_Atoms>  (470) 
nan

>  <Num_Not_Resolved_Atoms>  (470) 
nan

$$$$
CHEMBL3698913
     RDKit          3D

  0  0  0  0  0  0  0  0  0  0999 V3000
M  V30 BEGIN CTAB
M  V30 COUNTS 61 63 0 0 0
M  V30 BEGIN ATOM
M  V30 1 C -0.376633 -0.187890 2.107126 0
M  V30 2 C 0.368860 -1.436531 2.372491 0
M  V30 3 C 1.659035 -1.410074 1.947160 0
M  V30 4 C 2.522480 -0.440374 1.269369 0
M  V30 5 O 2.008494 0.661362 0.982030 0
M  V30 6 N 3.870909 -0.691989 0.937151 0
M  V30 7 C 4.636956 0.346820 0.243986 0
M  V30 8 C 4.087091 0.709021 -1.092916 0
M  V30 9 C 4.841236 1.806380 -1.813816 0
M  V30 10 N 4.162340 2.008282 -3.067627 0
M  V30 11 C 4.750926 3.054584 -3.858596 0
M  V30 12 C 2.755375 2.213845 -2.960682 0
M  V30 13 S 2.324277 -3.004467 2.391656 0
M  V30 14 C 0.794743 -3.617658 3.135524 0
M  V30 15 N 0.570671 -4.806178 3.708232 0
M  V30 16 C -0.670268 -5.041143 4.214706 0
M  V30 17 N -1.552217 -4.051073 4.088252 0
M  V30 18 C -1.299432 -2.876633 3.512156 0
M  V30 19 N -2.422472 -2.006329 3.510370 0
M  V30 20 C -3.717940 -1.775199 2.955261 0
M  V30 21 C -4.719817 -1.604610 3.896907 0
M  V30 22 C -6.023792 -1.380043 3.466072 0
M  V30 23 C -6.197409 -1.349152 2.099471 0
M  V30 24 F -7.506075 -1.124068 1.742807 0
M  V30 25 C -5.228241 -1.514809 1.139306 0
M  V30 26 C -3.923009 -1.741100 1.597823 0
M  V30 27 O -2.923958 -1.922484 0.648833 0
M  V30 28 C -3.143486 -1.871920 -0.726111 0
M  V30 29 C -3.814477 -3.211935 -1.177205 0
M  V30 30 C -1.972268 -1.728796 -1.609473 0
M  V30 31 N -1.135125 -0.588740 -1.454569 0
M  V30 32 C -0.064676 -2.563582 2.975819 0
M  V30 33 H -1.414706 -0.161379 2.412109 0
M  V30 34 H 0.123006 0.591922 2.764837 0
M  V30 35 H -0.217056 0.221249 1.086152 0
M  V30 36 H 4.274464 -1.619810 1.204554 0
M  V30 37 H 4.765908 1.219800 0.928891 0
M  V30 38 H 5.665185 -0.060525 0.089429 0
M  V30 39 H 4.247311 -0.213379 -1.738048 0
M  V30 40 H 3.016687 0.911638 -1.053832 0
M  V30 41 H 4.722753 2.781365 -1.249322 0
M  V30 42 H 5.888556 1.528800 -1.950636 0
M  V30 43 H 4.602680 4.035588 -3.317222 0
M  V30 44 H 5.856675 2.969296 -3.974928 0
M  V30 45 H 4.220536 3.167193 -4.827332 0
M  V30 46 H 2.176032 1.269785 -2.878625 0
M  V30 47 H 2.367765 2.740668 -3.872922 0
M  V30 48 H 2.457001 2.836471 -2.096480 0
M  V30 49 H -0.763150 -6.018412 4.657064 0
M  V30 50 H -2.141811 -1.284291 4.243407 0
M  V30 51 H -4.515268 -1.640343 4.962834 0
M  V30 52 H -6.794750 -1.250139 4.201287 0
M  V30 53 H -5.557806 -1.462874 0.130131 0
M  V30 54 H -3.926370 -1.138007 -0.958407 0
M  V30 55 H -4.281221 -3.697455 -0.296943 0
M  V30 56 H -4.571374 -3.038741 -1.943284 0
M  V30 57 H -3.055088 -3.897036 -1.582501 0
M  V30 58 H -1.329743 -2.648163 -1.647388 0
M  V30 59 H -2.379355 -1.673914 -2.667036 0
M  V30 60 H -0.907433 -0.152187 -2.391763 0
M  V30 61 H -0.219344 -0.831257 -0.980107 0
M  V30 END ATOM
M  V30 BEGIN BOND
M  V30 1 1 1 2
M  V30 2 2 2 3
M  V30 3 1 3 4
M  V30 4 2 4 5
M  V30 5 1 4 6
M  V30 6 1 6 7
M  V30 7 1 7 8
M  V30 8 1 8 9
M  V30 9 1 9 10
M  V30 10 1 10 11
M  V30 11 1 10 12
M  V30 12 1 3 13
M  V30 13 1 13 14
M  V30 14 2 14 15
M  V30 15 1 15 16
M  V30 16 2 16 17
M  V30 17 1 17 18
M  V30 18 1 18 19
M  V30 19 1 19 20
M  V30 20 2 20 21
M  V30 21 1 21 22
M  V30 22 2 22 23
M  V30 23 1 23 24
M  V30 24 1 23 25
M  V30 25 2 25 26
M  V30 26 1 26 27
M  V30 27 1 27 28
M  V30 28 1 28 29
M  V30 29 1 28 30
M  V30 30 1 30 31
M  V30 31 2 18 32
M  V30 32 1 32 2
M  V30 33 1 32 14
M  V30 34 1 26 20
M  V30 35 1 1 33
M  V30 36 1 1 34
M  V30 37 1 1 35
M  V30 38 1 6 36
M  V30 39 1 7 37
M  V30 40 1 7 38
M  V30 41 1 8 39
M  V30 42 1 8 40
M  V30 43 1 9 41
M  V30 44 1 9 42
M  V30 45 1 11 43
M  V30 46 1 11 44
M  V30 47 1 11 45
M  V30 48 1 12 46
M  V30 49 1 12 47
M  V30 50 1 12 48
M  V30 51 1 16 49
M  V30 52 1 19 50
M  V30 53 1 21 51
M  V30 54 1 22 52
M  V30 55 1 25 53
M  V30 56 1 28 54
M  V30 57 1 29 55
M  V30 58 1 29 56
M  V30 59 1 29 57
M  V30 60 1 30 58
M  V30 61 1 30 59
M  V30 62 1 31 60
M  V30 63 1 31 61
M  V30 END BOND
M  V30 END CTAB
M  END
>  <Dataset>  (471) 
ChEMBL_Kinases

>  <Ligand_Instance>  (471) 
nan

>  <PDB_ID>  (471) 
nan

>  <Standardized_SMILES>  (471) 
Cc1c(C(=O)NCCCN(C)C)sc2ncnc(Nc3ccc(F)cc3OC(C)CN)c12

>  <Name>  (471) 
nan

>  <Pocket>  (471) 
nan

>  <ATP_Site>  (471) 
nan

>  <Peripheral>  (471) 
nan

>  <Num_H_Atoms_ProtBoundConf>  (471) 
nan

>  <Num_Resolved_Atoms>  (471) 
nan

>  <Num_Not_Resolved_Atoms>  (471) 
nan

$$$$
CHEMBL3698717
     RDKit          3D

  0  0  0  0  0  0  0  0  0  0999 V3000
M  V30 BEGIN CTAB
M  V30 COUNTS 58 63 0 0 0
M  V30 BEGIN ATOM
M  V30 1 C 3.070425 -2.655560 5.864346 0
M  V30 2 O 3.690782 -2.010716 4.833894 0
M  V30 3 C 4.688261 -2.658720 4.180625 0
M  V30 4 C 6.007588 -1.933762 4.107255 0
M  V30 5 C 6.222349 -1.768447 2.613253 0
M  V30 6 N 4.865159 -1.705830 2.055278 0
M  V30 7 C 4.128935 -0.871366 1.176496 0
M  V30 8 C 4.759615 -0.013931 0.296520 0
M  V30 9 N 3.995358 0.768031 -0.504687 0
M  V30 10 C 2.657175 0.704860 -0.438537 0
M  V30 11 N 1.717332 1.430081 -1.215212 0
M  V30 12 C 0.304366 1.408147 -1.114810 0
M  V30 13 N -0.073556 2.516441 -0.463263 0
M  V30 14 C -1.365383 2.827918 -0.179452 0
M  V30 15 C -2.350563 1.979111 -0.569502 0
M  V30 16 C -3.716497 1.878505 -0.506965 0
M  V30 17 C -4.616861 2.778835 0.072951 0
M  V30 18 C -5.972417 2.533262 0.051830 0
M  V30 19 N -6.352721 1.393455 -0.551810 0
M  V30 20 C -5.511599 0.521725 -1.110285 0
M  V30 21 C -4.159473 0.705381 -1.123761 0
M  V30 22 N -3.044907 0.076341 -1.570214 0
M  V30 23 C -3.072208 -1.183011 -2.259995 0
M  V30 24 C -3.387003 -2.339194 -1.338944 0
M  V30 25 C -4.448030 -3.179267 -1.995832 0
M  V30 26 C -4.863866 -2.482208 -3.271151 0
M  V30 27 C -3.994263 -1.259180 -3.426361 0
M  V30 28 C -1.970850 0.817240 -1.250112 0
M  V30 29 N -0.670948 0.542788 -1.514951 0
M  V30 30 C 2.030916 -0.168666 0.457787 0
M  V30 31 N 2.771191 -0.957801 1.266113 0
M  V30 32 C 4.402667 -2.914924 2.719229 0
M  V30 33 H 2.568725 -3.626515 5.576138 0
M  V30 34 H 2.194537 -1.998174 6.154662 0
M  V30 35 H 3.642855 -2.767847 6.788926 0
M  V30 36 H 4.847317 -3.664819 4.632891 0
M  V30 37 H 6.030077 -0.990355 4.669809 0
M  V30 38 H 6.807252 -2.581974 4.511718 0
M  V30 39 H 6.721726 -2.641784 2.163922 0
M  V30 40 H 6.798810 -0.868039 2.361163 0
M  V30 41 H 5.833993 0.053694 0.225546 0
M  V30 42 H 2.190064 2.037869 -1.932090 0
M  V30 43 H -1.723242 3.701089 0.338075 0
M  V30 44 H -4.286764 3.704302 0.558799 0
M  V30 45 H -6.646739 3.245012 0.504968 0
M  V30 46 H -5.879516 -0.374564 -1.577276 0
M  V30 47 H -2.032001 -1.393095 -2.638940 0
M  V30 48 H -3.699089 -1.975770 -0.317097 0
M  V30 49 H -2.517333 -2.994867 -1.132599 0
M  V30 50 H -5.348409 -3.153097 -1.311399 0
M  V30 51 H -4.195505 -4.234125 -2.122385 0
M  V30 52 H -4.765101 -3.203030 -4.087693 0
M  V30 53 H -5.924246 -2.136823 -3.231191 0
M  V30 54 H -3.445757 -1.406735 -4.400580 0
M  V30 55 H -4.597462 -0.335193 -3.608334 0
M  V30 56 H 0.957122 -0.289829 0.585185 0
M  V30 57 H 3.371725 -3.174052 2.485367 0
M  V30 58 H 5.100593 -3.748666 2.399942 0
M  V30 END ATOM
M  V30 BEGIN BOND
M  V30 1 1 1 2
M  V30 2 1 2 3
M  V30 3 1 3 4
M  V30 4 1 4 5
M  V30 5 1 5 6
M  V30 6 1 6 7
M  V30 7 2 7 8
M  V30 8 1 8 9
M  V30 9 2 9 10
M  V30 10 1 10 11
M  V30 11 1 11 12
M  V30 12 2 12 13
M  V30 13 1 13 14
M  V30 14 2 14 15
M  V30 15 1 15 16
M  V30 16 2 16 17
M  V30 17 1 17 18
M  V30 18 2 18 19
M  V30 19 1 19 20
M  V30 20 2 20 21
M  V30 21 1 21 22
M  V30 22 1 22 23
M  V30 23 1 23 24
M  V30 24 1 24 25
M  V30 25 1 25 26
M  V30 26 1 26 27
M  V30 27 1 22 28
M  V30 28 2 28 29
M  V30 29 1 10 30
M  V30 30 2 30 31
M  V30 31 1 6 32
M  V30 32 1 32 3
M  V30 33 1 31 7
M  V30 34 1 29 12
M  V30 35 1 28 15
M  V30 36 1 21 16
M  V30 37 1 27 23
M  V30 38 1 1 33
M  V30 39 1 1 34
M  V30 40 1 1 35
M  V30 41 1 3 36
M  V30 42 1 4 37
M  V30 43 1 4 38
M  V30 44 1 5 39
M  V30 45 1 5 40
M  V30 46 1 8 41
M  V30 47 1 11 42
M  V30 48 1 14 43
M  V30 49 1 17 44
M  V30 50 1 18 45
M  V30 51 1 20 46
M  V30 52 1 23 47
M  V30 53 1 24 48
M  V30 54 1 24 49
M  V30 55 1 25 50
M  V30 56 1 25 51
M  V30 57 1 26 52
M  V30 58 1 26 53
M  V30 59 1 27 54
M  V30 60 1 27 55
M  V30 61 1 30 56
M  V30 62 1 32 57
M  V30 63 1 32 58
M  V30 END BOND
M  V30 END CTAB
M  END
>  <Dataset>  (472) 
ChEMBL_Kinases

>  <Ligand_Instance>  (472) 
nan

>  <PDB_ID>  (472) 
nan

>  <Standardized_SMILES>  (472) 
COC1CCN(c2cnc(Nc3ncc4c5ccncc5n(C5CCCC5)c4n3)cn2)C1

>  <Name>  (472) 
nan

>  <Pocket>  (472) 
nan

>  <ATP_Site>  (472) 
nan

>  <Peripheral>  (472) 
nan

>  <Num_H_Atoms_ProtBoundConf>  (472) 
nan

>  <Num_Resolved_Atoms>  (472) 
nan

>  <Num_Not_Resolved_Atoms>  (472) 
nan

$$$$
CHEMBL3698718
     RDKit          3D

  0  0  0  0  0  0  0  0  0  0999 V3000
M  V30 BEGIN CTAB
M  V30 COUNTS 57 62 0 0 0
M  V30 BEGIN ATOM
M  V30 1 C 1.690890 -5.179791 5.477000 0
M  V30 2 C 2.454078 -4.252005 4.566839 0
M  V30 3 C 3.914278 -4.604590 4.438395 0
M  V30 4 C 4.095039 -4.602856 2.914369 0
M  V30 5 N 3.063403 -3.711150 2.419746 0
M  V30 6 C 2.996134 -2.571615 1.578840 0
M  V30 7 C 4.054748 -2.063979 0.870953 0
M  V30 8 N 3.894408 -0.969182 0.105776 0
M  V30 9 C 2.677109 -0.356380 0.028132 0
M  V30 10 N 2.409566 0.805931 -0.758594 0
M  V30 11 C 1.145364 1.439318 -0.822856 0
M  V30 12 N 1.272521 2.743305 -0.514561 0
M  V30 13 C 0.199828 3.579159 -0.499316 0
M  V30 14 C -1.003437 2.991582 -0.819596 0
M  V30 15 C -2.269556 3.551754 -0.891307 0
M  V30 16 C -2.714979 4.850636 -0.669956 0
M  V30 17 C -4.052682 5.150241 -0.807811 0
M  V30 18 N -4.911282 4.169079 -1.158168 0
M  V30 19 C -4.457879 2.912868 -1.368840 0
M  V30 20 C -3.125717 2.532788 -1.249931 0
M  V30 21 N -2.457639 1.377139 -1.402813 0
M  V30 22 C -3.029621 0.122065 -1.771270 0
M  V30 23 C -2.039721 -1.005703 -1.798314 0
M  V30 24 C -2.851937 -2.111556 -2.476526 0
M  V30 25 C -3.963314 -1.415238 -3.227331 0
M  V30 26 C -3.567937 0.067970 -3.185593 0
M  V30 27 C -1.168197 1.655705 -1.141247 0
M  V30 28 N -0.039267 0.884852 -1.132907 0
M  V30 29 C 1.615437 -0.861483 0.734454 0
M  V30 30 N 1.805172 -1.961073 1.494679 0
M  V30 31 C 1.999570 -4.400395 3.110360 0
M  V30 32 H 0.613007 -5.056779 5.197244 0
M  V30 33 H 1.974174 -6.233129 5.331696 0
M  V30 34 H 1.787740 -4.809199 6.509197 0
M  V30 35 H 2.274691 -3.200865 4.908175 0
M  V30 36 H 4.049105 -5.638407 4.773113 0
M  V30 37 H 4.574734 -3.861637 4.927775 0
M  V30 38 H 4.027575 -5.627803 2.501371 0
M  V30 39 H 5.105848 -4.226401 2.724873 0
M  V30 40 H 5.016044 -2.552677 0.933380 0
M  V30 41 H 3.246022 1.160931 -1.299053 0
M  V30 42 H 0.247751 4.638628 -0.257372 0
M  V30 43 H -2.027873 5.656858 -0.386598 0
M  V30 44 H -4.359087 6.161233 -0.631182 0
M  V30 45 H -5.214873 2.187758 -1.644921 0
M  V30 46 H -3.861486 -0.131056 -1.101131 0
M  V30 47 H -1.684013 -1.300329 -0.799511 0
M  V30 48 H -1.207940 -0.794947 -2.510842 0
M  V30 49 H -2.236354 -2.670236 -3.213805 0
M  V30 50 H -3.284981 -2.787463 -1.696284 0
M  V30 51 H -4.889338 -1.477255 -2.583868 0
M  V30 52 H -4.134361 -1.782582 -4.241368 0
M  V30 53 H -4.425836 0.717646 -3.358116 0
M  V30 54 H -2.775568 0.211711 -3.954529 0
M  V30 55 H 0.603079 -0.434036 0.729384 0
M  V30 56 H 2.004722 -5.482434 2.862576 0
M  V30 57 H 1.004851 -3.948676 2.928281 0
M  V30 END ATOM
M  V30 BEGIN BOND
M  V30 1 1 1 2
M  V30 2 1 2 3
M  V30 3 1 3 4
M  V30 4 1 4 5
M  V30 5 1 5 6
M  V30 6 2 6 7
M  V30 7 1 7 8
M  V30 8 2 8 9
M  V30 9 1 9 10
M  V30 10 1 10 11
M  V30 11 2 11 12
M  V30 12 1 12 13
M  V30 13 2 13 14
M  V30 14 1 14 15
M  V30 15 2 15 16
M  V30 16 1 16 17
M  V30 17 2 17 18
M  V30 18 1 18 19
M  V30 19 2 19 20
M  V30 20 1 20 21
M  V30 21 1 21 22
M  V30 22 1 22 23
M  V30 23 1 23 24
M  V30 24 1 24 25
M  V30 25 1 25 26
M  V30 26 1 21 27
M  V30 27 2 27 28
M  V30 28 1 9 29
M  V30 29 2 29 30
M  V30 30 1 5 31
M  V30 31 1 31 2
M  V30 32 1 30 6
M  V30 33 1 28 11
M  V30 34 1 27 14
M  V30 35 1 20 15
M  V30 36 1 26 22
M  V30 37 1 1 32
M  V30 38 1 1 33
M  V30 39 1 1 34
M  V30 40 1 2 35
M  V30 41 1 3 36
M  V30 42 1 3 37
M  V30 43 1 4 38
M  V30 44 1 4 39
M  V30 45 1 7 40
M  V30 46 1 10 41
M  V30 47 1 13 42
M  V30 48 1 16 43
M  V30 49 1 17 44
M  V30 50 1 19 45
M  V30 51 1 22 46
M  V30 52 1 23 47
M  V30 53 1 23 48
M  V30 54 1 24 49
M  V30 55 1 24 50
M  V30 56 1 25 51
M  V30 57 1 25 52
M  V30 58 1 26 53
M  V30 59 1 26 54
M  V30 60 1 29 55
M  V30 61 1 31 56
M  V30 62 1 31 57
M  V30 END BOND
M  V30 END CTAB
M  END
>  <Dataset>  (473) 
ChEMBL_Kinases

>  <Ligand_Instance>  (473) 
nan

>  <PDB_ID>  (473) 
nan

>  <Standardized_SMILES>  (473) 
CC1CCN(c2cnc(Nc3ncc4c5ccncc5n(C5CCCC5)c4n3)cn2)C1

>  <Name>  (473) 
nan

>  <Pocket>  (473) 
nan

>  <ATP_Site>  (473) 
nan

>  <Peripheral>  (473) 
nan

>  <Num_H_Atoms_ProtBoundConf>  (473) 
nan

>  <Num_Resolved_Atoms>  (473) 
nan

>  <Num_Not_Resolved_Atoms>  (473) 
nan

$$$$
CHEMBL3698719
     RDKit          3D

  0  0  0  0  0  0  0  0  0  0999 V3000
M  V30 BEGIN CTAB
M  V30 COUNTS 56 61 0 0 0
M  V30 BEGIN ATOM
M  V30 1 N 1.592217 -6.599978 3.478545 0
M  V30 2 C 2.247270 -5.349704 3.181305 0 CFG=1
M  V30 3 C 3.721841 -5.469631 2.978586 0
M  V30 4 C 3.944787 -4.989583 1.569396 0
M  V30 5 N 2.855161 -4.106124 1.296653 0
M  V30 6 C 2.794788 -2.836553 0.639909 0
M  V30 7 C 1.648243 -2.065754 0.827188 0
M  V30 8 N 1.514195 -0.844456 0.209945 0
M  V30 9 C 2.518820 -0.378291 -0.599017 0
M  V30 10 N 2.337915 0.923268 -1.209468 0
M  V30 11 C 1.126647 1.583091 -0.862938 0
M  V30 12 N 1.421329 2.840738 -0.420911 0
M  V30 13 C 0.464404 3.704907 -0.002712 0
M  V30 14 C -0.843690 3.264478 -0.038740 0
M  V30 15 C -2.003491 3.917938 0.324539 0
M  V30 16 C -2.332107 5.180120 0.835009 0
M  V30 17 C -3.652047 5.547899 1.110014 0
M  V30 18 N -4.613167 4.620371 0.858764 0
M  V30 19 C -4.303806 3.395481 0.364425 0
M  V30 20 C -3.001328 3.030529 0.092373 0
M  V30 21 N -2.478313 1.870018 -0.397284 0
M  V30 22 C -3.148213 0.663811 -0.784118 0
M  V30 23 C -2.679421 -0.455193 0.115847 0
M  V30 24 C -2.326676 -1.611892 -0.759562 0
M  V30 25 C -3.002091 -1.305524 -2.054050 0
M  V30 26 C -3.040118 0.225167 -2.173664 0
M  V30 27 C -1.151089 1.973485 -0.492573 0
M  V30 28 N -0.148505 1.158830 -0.897032 0
M  V30 29 C 3.645671 -1.146945 -0.777325 0
M  V30 30 N 3.759687 -2.350184 -0.158989 0
M  V30 31 C 1.739209 -4.844571 1.846134 0
M  V30 32 H 0.851424 -6.808102 2.772434 0
M  V30 33 H 1.157513 -6.568750 4.424969 0
M  V30 34 H 1.962218 -4.611444 3.963744 0
M  V30 35 H 4.259900 -4.851870 3.731387 0
M  V30 36 H 4.011024 -6.546472 3.071227 0
M  V30 37 H 3.956688 -5.841029 0.855215 0
M  V30 38 H 4.918238 -4.439969 1.560298 0
M  V30 39 H 0.790401 -2.286426 1.420477 0
M  V30 40 H 3.069904 1.296780 -1.844178 0
M  V30 41 H 0.685678 4.710608 0.351705 0
M  V30 42 H -1.527236 5.846813 1.004004 0
M  V30 43 H -3.859618 6.532597 1.502326 0
M  V30 44 H -5.086783 2.647707 0.164460 0
M  V30 45 H -4.239708 0.813102 -0.522356 0
M  V30 46 H -3.399687 -0.724311 0.915513 0
M  V30 47 H -1.734568 -0.147920 0.650061 0
M  V30 48 H -1.229147 -1.723304 -0.908169 0
M  V30 49 H -2.767111 -2.533637 -0.302922 0
M  V30 50 H -4.050871 -1.717385 -2.034056 0
M  V30 51 H -2.482410 -1.715602 -2.924088 0
M  V30 52 H -2.191162 0.593572 -2.771792 0
M  V30 53 H -3.950908 0.432394 -2.770929 0
M  V30 54 H 4.452493 -0.774904 -1.426858 0
M  V30 55 H 0.849470 -4.204084 1.955320 0
M  V30 56 H 1.569646 -5.729977 1.184803 0
M  V30 END ATOM
M  V30 BEGIN BOND
M  V30 1 1 1 2
M  V30 2 1 2 3
M  V30 3 1 3 4
M  V30 4 1 4 5
M  V30 5 1 5 6
M  V30 6 2 6 7
M  V30 7 1 7 8
M  V30 8 2 8 9
M  V30 9 1 9 10
M  V30 10 1 10 11
M  V30 11 2 11 12
M  V30 12 1 12 13
M  V30 13 2 13 14
M  V30 14 1 14 15
M  V30 15 2 15 16
M  V30 16 1 16 17
M  V30 17 2 17 18
M  V30 18 1 18 19
M  V30 19 2 19 20
M  V30 20 1 20 21
M  V30 21 1 21 22
M  V30 22 1 22 23
M  V30 23 1 23 24
M  V30 24 1 24 25
M  V30 25 1 25 26
M  V30 26 1 21 27
M  V30 27 2 27 28
M  V30 28 1 9 29
M  V30 29 2 29 30
M  V30 30 1 5 31
M  V30 31 1 31 2
M  V30 32 1 30 6
M  V30 33 1 28 11
M  V30 34 1 27 14
M  V30 35 1 20 15
M  V30 36 1 26 22
M  V30 37 1 1 32
M  V30 38 1 1 33
M  V30 39 1 2 34 CFG=1
M  V30 40 1 3 35
M  V30 41 1 3 36
M  V30 42 1 4 37
M  V30 43 1 4 38
M  V30 44 1 7 39
M  V30 45 1 10 40
M  V30 46 1 13 41
M  V30 47 1 16 42
M  V30 48 1 17 43
M  V30 49 1 19 44
M  V30 50 1 22 45
M  V30 51 1 23 46
M  V30 52 1 23 47
M  V30 53 1 24 48
M  V30 54 1 24 49
M  V30 55 1 25 50
M  V30 56 1 25 51
M  V30 57 1 26 52
M  V30 58 1 26 53
M  V30 59 1 29 54
M  V30 60 1 31 55
M  V30 61 1 31 56
M  V30 END BOND
M  V30 END CTAB
M  END
>  <Dataset>  (474) 
ChEMBL_Kinases

>  <Ligand_Instance>  (474) 
nan

>  <PDB_ID>  (474) 
nan

>  <Standardized_SMILES>  (474) 
N[C@H]1CCN(c2cnc(Nc3ncc4c5ccncc5n(C5CCCC5)c4n3)cn2)C1

>  <Name>  (474) 
nan

>  <Pocket>  (474) 
nan

>  <ATP_Site>  (474) 
nan

>  <Peripheral>  (474) 
nan

>  <Num_H_Atoms_ProtBoundConf>  (474) 
nan

>  <Num_Resolved_Atoms>  (474) 
nan

>  <Num_Not_Resolved_Atoms>  (474) 
nan

$$$$
CHEMBL3698720
     RDKit          3D

  0  0  0  0  0  0  0  0  0  0999 V3000
M  V30 BEGIN CTAB
M  V30 COUNTS 56 61 0 0 0
M  V30 BEGIN ATOM
M  V30 1 N 2.797849 -2.717364 5.332779 0
M  V30 2 C 3.432943 -3.787333 4.620047 0 CFG=2
M  V30 3 C 4.904380 -3.506056 4.336293 0
M  V30 4 C 5.007811 -3.789911 2.834925 0
M  V30 5 N 3.773582 -3.209564 2.349158 0
M  V30 6 C 3.389090 -2.276785 1.354803 0
M  V30 7 C 4.190815 -1.860919 0.311770 0
M  V30 8 N 3.695135 -0.964305 -0.551381 0
M  V30 9 C 2.476919 -0.419437 -0.505708 0
M  V30 10 N 1.913276 0.517096 -1.414174 0
M  V30 11 C 0.600229 1.045511 -1.209916 0
M  V30 12 N 0.750850 2.281656 -0.683620 0
M  V30 13 C -0.322575 3.062408 -0.360641 0
M  V30 14 C -1.566670 2.549851 -0.587979 0
M  V30 15 C -2.855849 3.019960 -0.396722 0
M  V30 16 C -3.349461 4.214598 0.105130 0
M  V30 17 C -4.739296 4.329181 0.144152 0
M  V30 18 N -5.601071 3.403417 -0.252902 0
M  V30 19 C -5.057512 2.247403 -0.738478 0
M  V30 20 C -3.688653 2.033904 -0.819478 0
M  V30 21 N -3.004936 0.942831 -1.277557 0
M  V30 22 C -3.572389 -0.261720 -1.778565 0
M  V30 23 C -3.342752 -1.392494 -0.776105 0
M  V30 24 C -2.966356 -2.599529 -1.627306 0
M  V30 25 C -3.526763 -2.233173 -2.972797 0
M  V30 26 C -3.061747 -0.771236 -3.070325 0
M  V30 27 C -1.716590 1.278165 -1.128469 0
M  V30 28 N -0.638778 0.535609 -1.435752 0
M  V30 29 C 1.675756 -0.849785 0.557152 0
M  V30 30 N 2.147776 -1.745893 1.434131 0
M  V30 31 C 2.838509 -3.918983 3.235880 0
M  V30 32 H 3.263337 -1.808876 5.125814 0
M  V30 33 H 2.765429 -2.977476 6.335020 0
M  V30 34 H 3.333556 -4.744172 5.192211 0
M  V30 35 H 5.108398 -2.457921 4.572504 0
M  V30 36 H 5.569781 -4.168793 4.907863 0
M  V30 37 H 5.011203 -4.890734 2.689717 0
M  V30 38 H 5.899824 -3.286892 2.407283 0
M  V30 39 H 5.176745 -2.264805 0.223505 0
M  V30 40 H 2.510192 0.798644 -2.236693 0
M  V30 41 H -0.277324 4.055699 0.060203 0
M  V30 42 H -2.674823 4.983792 0.434493 0
M  V30 43 H -5.122523 5.272296 0.540521 0
M  V30 44 H -5.783964 1.486210 -1.064887 0
M  V30 45 H -4.679174 -0.124840 -1.894598 0
M  V30 46 H -4.242258 -1.565967 -0.159992 0
M  V30 47 H -2.522522 -1.081810 -0.098591 0
M  V30 48 H -1.864815 -2.585151 -1.683742 0
M  V30 49 H -3.375047 -3.537135 -1.210238 0
M  V30 50 H -4.628369 -2.162289 -2.862930 0
M  V30 51 H -3.176167 -2.846265 -3.810844 0
M  V30 52 H -1.968180 -0.818625 -3.177697 0
M  V30 53 H -3.564258 -0.361104 -3.979150 0
M  V30 54 H 0.658628 -0.438764 0.656487 0
M  V30 55 H 2.773129 -4.999858 2.958040 0
M  V30 56 H 1.849184 -3.438133 3.170203 0
M  V30 END ATOM
M  V30 BEGIN BOND
M  V30 1 1 1 2
M  V30 2 1 2 3
M  V30 3 1 3 4
M  V30 4 1 4 5
M  V30 5 1 5 6
M  V30 6 2 6 7
M  V30 7 1 7 8
M  V30 8 2 8 9
M  V30 9 1 9 10
M  V30 10 1 10 11
M  V30 11 2 11 12
M  V30 12 1 12 13
M  V30 13 2 13 14
M  V30 14 1 14 15
M  V30 15 2 15 16
M  V30 16 1 16 17
M  V30 17 2 17 18
M  V30 18 1 18 19
M  V30 19 2 19 20
M  V30 20 1 20 21
M  V30 21 1 21 22
M  V30 22 1 22 23
M  V30 23 1 23 24
M  V30 24 1 24 25
M  V30 25 1 25 26
M  V30 26 1 21 27
M  V30 27 2 27 28
M  V30 28 1 9 29
M  V30 29 2 29 30
M  V30 30 1 5 31
M  V30 31 1 31 2
M  V30 32 1 30 6
M  V30 33 1 28 11
M  V30 34 1 27 14
M  V30 35 1 20 15
M  V30 36 1 26 22
M  V30 37 1 1 32
M  V30 38 1 1 33
M  V30 39 1 2 34 CFG=1
M  V30 40 1 3 35
M  V30 41 1 3 36
M  V30 42 1 4 37
M  V30 43 1 4 38
M  V30 44 1 7 39
M  V30 45 1 10 40
M  V30 46 1 13 41
M  V30 47 1 16 42
M  V30 48 1 17 43
M  V30 49 1 19 44
M  V30 50 1 22 45
M  V30 51 1 23 46
M  V30 52 1 23 47
M  V30 53 1 24 48
M  V30 54 1 24 49
M  V30 55 1 25 50
M  V30 56 1 25 51
M  V30 57 1 26 52
M  V30 58 1 26 53
M  V30 59 1 29 54
M  V30 60 1 31 55
M  V30 61 1 31 56
M  V30 END BOND
M  V30 END CTAB
M  END
>  <Dataset>  (475) 
ChEMBL_Kinases

>  <Ligand_Instance>  (475) 
nan

>  <PDB_ID>  (475) 
nan

>  <Standardized_SMILES>  (475) 
N[C@@H]1CCN(c2cnc(Nc3ncc4c5ccncc5n(C5CCCC5)c4n3)cn2)C1

>  <Name>  (475) 
nan

>  <Pocket>  (475) 
nan

>  <ATP_Site>  (475) 
nan

>  <Peripheral>  (475) 
nan

>  <Num_H_Atoms_ProtBoundConf>  (475) 
nan

>  <Num_Resolved_Atoms>  (475) 
nan

>  <Num_Not_Resolved_Atoms>  (475) 
nan

$$$$
CHEMBL3698725
     RDKit          3D

  0  0  0  0  0  0  0  0  0  0999 V3000
M  V30 BEGIN CTAB
M  V30 COUNTS 62 67 0 0 0
M  V30 BEGIN ATOM
M  V30 1 N 5.967082 -0.702401 4.692568 0
M  V30 2 C 5.426165 -1.403621 3.572692 0
M  V30 3 C 4.848570 -0.524585 2.496568 0
M  V30 4 C 5.823205 0.428947 1.886697 0
M  V30 5 C 5.698489 1.817591 2.492811 0
M  V30 6 C 4.330070 2.407710 2.336831 0
M  V30 7 N 3.340626 1.376589 2.202511 0
M  V30 8 C 2.203021 1.430898 1.353655 0
M  V30 9 C 1.237144 0.463626 1.180546 0
M  V30 10 C 0.218172 0.743196 0.296326 0
M  V30 11 C 0.099937 1.909937 -0.418478 0
M  V30 12 N -0.933114 2.225621 -1.332791 0
M  V30 13 C -2.054677 1.450745 -1.722174 0
M  V30 14 N -2.938344 1.932335 -2.618041 0
M  V30 15 C -4.005588 1.226958 -3.006484 0
M  V30 16 C -4.270129 -0.029214 -2.520119 0
M  V30 17 C -5.222816 -0.996497 -2.684910 0
M  V30 18 C -6.343645 -1.002585 -3.488608 0
M  V30 19 C -7.163119 -2.121179 -3.475978 0
M  V30 20 N -6.827722 -3.162012 -2.673705 0
M  V30 21 C -5.728797 -3.128372 -1.900561 0
M  V30 22 C -4.865288 -2.045060 -1.862487 0
M  V30 23 N -3.721264 -1.765304 -1.189542 0
M  V30 24 C -3.054643 -2.612147 -0.254775 0
M  V30 25 C -2.497301 -3.890132 -0.796560 0
M  V30 26 C -1.972777 -4.514847 0.494226 0
M  V30 27 C -2.880739 -4.035184 1.600263 0
M  V30 28 C -3.779174 -2.952022 0.992116 0
M  V30 29 C -3.380279 -0.511917 -1.619235 0
M  V30 30 N -2.323779 0.224994 -1.255545 0
M  V30 31 N 1.083061 2.793949 -0.188126 0
M  V30 32 N 2.077163 2.568159 0.649238 0
M  V30 33 C 3.680889 0.246449 3.079462 0
M  V30 34 H 5.273400 -0.276899 5.308680 0
M  V30 35 H 6.860510 -0.223411 4.554734 0
M  V30 36 H 4.579367 -2.031112 3.953936 0
M  V30 37 H 6.142118 -2.139575 3.144831 0
M  V30 38 H 4.423614 -1.235982 1.730697 0
M  V30 39 H 6.871441 0.130265 1.971350 0
M  V30 40 H 5.564830 0.530142 0.810907 0
M  V30 41 H 6.479476 2.437836 1.998923 0
M  V30 42 H 5.952095 1.757908 3.555579 0
M  V30 43 H 4.273616 3.119483 1.472241 0
M  V30 44 H 4.094123 2.995193 3.268859 0
M  V30 45 H 1.350580 -0.427453 1.742559 0
M  V30 46 H -0.516404 -0.024837 0.181488 0
M  V30 47 H -0.859292 3.180904 -1.795146 0
M  V30 48 H -4.694655 1.661397 -3.737313 0
M  V30 49 H -6.568715 -0.146775 -4.111787 0
M  V30 50 H -8.064097 -2.152230 -4.107466 0
M  V30 51 H -5.515299 -3.978395 -1.288626 0
M  V30 52 H -2.138620 -2.041308 0.085682 0
M  V30 53 H -3.202822 -4.597197 -1.216283 0
M  V30 54 H -1.668782 -3.746929 -1.520212 0
M  V30 55 H -1.869808 -5.597220 0.435400 0
M  V30 56 H -0.955498 -4.054592 0.643771 0
M  V30 57 H -2.318166 -3.591292 2.451965 0
M  V30 58 H -3.450450 -4.888903 1.974586 0
M  V30 59 H -4.762356 -3.395626 0.910361 0
M  V30 60 H -3.868531 -2.090159 1.692423 0
M  V30 61 H 2.822898 -0.452079 3.146567 0
M  V30 62 H 3.893846 0.605981 4.106615 0
M  V30 END ATOM
M  V30 BEGIN BOND
M  V30 1 1 1 2
M  V30 2 1 2 3
M  V30 3 1 3 4
M  V30 4 1 4 5
M  V30 5 1 5 6
M  V30 6 1 6 7
M  V30 7 1 7 8
M  V30 8 2 8 9
M  V30 9 1 9 10
M  V30 10 2 10 11
M  V30 11 1 11 12
M  V30 12 1 12 13
M  V30 13 2 13 14
M  V30 14 1 14 15
M  V30 15 2 15 16
M  V30 16 1 16 17
M  V30 17 2 17 18
M  V30 18 1 18 19
M  V30 19 2 19 20
M  V30 20 1 20 21
M  V30 21 2 21 22
M  V30 22 1 22 23
M  V30 23 1 23 24
M  V30 24 1 24 25
M  V30 25 1 25 26
M  V30 26 1 26 27
M  V30 27 1 27 28
M  V30 28 1 23 29
M  V30 29 2 29 30
M  V30 30 1 11 31
M  V30 31 2 31 32
M  V30 32 1 7 33
M  V30 33 1 33 3
M  V30 34 1 32 8
M  V30 35 1 30 13
M  V30 36 1 29 16
M  V30 37 1 22 17
M  V30 38 1 28 24
M  V30 39 1 1 34
M  V30 40 1 1 35
M  V30 41 1 2 36
M  V30 42 1 2 37
M  V30 43 1 3 38
M  V30 44 1 4 39
M  V30 45 1 4 40
M  V30 46 1 5 41
M  V30 47 1 5 42
M  V30 48 1 6 43
M  V30 49 1 6 44
M  V30 50 1 9 45
M  V30 51 1 10 46
M  V30 52 1 12 47
M  V30 53 1 15 48
M  V30 54 1 18 49
M  V30 55 1 19 50
M  V30 56 1 21 51
M  V30 57 1 24 52
M  V30 58 1 25 53
M  V30 59 1 25 54
M  V30 60 1 26 55
M  V30 61 1 26 56
M  V30 62 1 27 57
M  V30 63 1 27 58
M  V30 64 1 28 59
M  V30 65 1 28 60
M  V30 66 1 33 61
M  V30 67 1 33 62
M  V30 END BOND
M  V30 END CTAB
M  END
>  <Dataset>  (476) 
ChEMBL_Kinases

>  <Ligand_Instance>  (476) 
nan

>  <PDB_ID>  (476) 
nan

>  <Standardized_SMILES>  (476) 
NCC1CCCN(c2ccc(Nc3ncc4c5ccncc5n(C5CCCC5)c4n3)nn2)C1

>  <Name>  (476) 
nan

>  <Pocket>  (476) 
nan

>  <ATP_Site>  (476) 
nan

>  <Peripheral>  (476) 
nan

>  <Num_H_Atoms_ProtBoundConf>  (476) 
nan

>  <Num_Resolved_Atoms>  (476) 
nan

>  <Num_Not_Resolved_Atoms>  (476) 
nan

$$$$
CHEMBL3698729
     RDKit          3D

  0  0  0  0  0  0  0  0  0  0999 V3000
M  V30 BEGIN CTAB
M  V30 COUNTS 62 67 0 0 0
M  V30 BEGIN ATOM
M  V30 1 C 1.692684 -4.567650 7.612688 0
M  V30 2 C 2.317168 -3.507589 6.957349 0
M  V30 3 C 1.822939 -3.039605 5.757683 0
M  V30 4 C 2.289774 -2.013155 4.963775 0
M  V30 5 C 3.353652 -1.172640 5.116415 0
M  V30 6 N 3.541491 -0.264657 4.148227 0
M  V30 7 C 2.705848 -0.193288 3.069600 0
M  V30 8 N 2.990894 0.804241 2.079456 0
M  V30 9 C 2.179732 1.015093 0.915019 0
M  V30 10 C 2.530583 1.996649 -0.025841 0
M  V30 11 C 1.746307 2.201493 -1.142449 0
M  V30 12 C 0.623829 1.399704 -1.270924 0
M  V30 13 N -0.258390 1.511622 -2.375534 0
M  V30 14 C -0.607435 1.008680 -3.664961 0
M  V30 15 C -1.752039 1.727913 -4.311192 0
M  V30 16 C -3.038899 1.695420 -3.551822 0
M  V30 17 C -4.133300 1.997649 -4.575739 0
M  V30 18 C -3.569135 2.544423 -5.857010 0
M  V30 19 C -2.428065 3.513730 -5.662724 0
M  V30 20 N -1.472705 3.094236 -4.660244 0
M  V30 21 N 0.301766 0.457282 -0.351752 0
M  V30 22 N 1.067043 0.268248 0.723296 0
M  V30 23 N 1.667717 -1.039195 2.954962 0
M  V30 24 C 1.421402 -1.974423 3.889700 0
M  V30 25 N 0.451369 -2.930240 3.996666 0
M  V30 26 C -0.632489 -3.240704 3.121672 0
M  V30 27 C -0.539898 -2.608248 1.766901 0
M  V30 28 C -1.072721 -3.647401 0.790777 0
M  V30 29 C -0.627747 -4.975174 1.378396 0
M  V30 30 C -0.647691 -4.717183 2.844856 0
M  V30 31 C 0.712482 -3.570826 5.143991 0
M  V30 32 C 0.139672 -4.613608 5.838226 0
M  V30 33 N 0.599130 -5.101218 7.022281 0
M  V30 34 H 2.045263 -4.965148 8.551511 0
M  V30 35 H 3.187794 -3.104000 7.454570 0
M  V30 36 H 4.015828 -1.223548 5.966350 0
M  V30 37 H 3.813212 1.412479 2.185704 0
M  V30 38 H 3.436668 2.592793 0.146133 0
M  V30 39 H 1.987799 2.940985 -1.877745 0
M  V30 40 H -0.856584 2.298105 -2.021062 0
M  V30 41 H -0.969395 -0.049546 -3.494396 0
M  V30 42 H 0.240586 0.975282 -4.346625 0
M  V30 43 H -1.929225 1.189796 -5.281327 0
M  V30 44 H -3.097800 2.565563 -2.831576 0
M  V30 45 H -3.227319 0.810423 -2.949589 0
M  V30 46 H -4.592810 1.003660 -4.803925 0
M  V30 47 H -4.897590 2.704700 -4.175689 0
M  V30 48 H -4.402201 3.142333 -6.331078 0
M  V30 49 H -3.353181 1.764303 -6.623922 0
M  V30 50 H -1.891421 3.604312 -6.625746 0
M  V30 51 H -2.860195 4.506159 -5.415590 0
M  V30 52 H -1.641299 3.679280 -3.811306 0
M  V30 53 H -1.620601 -2.997750 3.620803 0
M  V30 54 H -1.201520 -1.720462 1.739542 0
M  V30 55 H 0.461383 -2.361593 1.429344 0
M  V30 56 H -2.162538 -3.570872 0.688395 0
M  V30 57 H -0.611122 -3.566792 -0.211345 0
M  V30 58 H 0.394460 -5.192337 1.001417 0
M  V30 59 H -1.369796 -5.742607 1.046472 0
M  V30 60 H 0.223013 -5.245233 3.289519 0
M  V30 61 H -1.557872 -5.210970 3.249025 0
M  V30 62 H -0.739681 -5.121135 5.474097 0
M  V30 END ATOM
M  V30 BEGIN BOND
M  V30 1 2 1 2
M  V30 2 1 2 3
M  V30 3 1 3 4
M  V30 4 2 4 5
M  V30 5 1 5 6
M  V30 6 2 6 7
M  V30 7 1 7 8
M  V30 8 1 8 9
M  V30 9 2 9 10
M  V30 10 1 10 11
M  V30 11 2 11 12
M  V30 12 1 12 13
M  V30 13 1 13 14
M  V30 14 1 14 15
M  V30 15 1 15 16
M  V30 16 1 16 17
M  V30 17 1 17 18
M  V30 18 1 18 19
M  V30 19 1 19 20
M  V30 20 1 12 21
M  V30 21 2 21 22
M  V30 22 1 7 23
M  V30 23 2 23 24
M  V30 24 1 24 25
M  V30 25 1 25 26
M  V30 26 1 26 27
M  V30 27 1 27 28
M  V30 28 1 28 29
M  V30 29 1 29 30
M  V30 30 1 25 31
M  V30 31 1 31 32
M  V30 32 2 32 33
M  V30 33 1 33 1
M  V30 34 2 31 3
M  V30 35 1 24 4
M  V30 36 1 30 26
M  V30 37 1 22 9
M  V30 38 1 20 15
M  V30 39 1 1 34
M  V30 40 1 2 35
M  V30 41 1 5 36
M  V30 42 1 8 37
M  V30 43 1 10 38
M  V30 44 1 11 39
M  V30 45 1 13 40
M  V30 46 1 14 41
M  V30 47 1 14 42
M  V30 48 1 15 43
M  V30 49 1 16 44
M  V30 50 1 16 45
M  V30 51 1 17 46
M  V30 52 1 17 47
M  V30 53 1 18 48
M  V30 54 1 18 49
M  V30 55 1 19 50
M  V30 56 1 19 51
M  V30 57 1 20 52
M  V30 58 1 26 53
M  V30 59 1 27 54
M  V30 60 1 27 55
M  V30 61 1 28 56
M  V30 62 1 28 57
M  V30 63 1 29 58
M  V30 64 1 29 59
M  V30 65 1 30 60
M  V30 66 1 30 61
M  V30 67 1 32 62
M  V30 END BOND
M  V30 END CTAB
M  END
>  <Dataset>  (477) 
ChEMBL_Kinases

>  <Ligand_Instance>  (477) 
nan

>  <PDB_ID>  (477) 
nan

>  <Standardized_SMILES>  (477) 
c1cc2c3cnc(Nc4ccc(NCC5CCCCN5)nn4)nc3n(C3CCCC3)c2cn1

>  <Name>  (477) 
nan

>  <Pocket>  (477) 
nan

>  <ATP_Site>  (477) 
nan

>  <Peripheral>  (477) 
nan

>  <Num_H_Atoms_ProtBoundConf>  (477) 
nan

>  <Num_Resolved_Atoms>  (477) 
nan

>  <Num_Not_Resolved_Atoms>  (477) 
nan

$$$$
CHEMBL3698730
     RDKit          3D

  0  0  0  0  0  0  0  0  0  0999 V3000
M  V30 BEGIN CTAB
M  V30 COUNTS 60 65 0 0 0
M  V30 BEGIN ATOM
M  V30 1 C -3.868233 -4.826753 4.344169 0
M  V30 2 C -2.948172 -3.791347 4.462101 0
M  V30 3 C -1.879666 -3.753779 3.591830 0
M  V30 4 C -0.840910 -2.846375 3.503856 0
M  V30 5 C -0.439210 -1.696974 4.157551 0
M  V30 6 N 0.678487 -1.050007 3.775990 0
M  V30 7 C 1.471241 -1.456248 2.759710 0
M  V30 8 N 2.573213 -0.577417 2.585016 0
M  V30 9 C 2.455468 0.330525 1.486364 0
M  V30 10 C 1.328702 0.309061 0.656775 0
M  V30 11 C 1.266492 1.194620 -0.400204 0
M  V30 12 C 2.246377 2.116400 -0.707440 0
M  V30 13 N 2.149417 3.010026 -1.805863 0
M  V30 14 C 1.027167 3.119809 -2.665261 0
M  V30 15 C -0.222753 3.682813 -2.081280 0
M  V30 16 C -0.010770 5.119831 -1.568554 0
M  V30 17 O -1.251881 5.680724 -1.269892 0
M  V30 18 C -2.282808 4.767539 -1.239064 0
M  V30 19 C -2.479059 4.005583 -2.525709 0
M  V30 20 N -1.199245 3.859780 -3.172386 0
M  V30 21 N 3.279335 2.062958 0.137409 0
M  V30 22 N 3.421027 1.254705 1.165500 0
M  V30 23 N 1.088053 -2.576619 2.115846 0
M  V30 24 C -0.014138 -3.257088 2.454557 0
M  V30 25 N -0.531600 -4.378102 1.917702 0
M  V30 26 C 0.012174 -5.142794 0.783905 0
M  V30 27 C -0.318490 -4.492733 -0.533934 0
M  V30 28 C 0.971032 -4.257352 -1.251414 0
M  V30 29 C 2.088578 -4.773386 -0.387205 0
M  V30 30 C 1.491435 -5.294733 0.885831 0
M  V30 31 C -1.654232 -4.672537 2.606422 0
M  V30 32 C -2.594451 -5.677245 2.531518 0
M  V30 33 N -3.645467 -5.726965 3.377021 0
M  V30 34 H -4.735123 -4.932025 4.988767 0
M  V30 35 H -3.081005 -3.043502 5.223280 0
M  V30 36 H -1.080378 -1.381421 4.969390 0
M  V30 37 H 3.451474 -0.488157 3.126530 0
M  V30 38 H 0.540042 -0.402337 0.869696 0
M  V30 39 H 0.380478 1.092042 -0.974973 0
M  V30 40 H 2.992434 3.616363 -1.956644 0
M  V30 41 H 1.286218 3.779827 -3.539650 0
M  V30 42 H 0.744153 2.153626 -3.154158 0
M  V30 43 H -0.690387 3.139039 -1.271190 0
M  V30 44 H 0.405810 5.748254 -2.410091 0
M  V30 45 H 0.639065 5.169473 -0.702955 0
M  V30 46 H -3.215734 5.357334 -1.087768 0
M  V30 47 H -2.212568 4.113012 -0.340062 0
M  V30 48 H -2.828019 2.964792 -2.246820 0
M  V30 49 H -3.249164 4.425528 -3.187499 0
M  V30 50 H -1.146996 3.035988 -3.810224 0
M  V30 51 H -0.484709 -6.136403 0.797480 0
M  V30 52 H -1.042998 -5.094475 -1.118540 0
M  V30 53 H -0.781707 -3.495935 -0.298812 0
M  V30 54 H 0.914231 -4.825294 -2.219910 0
M  V30 55 H 1.156585 -3.194009 -1.513089 0
M  V30 56 H 2.621128 -5.582296 -0.960947 0
M  V30 57 H 2.827113 -3.967727 -0.139184 0
M  V30 58 H 1.746305 -6.386653 0.960189 0
M  V30 59 H 1.925088 -4.830066 1.793162 0
M  V30 60 H -2.491777 -6.445860 1.778023 0
M  V30 END ATOM
M  V30 BEGIN BOND
M  V30 1 2 1 2
M  V30 2 1 2 3
M  V30 3 1 3 4
M  V30 4 2 4 5
M  V30 5 1 5 6
M  V30 6 2 6 7
M  V30 7 1 7 8
M  V30 8 1 8 9
M  V30 9 2 9 10
M  V30 10 1 10 11
M  V30 11 2 11 12
M  V30 12 1 12 13
M  V30 13 1 13 14
M  V30 14 1 14 15
M  V30 15 1 15 16
M  V30 16 1 16 17
M  V30 17 1 17 18
M  V30 18 1 18 19
M  V30 19 1 19 20
M  V30 20 1 12 21
M  V30 21 2 21 22
M  V30 22 1 7 23
M  V30 23 2 23 24
M  V30 24 1 24 25
M  V30 25 1 25 26
M  V30 26 1 26 27
M  V30 27 1 27 28
M  V30 28 1 28 29
M  V30 29 1 29 30
M  V30 30 1 25 31
M  V30 31 1 31 32
M  V30 32 2 32 33
M  V30 33 1 33 1
M  V30 34 2 31 3
M  V30 35 1 24 4
M  V30 36 1 30 26
M  V30 37 1 22 9
M  V30 38 1 20 15
M  V30 39 1 1 34
M  V30 40 1 2 35
M  V30 41 1 5 36
M  V30 42 1 8 37
M  V30 43 1 10 38
M  V30 44 1 11 39
M  V30 45 1 13 40
M  V30 46 1 14 41
M  V30 47 1 14 42
M  V30 48 1 15 43
M  V30 49 1 16 44
M  V30 50 1 16 45
M  V30 51 1 18 46
M  V30 52 1 18 47
M  V30 53 1 19 48
M  V30 54 1 19 49
M  V30 55 1 20 50
M  V30 56 1 26 51
M  V30 57 1 27 52
M  V30 58 1 27 53
M  V30 59 1 28 54
M  V30 60 1 28 55
M  V30 61 1 29 56
M  V30 62 1 29 57
M  V30 63 1 30 58
M  V30 64 1 30 59
M  V30 65 1 32 60
M  V30 END BOND
M  V30 END CTAB
M  END
>  <Dataset>  (478) 
ChEMBL_Kinases

>  <Ligand_Instance>  (478) 
nan

>  <PDB_ID>  (478) 
nan

>  <Standardized_SMILES>  (478) 
c1cc2c3cnc(Nc4ccc(NCC5COCCN5)nn4)nc3n(C3CCCC3)c2cn1

>  <Name>  (478) 
nan

>  <Pocket>  (478) 
nan

>  <ATP_Site>  (478) 
nan

>  <Peripheral>  (478) 
nan

>  <Num_H_Atoms_ProtBoundConf>  (478) 
nan

>  <Num_Resolved_Atoms>  (478) 
nan

>  <Num_Not_Resolved_Atoms>  (478) 
nan

$$$$
CHEMBL3698740
     RDKit          3D

  0  0  0  0  0  0  0  0  0  0999 V3000
M  V30 BEGIN CTAB
M  V30 COUNTS 58 63 0 0 0
M  V30 BEGIN ATOM
M  V30 1 C 4.765849 -2.306894 4.853507 0
M  V30 2 O 5.250221 -2.818020 3.627040 0
M  V30 3 C 5.018720 -1.854337 2.670201 0
M  V30 4 C 6.215638 -1.434355 1.880323 0
M  V30 5 C 5.748867 -1.185925 0.441387 0
M  V30 6 N 4.310971 -1.279109 0.598267 0
M  V30 7 C 3.340315 -0.492401 -0.078610 0
M  V30 8 C 3.715054 0.470513 -0.989212 0
M  V30 9 C 2.769133 1.232030 -1.643220 0
M  V30 10 C 1.414885 1.052137 -1.404751 0
M  V30 11 N 0.399608 1.813508 -2.054872 0
M  V30 12 C -0.999670 1.662649 -1.841934 0
M  V30 13 N -1.861754 2.459651 -2.529921 0
M  V30 14 C -3.187760 2.337225 -2.346377 0
M  V30 15 C -3.673705 1.406450 -1.463253 0
M  V30 16 C -4.952398 1.061208 -1.075620 0
M  V30 17 C -6.154223 1.607915 -1.512972 0
M  V30 18 C -7.307073 1.094637 -0.975103 0
M  V30 19 N -7.242022 0.094762 -0.056221 0
M  V30 20 C -6.055006 -0.405646 0.339173 0
M  V30 21 C -4.837802 0.033913 -0.134446 0
M  V30 22 N -3.540356 -0.234762 0.042649 0
M  V30 23 C -3.037195 -1.239593 0.939887 0
M  V30 24 C -1.576821 -1.547464 0.757932 0
M  V30 25 C -1.416054 -3.018135 1.106474 0
M  V30 26 C -2.737630 -3.654311 0.728278 0
M  V30 27 C -3.729981 -2.554427 0.873328 0
M  V30 28 C -2.825442 0.584165 -0.751130 0
M  V30 29 N -1.519201 0.781311 -1.002538 0
M  V30 30 N 1.114818 0.097226 -0.505410 0
M  V30 31 N 2.021389 -0.640673 0.128805 0
M  V30 32 C 4.060239 -2.324947 1.574544 0
M  V30 33 H 3.681574 -2.090307 4.783380 0
M  V30 34 H 4.907560 -3.048168 5.674980 0
M  V30 35 H 5.257942 -1.346002 5.090799 0
M  V30 36 H 4.522957 -0.947194 3.106786 0
M  V30 37 H 7.023249 -2.183814 1.871544 0
M  V30 38 H 6.589658 -0.430484 2.238948 0
M  V30 39 H 6.100609 -1.974448 -0.251993 0
M  V30 40 H 6.074620 -0.202567 0.056420 0
M  V30 41 H 4.744600 0.668739 -1.227335 0
M  V30 42 H 3.080390 1.992125 -2.362895 0
M  V30 43 H 0.745248 2.529608 -2.734994 0
M  V30 44 H -3.863972 2.979232 -2.901524 0
M  V30 45 H -6.176925 2.390474 -2.233716 0
M  V30 46 H -8.281886 1.481736 -1.277997 0
M  V30 47 H -6.049468 -1.199434 1.073063 0
M  V30 48 H -3.137941 -0.847388 1.994871 0
M  V30 49 H -1.203526 -1.446766 -0.270275 0
M  V30 50 H -0.928437 -0.963766 1.440858 0
M  V30 51 H -1.175443 -3.186224 2.175761 0
M  V30 52 H -0.632534 -3.509993 0.489965 0
M  V30 53 H -2.904249 -4.531126 1.376331 0
M  V30 54 H -2.675879 -3.952013 -0.356356 0
M  V30 55 H -4.356110 -2.724477 1.800955 0
M  V30 56 H -4.447017 -2.636298 0.029399 0
M  V30 57 H 4.338997 -3.319087 1.172726 0
M  V30 58 H 3.018980 -2.338507 1.931362 0
M  V30 END ATOM
M  V30 BEGIN BOND
M  V30 1 1 1 2
M  V30 2 1 2 3
M  V30 3 1 3 4
M  V30 4 1 4 5
M  V30 5 1 5 6
M  V30 6 1 6 7
M  V30 7 2 7 8
M  V30 8 1 8 9
M  V30 9 2 9 10
M  V30 10 1 10 11
M  V30 11 1 11 12
M  V30 12 2 12 13
M  V30 13 1 13 14
M  V30 14 2 14 15
M  V30 15 1 15 16
M  V30 16 2 16 17
M  V30 17 1 17 18
M  V30 18 2 18 19
M  V30 19 1 19 20
M  V30 20 2 20 21
M  V30 21 1 21 22
M  V30 22 1 22 23
M  V30 23 1 23 24
M  V30 24 1 24 25
M  V30 25 1 25 26
M  V30 26 1 26 27
M  V30 27 1 22 28
M  V30 28 2 28 29
M  V30 29 1 10 30
M  V30 30 2 30 31
M  V30 31 1 6 32
M  V30 32 1 32 3
M  V30 33 1 31 7
M  V30 34 1 29 12
M  V30 35 1 28 15
M  V30 36 1 21 16
M  V30 37 1 27 23
M  V30 38 1 1 33
M  V30 39 1 1 34
M  V30 40 1 1 35
M  V30 41 1 3 36
M  V30 42 1 4 37
M  V30 43 1 4 38
M  V30 44 1 5 39
M  V30 45 1 5 40
M  V30 46 1 8 41
M  V30 47 1 9 42
M  V30 48 1 11 43
M  V30 49 1 14 44
M  V30 50 1 17 45
M  V30 51 1 18 46
M  V30 52 1 20 47
M  V30 53 1 23 48
M  V30 54 1 24 49
M  V30 55 1 24 50
M  V30 56 1 25 51
M  V30 57 1 25 52
M  V30 58 1 26 53
M  V30 59 1 26 54
M  V30 60 1 27 55
M  V30 61 1 27 56
M  V30 62 1 32 57
M  V30 63 1 32 58
M  V30 END BOND
M  V30 END CTAB
M  END
>  <Dataset>  (479) 
ChEMBL_Kinases

>  <Ligand_Instance>  (479) 
nan

>  <PDB_ID>  (479) 
nan

>  <Standardized_SMILES>  (479) 
COC1CCN(c2ccc(Nc3ncc4c5ccncc5n(C5CCCC5)c4n3)nn2)C1

>  <Name>  (479) 
nan

>  <Pocket>  (479) 
nan

>  <ATP_Site>  (479) 
nan

>  <Peripheral>  (479) 
nan

>  <Num_H_Atoms_ProtBoundConf>  (479) 
nan

>  <Num_Resolved_Atoms>  (479) 
nan

>  <Num_Not_Resolved_Atoms>  (479) 
nan

$$$$
CHEMBL3698912
     RDKit          3D

  0  0  0  0  0  0  0  0  0  0999 V3000
M  V30 BEGIN CTAB
M  V30 COUNTS 46 48 0 0 0
M  V30 BEGIN ATOM
M  V30 1 C -1.258051 -5.326318 3.003196 0
M  V30 2 O -0.999213 -4.382595 2.010089 0
M  V30 3 C -0.119273 -4.502531 0.958610 0
M  V30 4 O 0.570352 -5.534819 0.793097 0
M  V30 5 C 0.032593 -3.424390 0.003411 0
M  V30 6 S 1.145091 -3.592297 -1.330648 0
M  V30 7 C 0.779121 -1.913556 -2.046166 0
M  V30 8 N 1.268783 -1.262442 -3.161717 0
M  V30 9 C 0.827317 -0.042747 -3.465533 0
M  V30 10 N -0.072421 0.438532 -2.630640 0
M  V30 11 C -0.564244 -0.145128 -1.560276 0
M  V30 12 N -1.525413 0.647237 -0.879879 0
M  V30 13 C -0.901958 1.757952 -0.195178 0
M  V30 14 C -1.488003 2.929540 -0.701176 0
M  V30 15 C -1.108474 4.187123 -0.261637 0
M  V30 16 C -0.133750 4.296397 0.694332 0
M  V30 17 F 0.351186 5.440733 1.230726 0
M  V30 18 C 0.431295 3.138873 1.180687 0
M  V30 19 C 0.083406 1.874939 0.771226 0
M  V30 20 O 0.521239 0.622266 1.124948 0
M  V30 21 C 1.533627 0.450175 2.079981 0
M  V30 22 C 0.976943 -0.332001 3.276567 0
M  V30 23 C 2.736541 -0.276918 1.507360 0
M  V30 24 N 3.714686 -0.403117 2.562731 0
M  V30 25 C -0.156929 -1.400700 -1.187070 0
M  V30 26 C -0.546701 -2.166964 -0.132936 0
M  V30 27 C -1.525482 -1.840508 0.914039 0
M  V30 28 H -1.283099 -6.361455 2.581929 0
M  V30 29 H -2.275723 -5.080577 3.413030 0
M  V30 30 H -0.575877 -5.309608 3.850526 0
M  V30 31 H 1.294815 0.336646 -4.355486 0
M  V30 32 H -2.583798 0.536595 -0.818761 0
M  V30 33 H -2.276719 3.029294 -1.463642 0
M  V30 34 H -1.514588 5.127341 -0.604816 0
M  V30 35 H 1.201556 3.143738 1.931566 0
M  V30 36 H 1.936885 1.381833 2.514759 0
M  V30 37 H 1.045435 -1.415012 3.125926 0
M  V30 38 H -0.073104 -0.013096 3.394660 0
M  V30 39 H 1.500001 -0.012364 4.223442 0
M  V30 40 H 3.164510 0.370991 0.727754 0
M  V30 41 H 2.459312 -1.250261 1.062535 0
M  V30 42 H 4.297045 -1.246653 2.504036 0
M  V30 43 H 3.398879 -0.130277 3.496978 0
M  V30 44 H -2.415571 -2.509932 0.829721 0
M  V30 45 H -1.853082 -0.812026 0.963437 0
M  V30 46 H -1.130847 -2.068384 1.952160 0
M  V30 END ATOM
M  V30 BEGIN BOND
M  V30 1 1 1 2
M  V30 2 1 2 3
M  V30 3 2 3 4
M  V30 4 1 3 5
M  V30 5 1 5 6
M  V30 6 1 6 7
M  V30 7 2 7 8
M  V30 8 1 8 9
M  V30 9 2 9 10
M  V30 10 1 10 11
M  V30 11 1 11 12
M  V30 12 1 12 13
M  V30 13 2 13 14
M  V30 14 1 14 15
M  V30 15 2 15 16
M  V30 16 1 16 17
M  V30 17 1 16 18
M  V30 18 2 18 19
M  V30 19 1 19 20
M  V30 20 1 20 21
M  V30 21 1 21 22
M  V30 22 1 21 23
M  V30 23 1 23 24
M  V30 24 2 11 25
M  V30 25 1 25 26
M  V30 26 1 26 27
M  V30 27 2 26 5
M  V30 28 1 25 7
M  V30 29 1 19 13
M  V30 30 1 1 28
M  V30 31 1 1 29
M  V30 32 1 1 30
M  V30 33 1 9 31
M  V30 34 1 12 32
M  V30 35 1 14 33
M  V30 36 1 15 34
M  V30 37 1 18 35
M  V30 38 1 21 36
M  V30 39 1 22 37
M  V30 40 1 22 38
M  V30 41 1 22 39
M  V30 42 1 23 40
M  V30 43 1 23 41
M  V30 44 1 24 42
M  V30 45 1 24 43
M  V30 46 1 27 44
M  V30 47 1 27 45
M  V30 48 1 27 46
M  V30 END BOND
M  V30 END CTAB
M  END
>  <Dataset>  (480) 
ChEMBL_Kinases

>  <Ligand_Instance>  (480) 
nan

>  <PDB_ID>  (480) 
nan

>  <Standardized_SMILES>  (480) 
COC(=O)c1sc2ncnc(Nc3ccc(F)cc3OC(C)CN)c2c1C

>  <Name>  (480) 
nan

>  <Pocket>  (480) 
nan

>  <ATP_Site>  (480) 
nan

>  <Peripheral>  (480) 
nan

>  <Num_H_Atoms_ProtBoundConf>  (480) 
nan

>  <Num_Resolved_Atoms>  (480) 
nan

>  <Num_Not_Resolved_Atoms>  (480) 
nan

$$$$
CHEMBL3698743
     RDKit          3D

  0  0  0  0  0  0  0  0  0  0999 V3000
M  V30 BEGIN CTAB
M  V30 COUNTS 62 67 0 0 0
M  V30 BEGIN ATOM
M  V30 1 C -0.089339 -1.426228 5.445052 0
M  V30 2 C 1.207108 -2.249995 5.422073 0
M  V30 3 C 2.099742 -1.592589 4.444745 0
M  V30 4 N 2.477393 -2.558547 3.404229 0
M  V30 5 C 2.333921 -2.299543 1.997540 0
M  V30 6 C 2.673868 -3.142699 0.956922 0
M  V30 7 C 2.457350 -2.706798 -0.335743 0
M  V30 8 C 1.918605 -1.469660 -0.588959 0
M  V30 9 N 1.689639 -0.994539 -1.912727 0
M  V30 10 C 1.112379 0.313193 -2.097873 0
M  V30 11 N 1.811601 1.460689 -2.168909 0
M  V30 12 C 1.169933 2.653621 -2.345708 0
M  V30 13 C -0.197283 2.582603 -2.441041 0
M  V30 14 C -1.108715 3.605225 -2.619188 0
M  V30 15 C -1.037455 4.983332 -2.761606 0
M  V30 16 C -2.207320 5.694417 -2.925718 0
M  V30 17 N -3.427756 5.088328 -2.952535 0
M  V30 18 C -3.505214 3.731747 -2.813012 0
M  V30 19 C -2.348779 2.989166 -2.646384 0
M  V30 20 N -2.254232 1.641190 -2.494675 0
M  V30 21 C -3.315139 0.676015 -2.474705 0
M  V30 22 C -3.536460 -0.014357 -1.177279 0
M  V30 23 C -3.226052 -1.460945 -1.427397 0
M  V30 24 C -3.668462 -1.673106 -2.847798 0
M  V30 25 C -3.170478 -0.389201 -3.530718 0
M  V30 26 C -0.920360 1.386547 -2.366702 0
M  V30 27 N -0.228477 0.250107 -2.192083 0
M  V30 28 N 1.600751 -0.677565 0.466213 0
M  V30 29 N 1.815343 -1.112181 1.689923 0
M  V30 30 C 2.999034 -3.771974 4.002731 0
M  V30 31 C 1.811956 -4.462573 4.620800 0
M  V30 32 C 2.338191 -5.504416 5.589889 0
M  V30 33 N 0.842969 -3.593899 5.182035 0
M  V30 34 H -0.804434 -1.790419 6.183545 0
M  V30 35 H 0.152307 -0.345867 5.645040 0
M  V30 36 H -0.513035 -1.457945 4.427582 0
M  V30 37 H 1.621626 -2.149444 6.456539 0
M  V30 38 H 3.071785 -1.324263 4.934862 0
M  V30 39 H 1.720774 -0.644335 4.014594 0
M  V30 40 H 3.083971 -4.081651 1.239409 0
M  V30 41 H 2.725627 -3.370246 -1.123027 0
M  V30 42 H 1.937768 -1.587409 -2.726451 0
M  V30 43 H 1.728243 3.553958 -2.400772 0
M  V30 44 H -0.056446 5.452939 -2.738060 0
M  V30 45 H -2.171928 6.787595 -3.039858 0
M  V30 46 H -4.508109 3.331559 -2.845798 0
M  V30 47 H -4.267594 1.221782 -2.745334 0
M  V30 48 H -2.938527 0.413194 -0.341966 0
M  V30 49 H -4.630580 0.011566 -0.900017 0
M  V30 50 H -2.133575 -1.604597 -1.333956 0
M  V30 51 H -3.786998 -2.122407 -0.734318 0
M  V30 52 H -3.216424 -2.566432 -3.325500 0
M  V30 53 H -4.781665 -1.708375 -2.854115 0
M  V30 54 H -3.841529 -0.242194 -4.402033 0
M  V30 55 H -2.155147 -0.511690 -3.910959 0
M  V30 56 H 3.475826 -4.363975 3.210181 0
M  V30 57 H 3.743704 -3.514185 4.813596 0
M  V30 58 H 1.312745 -5.025408 3.803179 0
M  V30 59 H 3.348592 -5.209955 5.922265 0
M  V30 60 H 2.473245 -6.495682 5.082610 0
M  V30 61 H 1.618916 -5.685096 6.422315 0
M  V30 62 H -0.128577 -3.748622 4.848761 0
M  V30 END ATOM
M  V30 BEGIN BOND
M  V30 1 1 1 2
M  V30 2 1 2 3
M  V30 3 1 3 4
M  V30 4 1 4 5
M  V30 5 2 5 6
M  V30 6 1 6 7
M  V30 7 2 7 8
M  V30 8 1 8 9
M  V30 9 1 9 10
M  V30 10 2 10 11
M  V30 11 1 11 12
M  V30 12 2 12 13
M  V30 13 1 13 14
M  V30 14 2 14 15
M  V30 15 1 15 16
M  V30 16 2 16 17
M  V30 17 1 17 18
M  V30 18 2 18 19
M  V30 19 1 19 20
M  V30 20 1 20 21
M  V30 21 1 21 22
M  V30 22 1 22 23
M  V30 23 1 23 24
M  V30 24 1 24 25
M  V30 25 1 20 26
M  V30 26 2 26 27
M  V30 27 1 8 28
M  V30 28 2 28 29
M  V30 29 1 4 30
M  V30 30 1 30 31
M  V30 31 1 31 32
M  V30 32 1 31 33
M  V30 33 1 33 2
M  V30 34 1 29 5
M  V30 35 1 27 10
M  V30 36 1 26 13
M  V30 37 1 19 14
M  V30 38 1 25 21
M  V30 39 1 1 34
M  V30 40 1 1 35
M  V30 41 1 1 36
M  V30 42 1 2 37
M  V30 43 1 3 38
M  V30 44 1 3 39
M  V30 45 1 6 40
M  V30 46 1 7 41
M  V30 47 1 9 42
M  V30 48 1 12 43
M  V30 49 1 15 44
M  V30 50 1 16 45
M  V30 51 1 18 46
M  V30 52 1 21 47
M  V30 53 1 22 48
M  V30 54 1 22 49
M  V30 55 1 23 50
M  V30 56 1 23 51
M  V30 57 1 24 52
M  V30 58 1 24 53
M  V30 59 1 25 54
M  V30 60 1 25 55
M  V30 61 1 30 56
M  V30 62 1 30 57
M  V30 63 1 31 58
M  V30 64 1 32 59
M  V30 65 1 32 60
M  V30 66 1 32 61
M  V30 67 1 33 62
M  V30 END BOND
M  V30 END CTAB
M  END
>  <Dataset>  (481) 
ChEMBL_Kinases

>  <Ligand_Instance>  (481) 
nan

>  <PDB_ID>  (481) 
nan

>  <Standardized_SMILES>  (481) 
CC1CN(c2ccc(Nc3ncc4c5ccncc5n(C5CCCC5)c4n3)nn2)CC(C)N1

>  <Name>  (481) 
nan

>  <Pocket>  (481) 
nan

>  <ATP_Site>  (481) 
nan

>  <Peripheral>  (481) 
nan

>  <Num_H_Atoms_ProtBoundConf>  (481) 
nan

>  <Num_Resolved_Atoms>  (481) 
nan

>  <Num_Not_Resolved_Atoms>  (481) 
nan

$$$$
CHEMBL3698745
     RDKit          3D

  0  0  0  0  0  0  0  0  0  0999 V3000
M  V30 BEGIN CTAB
M  V30 COUNTS 55 60 0 0 0
M  V30 BEGIN ATOM
M  V30 1 O 0.270808 -2.165109 6.619913 0
M  V30 2 C 1.064177 -2.968470 6.062030 0
M  V30 3 C 2.264085 -2.581035 5.279934 0
M  V30 4 N 2.491564 -3.521580 4.178705 0
M  V30 5 C 2.468855 -3.143604 2.788336 0
M  V30 6 C 2.767159 -4.027353 1.774211 0
M  V30 7 C 2.703973 -3.530675 0.464561 0
M  V30 8 C 2.355480 -2.212310 0.246362 0
M  V30 9 N 2.292698 -1.680529 -1.095747 0
M  V30 10 C 1.914024 -0.317561 -1.241847 0
M  V30 11 N 2.690887 0.803750 -1.206816 0
M  V30 12 C 2.090909 2.006632 -1.375379 0
M  V30 13 C 0.731700 2.122661 -1.578946 0
M  V30 14 C -0.128523 3.182830 -1.774845 0
M  V30 15 C 0.113971 4.540067 -1.831434 0
M  V30 16 C -0.963900 5.367118 -2.042175 0
M  V30 17 N -2.208803 4.864635 -2.187393 0
M  V30 18 C -2.457369 3.535045 -2.133507 0
M  V30 19 C -1.413032 2.657020 -1.924150 0
M  V30 20 N -1.362706 1.295589 -1.824530 0
M  V30 21 C -2.478812 0.385407 -1.928576 0
M  V30 22 C -3.274142 0.543310 -3.193775 0
M  V30 23 C -4.723338 0.490432 -2.750624 0
M  V30 24 C -4.690871 -0.180278 -1.370336 0
M  V30 25 C -3.433825 0.431521 -0.781868 0
M  V30 26 C -0.047509 0.986557 -1.613660 0
M  V30 27 N 0.588575 -0.195258 -1.441175 0
M  V30 28 N 2.080384 -1.425085 1.316298 0
M  V30 29 N 2.130618 -1.862644 2.566754 0
M  V30 30 C 2.730826 -4.853535 4.710494 0
M  V30 31 C 1.501838 -5.394783 5.410947 0
M  V30 32 N 0.813603 -4.353544 6.175170 0
M  V30 33 H 3.148253 -2.657939 5.945009 0
M  V30 34 H 2.106692 -1.548775 4.913926 0
M  V30 35 H 3.033502 -5.048688 2.004286 0
M  V30 36 H 2.934782 -4.207207 -0.357479 0
M  V30 37 H 2.526041 -2.314802 -1.875915 0
M  V30 38 H 2.730544 2.877526 -1.342568 0
M  V30 39 H 1.148388 4.872241 -1.705255 0
M  V30 40 H -0.777831 6.440021 -2.087593 0
M  V30 41 H -3.477411 3.197311 -2.257216 0
M  V30 42 H -2.045418 -0.657531 -1.918571 0
M  V30 43 H -3.032570 1.416705 -3.796298 0
M  V30 44 H -3.133872 -0.339857 -3.860860 0
M  V30 45 H -5.333221 -0.169818 -3.402963 0
M  V30 46 H -5.231713 1.455677 -2.739327 0
M  V30 47 H -5.585668 0.018189 -0.780512 0
M  V30 48 H -4.496326 -1.249312 -1.572076 0
M  V30 49 H -3.068004 -0.178215 0.068835 0
M  V30 50 H -3.595691 1.452426 -0.421444 0
M  V30 51 H 3.559353 -4.768540 5.439398 0
M  V30 52 H 3.018851 -5.593636 3.961165 0
M  V30 53 H 1.787468 -6.235014 6.076600 0
M  V30 54 H 0.756354 -5.783286 4.676102 0
M  V30 55 H 0.089272 -4.717629 6.843071 0
M  V30 END ATOM
M  V30 BEGIN BOND
M  V30 1 2 1 2
M  V30 2 1 2 3
M  V30 3 1 3 4
M  V30 4 1 4 5
M  V30 5 2 5 6
M  V30 6 1 6 7
M  V30 7 2 7 8
M  V30 8 1 8 9
M  V30 9 1 9 10
M  V30 10 2 10 11
M  V30 11 1 11 12
M  V30 12 2 12 13
M  V30 13 1 13 14
M  V30 14 2 14 15
M  V30 15 1 15 16
M  V30 16 2 16 17
M  V30 17 1 17 18
M  V30 18 2 18 19
M  V30 19 1 19 20
M  V30 20 1 20 21
M  V30 21 1 21 22
M  V30 22 1 22 23
M  V30 23 1 23 24
M  V30 24 1 24 25
M  V30 25 1 20 26
M  V30 26 2 26 27
M  V30 27 1 8 28
M  V30 28 2 28 29
M  V30 29 1 4 30
M  V30 30 1 30 31
M  V30 31 1 31 32
M  V30 32 1 32 2
M  V30 33 1 29 5
M  V30 34 1 27 10
M  V30 35 1 26 13
M  V30 36 1 19 14
M  V30 37 1 25 21
M  V30 38 1 3 33
M  V30 39 1 3 34
M  V30 40 1 6 35
M  V30 41 1 7 36
M  V30 42 1 9 37
M  V30 43 1 12 38
M  V30 44 1 15 39
M  V30 45 1 16 40
M  V30 46 1 18 41
M  V30 47 1 21 42
M  V30 48 1 22 43
M  V30 49 1 22 44
M  V30 50 1 23 45
M  V30 51 1 23 46
M  V30 52 1 24 47
M  V30 53 1 24 48
M  V30 54 1 25 49
M  V30 55 1 25 50
M  V30 56 1 30 51
M  V30 57 1 30 52
M  V30 58 1 31 53
M  V30 59 1 31 54
M  V30 60 1 32 55
M  V30 END BOND
M  V30 END CTAB
M  END
>  <Dataset>  (482) 
ChEMBL_Kinases

>  <Ligand_Instance>  (482) 
nan

>  <PDB_ID>  (482) 
nan

>  <Standardized_SMILES>  (482) 
O=C1CN(c2ccc(Nc3ncc4c5ccncc5n(C5CCCC5)c4n3)nn2)CCN1

>  <Name>  (482) 
nan

>  <Pocket>  (482) 
nan

>  <ATP_Site>  (482) 
nan

>  <Peripheral>  (482) 
nan

>  <Num_H_Atoms_ProtBoundConf>  (482) 
nan

>  <Num_Resolved_Atoms>  (482) 
nan

>  <Num_Not_Resolved_Atoms>  (482) 
nan

$$$$
CHEMBL3698746
     RDKit          3D

  0  0  0  0  0  0  0  0  0  0999 V3000
M  V30 BEGIN CTAB
M  V30 COUNTS 59 64 0 0 0
M  V30 BEGIN ATOM
M  V30 1 N 3.801261 -0.903115 5.174836 0
M  V30 2 C 4.538856 -1.968686 4.531001 0
M  V30 3 C 6.013621 -1.775087 4.615357 0
M  V30 4 C 6.438247 -0.757982 3.608229 0
M  V30 5 C 5.808261 -0.917864 2.251439 0
M  V30 6 N 4.388701 -1.039736 2.256516 0
M  V30 7 C 3.415505 -0.269612 1.560646 0
M  V30 8 C 3.734114 0.773945 0.719066 0
M  V30 9 C 2.680853 1.430645 0.115345 0
M  V30 10 C 1.358011 1.097154 0.312112 0
M  V30 11 N 0.272464 1.797932 -0.323535 0
M  V30 12 C -1.058301 1.323114 -0.019180 0
M  V30 13 N -1.731445 1.789875 1.052675 0
M  V30 14 C -2.956162 1.347790 1.326152 0
M  V30 15 C -3.536201 0.405432 0.503883 0
M  V30 16 C -4.744959 -0.216914 0.533846 0
M  V30 17 C -5.787161 -0.086267 1.428179 0
M  V30 18 C -6.910952 -0.845184 1.224488 0
M  V30 19 N -6.972450 -1.689532 0.170975 0
M  V30 20 C -5.938127 -1.800686 -0.692651 0
M  V30 21 C -4.774202 -1.066288 -0.548481 0
M  V30 22 N -3.637843 -1.010423 -1.263763 0
M  V30 23 C -3.267910 -1.716420 -2.440225 0
M  V30 24 C -3.987854 -1.526964 -3.696813 0
M  V30 25 C -3.172112 -2.225642 -4.722851 0
M  V30 26 C -1.761810 -2.011328 -4.197283 0
M  V30 27 C -1.921990 -1.180575 -2.966328 0
M  V30 28 C -2.865489 -0.091591 -0.605936 0
M  V30 29 N -1.640486 0.396165 -0.820244 0
M  V30 30 N 1.150904 0.065742 1.150107 0
M  V30 31 N 2.113209 -0.605394 1.760427 0
M  V30 32 C 4.038011 -2.125696 3.122700 0
M  V30 33 H 2.815372 -1.207841 5.374090 0
M  V30 34 H 3.719530 -0.089811 4.531372 0
M  V30 35 H 4.292537 -2.900706 5.080222 0
M  V30 36 H 6.515342 -2.757749 4.513265 0
M  V30 37 H 6.220831 -1.356904 5.636016 0
M  V30 38 H 7.544152 -0.887732 3.451509 0
M  V30 39 H 6.257252 0.252246 4.017094 0
M  V30 40 H 6.080851 -0.018319 1.660359 0
M  V30 41 H 6.228579 -1.774308 1.686833 0
M  V30 42 H 4.746436 1.044742 0.555330 0
M  V30 43 H 2.933703 2.246949 -0.543293 0
M  V30 44 H 0.549428 2.587378 -0.948596 0
M  V30 45 H -3.488753 1.716398 2.173849 0
M  V30 46 H -5.695211 0.602751 2.258854 0
M  V30 47 H -7.726149 -0.739519 1.928634 0
M  V30 48 H -6.019737 -2.485255 -1.523289 0
M  V30 49 H -3.079468 -2.803772 -2.310067 0
M  V30 50 H -4.928970 -2.120970 -3.614017 0
M  V30 51 H -4.350515 -0.530977 -3.946594 0
M  V30 52 H -3.395961 -3.311998 -4.745715 0
M  V30 53 H -3.310625 -1.865159 -5.754265 0
M  V30 54 H -1.264573 -2.967720 -4.035665 0
M  V30 55 H -1.244574 -1.406531 -4.978047 0
M  V30 56 H -1.159289 -1.491371 -2.223241 0
M  V30 57 H -1.923006 -0.102890 -3.128405 0
M  V30 58 H 2.914495 -2.183740 3.145598 0
M  V30 59 H 4.350628 -3.058933 2.627030 0
M  V30 END ATOM
M  V30 BEGIN BOND
M  V30 1 1 1 2
M  V30 2 1 2 3
M  V30 3 1 3 4
M  V30 4 1 4 5
M  V30 5 1 5 6
M  V30 6 1 6 7
M  V30 7 2 7 8
M  V30 8 1 8 9
M  V30 9 2 9 10
M  V30 10 1 10 11
M  V30 11 1 11 12
M  V30 12 2 12 13
M  V30 13 1 13 14
M  V30 14 2 14 15
M  V30 15 1 15 16
M  V30 16 2 16 17
M  V30 17 1 17 18
M  V30 18 2 18 19
M  V30 19 1 19 20
M  V30 20 2 20 21
M  V30 21 1 21 22
M  V30 22 1 22 23
M  V30 23 1 23 24
M  V30 24 1 24 25
M  V30 25 1 25 26
M  V30 26 1 26 27
M  V30 27 1 22 28
M  V30 28 2 28 29
M  V30 29 1 10 30
M  V30 30 2 30 31
M  V30 31 1 6 32
M  V30 32 1 32 2
M  V30 33 1 31 7
M  V30 34 1 29 12
M  V30 35 1 28 15
M  V30 36 1 21 16
M  V30 37 1 27 23
M  V30 38 1 1 33
M  V30 39 1 1 34
M  V30 40 1 2 35
M  V30 41 1 3 36
M  V30 42 1 3 37
M  V30 43 1 4 38
M  V30 44 1 4 39
M  V30 45 1 5 40
M  V30 46 1 5 41
M  V30 47 1 8 42
M  V30 48 1 9 43
M  V30 49 1 11 44
M  V30 50 1 14 45
M  V30 51 1 17 46
M  V30 52 1 18 47
M  V30 53 1 20 48
M  V30 54 1 23 49
M  V30 55 1 24 50
M  V30 56 1 24 51
M  V30 57 1 25 52
M  V30 58 1 25 53
M  V30 59 1 26 54
M  V30 60 1 26 55
M  V30 61 1 27 56
M  V30 62 1 27 57
M  V30 63 1 32 58
M  V30 64 1 32 59
M  V30 END BOND
M  V30 END CTAB
M  END
>  <Dataset>  (483) 
ChEMBL_Kinases

>  <Ligand_Instance>  (483) 
nan

>  <PDB_ID>  (483) 
nan

>  <Standardized_SMILES>  (483) 
NC1CCCN(c2ccc(Nc3ncc4c5ccncc5n(C5CCCC5)c4n3)nn2)C1

>  <Name>  (483) 
nan

>  <Pocket>  (483) 
nan

>  <ATP_Site>  (483) 
nan

>  <Peripheral>  (483) 
nan

>  <Num_H_Atoms_ProtBoundConf>  (483) 
nan

>  <Num_Resolved_Atoms>  (483) 
nan

>  <Num_Not_Resolved_Atoms>  (483) 
nan

$$$$
CHEMBL3698748
     RDKit          3D

  0  0  0  0  0  0  0  0  0  0999 V3000
M  V30 BEGIN CTAB
M  V30 COUNTS 55 60 0 0 0
M  V30 BEGIN ATOM
M  V30 1 N 3.464877 -3.830450 -1.134837 0
M  V30 2 C 4.472328 -3.333173 -1.376424 0
M  V30 3 C 5.743917 -2.725178 -1.690594 0
M  V30 4 C 6.431790 -2.261608 -0.415895 0
M  V30 5 C 6.429779 -0.761839 -0.589809 0
M  V30 6 N 5.196263 -0.488367 -1.294016 0
M  V30 7 C 4.082608 0.329760 -1.026217 0
M  V30 8 C 3.344560 -0.144850 0.061332 0
M  V30 9 C 2.205318 0.538223 0.490415 0
M  V30 10 C 1.833798 1.687764 -0.186541 0
M  V30 11 N 0.662823 2.360216 0.258604 0
M  V30 12 C -0.069028 1.778409 1.328964 0
M  V30 13 N 0.105865 1.802292 2.664507 0
M  V30 14 C -0.761872 1.157568 3.496965 0
M  V30 15 C -1.830024 0.472286 2.987733 0
M  V30 16 C -2.856440 -0.258171 3.549209 0
M  V30 17 C -3.145225 -0.544985 4.868289 0
M  V30 18 C -4.263786 -1.313482 5.110941 0
M  V30 19 N -5.017436 -1.746303 4.065357 0
M  V30 20 C -4.753946 -1.478996 2.782420 0
M  V30 21 C -3.633948 -0.705266 2.480156 0
M  V30 22 N -3.113800 -0.273957 1.320292 0
M  V30 23 C -3.579673 -0.496285 -0.018432 0
M  V30 24 C -5.015856 -0.063482 -0.197353 0
M  V30 25 C -5.743750 -1.194735 -0.848961 0
M  V30 26 C -4.729268 -2.203070 -1.294877 0
M  V30 27 C -3.445697 -1.902633 -0.511232 0
M  V30 28 C -1.993629 0.458832 1.612222 0
M  V30 29 N -1.111034 1.111993 0.800898 0
M  V30 30 N 2.583933 2.110673 -1.239675 0
M  V30 31 N 3.668826 1.464239 -1.653000 0
M  V30 32 C 5.495517 -1.405361 -2.411074 0
M  V30 33 H 6.456106 -3.368040 -2.233070 0
M  V30 34 H 7.454610 -2.656776 -0.336649 0
M  V30 35 H 5.859615 -2.532834 0.496012 0
M  V30 36 H 6.480208 -0.308814 0.419855 0
M  V30 37 H 7.260673 -0.426219 -1.242317 0
M  V30 38 H 3.588460 -1.050302 0.642687 0
M  V30 39 H 1.641849 0.145561 1.343397 0
M  V30 40 H 0.304764 3.243110 -0.152836 0
M  V30 41 H -0.556133 1.220748 4.542060 0
M  V30 42 H -2.549400 -0.205077 5.704299 0
M  V30 43 H -4.613292 -1.615247 6.087450 0
M  V30 44 H -5.368959 -1.835622 1.989516 0
M  V30 45 H -2.994670 0.136318 -0.747312 0
M  V30 46 H -5.417618 0.238352 0.794147 0
M  V30 47 H -5.114390 0.859953 -0.840111 0
M  V30 48 H -6.509343 -1.638100 -0.152814 0
M  V30 49 H -6.365486 -0.802898 -1.706120 0
M  V30 50 H -4.570840 -2.014665 -2.393766 0
M  V30 51 H -4.970337 -3.242901 -1.079550 0
M  V30 52 H -3.228639 -2.650911 0.257565 0
M  V30 53 H -2.614677 -2.018222 -1.266788 0
M  V30 54 H 6.452233 -1.110447 -2.883360 0
M  V30 55 H 4.662558 -1.447965 -3.124413 0
M  V30 END ATOM
M  V30 BEGIN BOND
M  V30 1 3 1 2
M  V30 2 1 2 3
M  V30 3 1 3 4
M  V30 4 1 4 5
M  V30 5 1 5 6
M  V30 6 1 6 7
M  V30 7 2 7 8
M  V30 8 1 8 9
M  V30 9 2 9 10
M  V30 10 1 10 11
M  V30 11 1 11 12
M  V30 12 2 12 13
M  V30 13 1 13 14
M  V30 14 2 14 15
M  V30 15 1 15 16
M  V30 16 2 16 17
M  V30 17 1 17 18
M  V30 18 2 18 19
M  V30 19 1 19 20
M  V30 20 2 20 21
M  V30 21 1 21 22
M  V30 22 1 22 23
M  V30 23 1 23 24
M  V30 24 1 24 25
M  V30 25 1 25 26
M  V30 26 1 26 27
M  V30 27 1 22 28
M  V30 28 2 28 29
M  V30 29 1 10 30
M  V30 30 2 30 31
M  V30 31 1 6 32
M  V30 32 1 32 3
M  V30 33 1 31 7
M  V30 34 1 29 12
M  V30 35 1 28 15
M  V30 36 1 21 16
M  V30 37 1 27 23
M  V30 38 1 3 33
M  V30 39 1 4 34
M  V30 40 1 4 35
M  V30 41 1 5 36
M  V30 42 1 5 37
M  V30 43 1 8 38
M  V30 44 1 9 39
M  V30 45 1 11 40
M  V30 46 1 14 41
M  V30 47 1 17 42
M  V30 48 1 18 43
M  V30 49 1 20 44
M  V30 50 1 23 45
M  V30 51 1 24 46
M  V30 52 1 24 47
M  V30 53 1 25 48
M  V30 54 1 25 49
M  V30 55 1 26 50
M  V30 56 1 26 51
M  V30 57 1 27 52
M  V30 58 1 27 53
M  V30 59 1 32 54
M  V30 60 1 32 55
M  V30 END BOND
M  V30 END CTAB
M  END
>  <Dataset>  (484) 
ChEMBL_Kinases

>  <Ligand_Instance>  (484) 
nan

>  <PDB_ID>  (484) 
nan

>  <Standardized_SMILES>  (484) 
N#CC1CCN(c2ccc(Nc3ncc4c5ccncc5n(C5CCCC5)c4n3)nn2)C1

>  <Name>  (484) 
nan

>  <Pocket>  (484) 
nan

>  <ATP_Site>  (484) 
nan

>  <Peripheral>  (484) 
nan

>  <Num_H_Atoms_ProtBoundConf>  (484) 
nan

>  <Num_Resolved_Atoms>  (484) 
nan

>  <Num_Not_Resolved_Atoms>  (484) 
nan

$$$$
CHEMBL3698749
     RDKit          3D

  0  0  0  0  0  0  0  0  0  0999 V3000
M  V30 BEGIN CTAB
M  V30 COUNTS 54 59 0 0 0
M  V30 BEGIN ATOM
M  V30 1 F 5.370408 -5.402247 0.735612 0
M  V30 2 C 4.994103 -5.572582 -0.585602 0 CFG=2
M  V30 3 C 6.012676 -5.040663 -1.558380 0
M  V30 4 C 5.567821 -3.656428 -1.898847 0
M  V30 5 N 4.288878 -3.439689 -1.302403 0
M  V30 6 C 3.658112 -2.173356 -1.197686 0
M  V30 7 C 2.583469 -2.033871 -0.321556 0
M  V30 8 C 1.962170 -0.817790 -0.224922 0
M  V30 9 C 2.453377 0.221078 -1.024486 0
M  V30 10 N 1.815790 1.510818 -0.932640 0
M  V30 11 C 0.767896 1.634795 0.018920 0
M  V30 12 N 1.254778 2.332618 1.080459 0
M  V30 13 C 0.426029 2.563973 2.131711 0
M  V30 14 C -0.868058 2.084148 2.079092 0
M  V30 15 C -1.875375 2.189475 3.015024 0
M  V30 16 C -2.008373 2.759552 4.260675 0
M  V30 17 C -3.190156 2.689712 4.967455 0
M  V30 18 N -4.224338 2.041646 4.401862 0
M  V30 19 C -4.121548 1.481461 3.198819 0
M  V30 20 C -2.953458 1.519232 2.437184 0
M  V30 21 N -2.632718 1.023365 1.204650 0
M  V30 22 C -3.505021 0.265702 0.330365 0
M  V30 23 C -4.805992 0.893503 0.013251 0
M  V30 24 C -5.838883 -0.206188 0.244333 0
M  V30 25 C -5.043268 -1.505675 0.177425 0
M  V30 26 C -3.768035 -1.118578 0.884158 0
M  V30 27 C -1.353173 1.386637 1.017540 0
M  V30 28 N -0.508443 1.162079 -0.031593 0
M  V30 29 N 3.490323 0.023052 -1.846860 0
M  V30 30 N 4.108390 -1.134305 -1.961396 0
M  V30 31 C 3.770844 -4.723872 -0.853982 0
M  V30 32 H 4.754558 -6.655770 -0.805534 0
M  V30 33 H 7.046796 -5.034717 -1.115519 0
M  V30 34 H 5.998549 -5.651534 -2.488178 0
M  V30 35 H 6.267800 -2.942707 -1.369562 0
M  V30 36 H 5.601231 -3.467527 -3.000661 0
M  V30 37 H 2.199016 -2.809635 0.292584 0
M  V30 38 H 1.122874 -0.670123 0.447791 0
M  V30 39 H 2.175815 2.269857 -1.577452 0
M  V30 40 H 0.746626 3.120952 3.028419 0
M  V30 41 H -1.113067 3.262821 4.630125 0
M  V30 42 H -3.130831 3.186448 5.927345 0
M  V30 43 H -5.001980 0.979753 2.824958 0
M  V30 44 H -2.939129 0.121595 -0.623315 0
M  V30 45 H -5.045179 1.833216 0.540091 0
M  V30 46 H -4.920222 1.170888 -1.078781 0
M  V30 47 H -6.571279 -0.280882 -0.598533 0
M  V30 48 H -6.327877 -0.165823 1.215473 0
M  V30 49 H -5.551946 -2.321327 0.731069 0
M  V30 50 H -4.810360 -1.752408 -0.861964 0
M  V30 51 H -3.871001 -1.104093 1.990941 0
M  V30 52 H -2.922389 -1.770213 0.604459 0
M  V30 53 H 3.079878 -4.642511 -0.002741 0
M  V30 54 H 3.274850 -5.157316 -1.760497 0
M  V30 END ATOM
M  V30 BEGIN BOND
M  V30 1 1 1 2
M  V30 2 1 2 3
M  V30 3 1 3 4
M  V30 4 1 4 5
M  V30 5 1 5 6
M  V30 6 2 6 7
M  V30 7 1 7 8
M  V30 8 2 8 9
M  V30 9 1 9 10
M  V30 10 1 10 11
M  V30 11 2 11 12
M  V30 12 1 12 13
M  V30 13 2 13 14
M  V30 14 1 14 15
M  V30 15 2 15 16
M  V30 16 1 16 17
M  V30 17 2 17 18
M  V30 18 1 18 19
M  V30 19 2 19 20
M  V30 20 1 20 21
M  V30 21 1 21 22
M  V30 22 1 22 23
M  V30 23 1 23 24
M  V30 24 1 24 25
M  V30 25 1 25 26
M  V30 26 1 21 27
M  V30 27 2 27 28
M  V30 28 1 9 29
M  V30 29 2 29 30
M  V30 30 1 5 31
M  V30 31 1 31 2
M  V30 32 1 30 6
M  V30 33 1 28 11
M  V30 34 1 27 14
M  V30 35 1 20 15
M  V30 36 1 26 22
M  V30 37 1 2 32 CFG=3
M  V30 38 1 3 33
M  V30 39 1 3 34
M  V30 40 1 4 35
M  V30 41 1 4 36
M  V30 42 1 7 37
M  V30 43 1 8 38
M  V30 44 1 10 39
M  V30 45 1 13 40
M  V30 46 1 16 41
M  V30 47 1 17 42
M  V30 48 1 19 43
M  V30 49 1 22 44
M  V30 50 1 23 45
M  V30 51 1 23 46
M  V30 52 1 24 47
M  V30 53 1 24 48
M  V30 54 1 25 49
M  V30 55 1 25 50
M  V30 56 1 26 51
M  V30 57 1 26 52
M  V30 58 1 31 53
M  V30 59 1 31 54
M  V30 END BOND
M  V30 END CTAB
M  END
>  <Dataset>  (485) 
ChEMBL_Kinases

>  <Ligand_Instance>  (485) 
nan

>  <PDB_ID>  (485) 
nan

>  <Standardized_SMILES>  (485) 
F[C@@H]1CCN(c2ccc(Nc3ncc4c5ccncc5n(C5CCCC5)c4n3)nn2)C1

>  <Name>  (485) 
nan

>  <Pocket>  (485) 
nan

>  <ATP_Site>  (485) 
nan

>  <Peripheral>  (485) 
nan

>  <Num_H_Atoms_ProtBoundConf>  (485) 
nan

>  <Num_Resolved_Atoms>  (485) 
nan

>  <Num_Not_Resolved_Atoms>  (485) 
nan

$$$$
CHEMBL3698909
     RDKit          3D

  0  0  0  0  0  0  0  0  0  0999 V3000
M  V30 BEGIN CTAB
M  V30 COUNTS 58 60 0 0 0
M  V30 BEGIN ATOM
M  V30 1 C 3.395172 -0.126988 1.958784 0
M  V30 2 C 3.291798 0.299530 0.527472 0
M  V30 3 C 4.369634 0.165254 -0.300981 0
M  V30 4 C 5.703271 -0.321844 -0.101372 0
M  V30 5 O 6.252356 -0.762438 0.908082 0
M  V30 6 O 6.611472 -0.348800 -1.142769 0
M  V30 7 S 3.796294 0.775097 -1.883215 0
M  V30 8 C 2.143289 1.173397 -1.333311 0
M  V30 9 N 1.122601 1.690598 -2.006998 0
M  V30 10 C -0.055159 1.925011 -1.421061 0
M  V30 11 N -0.089115 1.592358 -0.124580 0
M  V30 12 C 0.928457 1.069503 0.575501 0
M  V30 13 N 0.537523 0.871786 1.901316 0
M  V30 14 C 0.011042 0.255961 3.052387 0
M  V30 15 C 0.720573 0.025430 4.210416 0
M  V30 16 C 0.063112 -0.554754 5.269226 0
M  V30 17 C -1.264237 -0.870698 5.111050 0
M  V30 18 F -1.786697 -1.433943 6.227634 0
M  V30 19 C -1.996474 -0.652524 3.967633 0
M  V30 20 C -1.342225 -0.072849 2.904082 0
M  V30 21 O -2.093094 0.138668 1.761476 0
M  V30 22 C -3.462436 -0.080245 1.670514 0
M  V30 23 C -4.154493 0.905500 0.757081 0
M  V30 24 C -3.878950 -1.457838 1.243197 0
M  V30 25 N -3.405923 -1.853076 -0.045350 0
M  V30 26 C -2.133143 -2.042018 -0.608753 0
M  V30 27 O -1.182149 -1.813824 0.180517 0
M  V30 28 O -1.987890 -2.443609 -1.906111 0
M  V30 29 C -0.719562 -2.650283 -2.479624 0
M  V30 30 C 0.095486 -1.380206 -2.444521 0
M  V30 31 C -0.812833 -3.064100 -3.925475 0
M  V30 32 C 0.055074 -3.741386 -1.770325 0
M  V30 33 C 2.143366 0.819835 -0.004257 0
M  V30 34 H 2.529964 -0.805018 2.153888 0
M  V30 35 H 3.429646 0.722847 2.640975 0
M  V30 36 H 4.307807 -0.729072 2.111938 0
M  V30 37 H 7.413706 -0.944859 -1.221420 0
M  V30 38 H -0.823842 2.343506 -2.039089 0
M  V30 39 H 0.839746 1.803030 2.298696 0
M  V30 40 H 1.762444 0.298257 4.281180 0
M  V30 41 H 0.654534 -0.719034 6.158420 0
M  V30 42 H -3.012404 -0.985389 4.077374 0
M  V30 43 H -3.942028 0.050734 2.694187 0
M  V30 44 H -3.892765 1.963399 0.984330 0
M  V30 45 H -5.254962 0.727429 0.895645 0
M  V30 46 H -3.945574 0.640057 -0.309664 0
M  V30 47 H -4.970177 -1.596920 1.375446 0
M  V30 48 H -3.429435 -2.222198 1.963117 0
M  V30 49 H -4.211321 -2.040850 -0.715281 0
M  V30 50 H 0.372372 -1.097897 -1.402942 0
M  V30 51 H -0.567613 -0.552793 -2.825009 0
M  V30 52 H 0.960408 -1.431733 -3.133803 0
M  V30 53 H -1.061988 -4.134499 -4.054386 0
M  V30 54 H 0.231138 -2.935597 -4.336295 0
M  V30 55 H -1.465815 -2.437378 -4.535057 0
M  V30 56 H 1.009507 -3.871387 -2.354974 0
M  V30 57 H -0.461994 -4.704602 -1.784598 0
M  V30 58 H 0.397117 -3.414388 -0.763077 0
M  V30 END ATOM
M  V30 BEGIN BOND
M  V30 1 1 1 2
M  V30 2 2 2 3
M  V30 3 1 3 4
M  V30 4 2 4 5
M  V30 5 1 4 6
M  V30 6 1 3 7
M  V30 7 1 7 8
M  V30 8 2 8 9
M  V30 9 1 9 10
M  V30 10 2 10 11
M  V30 11 1 11 12
M  V30 12 1 12 13
M  V30 13 1 13 14
M  V30 14 2 14 15
M  V30 15 1 15 16
M  V30 16 2 16 17
M  V30 17 1 17 18
M  V30 18 1 17 19
M  V30 19 2 19 20
M  V30 20 1 20 21
M  V30 21 1 21 22
M  V30 22 1 22 23
M  V30 23 1 22 24
M  V30 24 1 24 25
M  V30 25 1 25 26
M  V30 26 2 26 27
M  V30 27 1 26 28
M  V30 28 1 28 29
M  V30 29 1 29 30
M  V30 30 1 29 31
M  V30 31 1 29 32
M  V30 32 2 12 33
M  V30 33 1 33 2
M  V30 34 1 33 8
M  V30 35 1 20 14
M  V30 36 1 1 34
M  V30 37 1 1 35
M  V30 38 1 1 36
M  V30 39 1 6 37
M  V30 40 1 10 38
M  V30 41 1 13 39
M  V30 42 1 15 40
M  V30 43 1 16 41
M  V30 44 1 19 42
M  V30 45 1 22 43
M  V30 46 1 23 44
M  V30 47 1 23 45
M  V30 48 1 23 46
M  V30 49 1 24 47
M  V30 50 1 24 48
M  V30 51 1 25 49
M  V30 52 1 30 50
M  V30 53 1 30 51
M  V30 54 1 30 52
M  V30 55 1 31 53
M  V30 56 1 31 54
M  V30 57 1 31 55
M  V30 58 1 32 56
M  V30 59 1 32 57
M  V30 60 1 32 58
M  V30 END BOND
M  V30 END CTAB
M  END
>  <Dataset>  (486) 
ChEMBL_Kinases

>  <Ligand_Instance>  (486) 
nan

>  <PDB_ID>  (486) 
nan

>  <Standardized_SMILES>  (486) 
Cc1c(C(=O)O)sc2ncnc(Nc3ccc(F)cc3OC(C)CNC(=O)OC(C)(C)C)c12

>  <Name>  (486) 
nan

>  <Pocket>  (486) 
nan

>  <ATP_Site>  (486) 
nan

>  <Peripheral>  (486) 
nan

>  <Num_H_Atoms_ProtBoundConf>  (486) 
nan

>  <Num_Resolved_Atoms>  (486) 
nan

>  <Num_Not_Resolved_Atoms>  (486) 
nan

$$$$
CHEMBL3698910
     RDKit          3D

  0  0  0  0  0  0  0  0  0  0999 V3000
M  V30 BEGIN CTAB
M  V30 COUNTS 62 64 0 0 0
M  V30 BEGIN ATOM
M  V30 1 C 4.298617 5.290091 1.484225 0
M  V30 2 N 4.050758 4.161524 0.648705 0
M  V30 3 C 3.109903 3.098760 0.887132 0
M  V30 4 O 2.537009 3.363381 2.001925 0
M  V30 5 C 3.036968 2.045891 -0.129045 0
M  V30 6 S 4.005712 1.976344 -1.609145 0
M  V30 7 C 3.242034 0.415528 -2.192605 0
M  V30 8 N 3.484770 -0.288745 -3.316948 0
M  V30 9 C 2.806482 -1.418346 -3.568089 0
M  V30 10 N 1.921484 -1.757344 -2.652272 0
M  V30 11 C 1.668496 -1.069719 -1.531505 0
M  V30 12 N 0.663699 -1.658044 -0.731192 0
M  V30 13 C 0.589786 -2.683558 0.240858 0
M  V30 14 C 1.754370 -3.339336 0.530046 0
M  V30 15 C 1.741885 -4.349899 1.466911 0
M  V30 16 C 0.555163 -4.669070 2.084135 0
M  V30 17 F 0.511863 -5.656725 3.007221 0
M  V30 18 C -0.591698 -3.976375 1.755807 0
M  V30 19 C -0.650749 -2.954218 0.828035 0
M  V30 20 O -1.675467 -2.195804 0.408688 0
M  V30 21 C -3.013071 -2.131782 0.718888 0
M  V30 22 C -3.349478 -0.833720 1.387662 0
M  V30 23 C -3.933455 -2.525987 -0.397600 0
M  V30 24 N -3.718648 -1.754315 -1.562343 0
M  V30 25 C -3.778702 -0.418624 -1.985321 0
M  V30 26 O -4.121513 0.444433 -1.161501 0
M  V30 27 O -3.497668 0.071803 -3.229095 0
M  V30 28 C -3.571757 1.424088 -3.587136 0
M  V30 29 C -3.166448 1.476306 -5.070454 0
M  V30 30 C -2.523373 2.248850 -2.856465 0
M  V30 31 C -4.938165 2.029784 -3.425410 0
M  V30 32 C 2.334009 0.095084 -1.222448 0
M  V30 33 C 2.228434 0.938664 -0.155872 0
M  V30 34 C 1.252384 0.671823 0.963967 0
M  V30 35 H 3.830492 5.174627 2.479429 0
M  V30 36 H 3.787022 6.189432 1.038402 0
M  V30 37 H 5.398744 5.446199 1.556892 0
M  V30 38 H 4.653647 4.157170 -0.230286 0
M  V30 39 H 3.099064 -1.868091 -4.484224 0
M  V30 40 H -0.187905 -1.101718 -1.043292 0
M  V30 41 H 2.676320 -3.077970 0.038223 0
M  V30 42 H 2.640877 -4.878924 1.709349 0
M  V30 43 H -1.565334 -4.193382 2.221646 0
M  V30 44 H -3.181122 -2.928316 1.513998 0
M  V30 45 H -3.074666 -0.954200 2.485452 0
M  V30 46 H -2.632003 -0.060520 1.019065 0
M  V30 47 H -4.410146 -0.541083 1.322121 0
M  V30 48 H -4.987656 -2.311383 -0.007290 0
M  V30 49 H -3.870394 -3.603847 -0.574235 0
M  V30 50 H -3.414433 -2.352224 -2.398960 0
M  V30 51 H -3.644762 0.596810 -5.547018 0
M  V30 52 H -2.068771 1.258542 -5.103047 0
M  V30 53 H -3.439703 2.421363 -5.550248 0
M  V30 54 H -2.265140 3.106045 -3.509774 0
M  V30 55 H -2.879881 2.644574 -1.904200 0
M  V30 56 H -1.636398 1.581250 -2.766471 0
M  V30 57 H -5.716426 1.227394 -3.522405 0
M  V30 58 H -5.105094 2.754858 -4.232546 0
M  V30 59 H -4.990694 2.504523 -2.415315 0
M  V30 60 H 1.246861 1.477395 1.695784 0
M  V30 61 H 1.529607 -0.264256 1.514396 0
M  V30 62 H 0.232966 0.626805 0.533323 0
M  V30 END ATOM
M  V30 BEGIN BOND
M  V30 1 1 1 2
M  V30 2 1 2 3
M  V30 3 2 3 4
M  V30 4 1 3 5
M  V30 5 1 5 6
M  V30 6 1 6 7
M  V30 7 2 7 8
M  V30 8 1 8 9
M  V30 9 2 9 10
M  V30 10 1 10 11
M  V30 11 1 11 12
M  V30 12 1 12 13
M  V30 13 2 13 14
M  V30 14 1 14 15
M  V30 15 2 15 16
M  V30 16 1 16 17
M  V30 17 1 16 18
M  V30 18 2 18 19
M  V30 19 1 19 20
M  V30 20 1 20 21
M  V30 21 1 21 22
M  V30 22 1 21 23
M  V30 23 1 23 24
M  V30 24 1 24 25
M  V30 25 2 25 26
M  V30 26 1 25 27
M  V30 27 1 27 28
M  V30 28 1 28 29
M  V30 29 1 28 30
M  V30 30 1 28 31
M  V30 31 2 11 32
M  V30 32 1 32 33
M  V30 33 1 33 34
M  V30 34 2 33 5
M  V30 35 1 32 7
M  V30 36 1 19 13
M  V30 37 1 1 35
M  V30 38 1 1 36
M  V30 39 1 1 37
M  V30 40 1 2 38
M  V30 41 1 9 39
M  V30 42 1 12 40
M  V30 43 1 14 41
M  V30 44 1 15 42
M  V30 45 1 18 43
M  V30 46 1 21 44
M  V30 47 1 22 45
M  V30 48 1 22 46
M  V30 49 1 22 47
M  V30 50 1 23 48
M  V30 51 1 23 49
M  V30 52 1 24 50
M  V30 53 1 29 51
M  V30 54 1 29 52
M  V30 55 1 29 53
M  V30 56 1 30 54
M  V30 57 1 30 55
M  V30 58 1 30 56
M  V30 59 1 31 57
M  V30 60 1 31 58
M  V30 61 1 31 59
M  V30 62 1 34 60
M  V30 63 1 34 61
M  V30 64 1 34 62
M  V30 END BOND
M  V30 END CTAB
M  END
>  <Dataset>  (487) 
ChEMBL_Kinases

>  <Ligand_Instance>  (487) 
nan

>  <PDB_ID>  (487) 
nan

>  <Standardized_SMILES>  (487) 
CNC(=O)c1sc2ncnc(Nc3ccc(F)cc3OC(C)CNC(=O)OC(C)(C)C)c2c1C

>  <Name>  (487) 
nan

>  <Pocket>  (487) 
nan

>  <ATP_Site>  (487) 
nan

>  <Peripheral>  (487) 
nan

>  <Num_H_Atoms_ProtBoundConf>  (487) 
nan

>  <Num_Resolved_Atoms>  (487) 
nan

>  <Num_Not_Resolved_Atoms>  (487) 
nan

$$$$
CHEMBL3698911
     RDKit          3D

  0  0  0  0  0  0  0  0  0  0999 V3000
M  V30 BEGIN CTAB
M  V30 COUNTS 76 78 0 0 0
M  V30 BEGIN ATOM
M  V30 1 C 0.408907 -0.967912 2.386529 0
M  V30 2 C 1.823779 -0.970298 1.941442 0
M  V30 3 C 2.189047 0.197210 1.377094 0
M  V30 4 C 1.764220 1.512218 1.034715 0
M  V30 5 O 2.550273 2.354534 0.469822 0
M  V30 6 N 0.527268 2.183662 1.195407 0
M  V30 7 C 0.343233 3.552387 0.761804 0
M  V30 8 C -1.088823 3.945885 1.092598 0
M  V30 9 C -2.115574 3.097262 0.419488 0
M  V30 10 N -3.467985 3.480843 0.743901 0
M  V30 11 C -4.384926 2.612864 0.043485 0
M  V30 12 C -3.790870 4.840353 0.415910 0
M  V30 13 S 3.947463 -0.113982 0.920133 0
M  V30 14 C 4.014247 -1.766915 1.530705 0
M  V30 15 N 4.996362 -2.700915 1.583632 0
M  V30 16 C 4.816258 -3.902053 2.120760 0
M  V30 17 N 3.586715 -4.103428 2.600655 0
M  V30 18 C 2.591712 -3.229673 2.575531 0
M  V30 19 N 1.437044 -3.762811 3.190908 0
M  V30 20 C 0.382079 -4.701775 3.022685 0
M  V30 21 C 0.363461 -5.601108 4.098980 0
M  V30 22 C -0.553141 -6.610728 4.185933 0
M  V30 23 C -1.458917 -6.693154 3.152650 0
M  V30 24 F -2.389023 -7.678052 3.191236 0
M  V30 25 C -1.441388 -5.821357 2.107465 0
M  V30 26 C -0.532281 -4.796140 1.990253 0
M  V30 27 O -0.398751 -3.851019 0.990028 0
M  V30 28 C -1.275810 -3.849277 -0.082830 0
M  V30 29 C -0.741559 -4.832367 -1.174458 0
M  V30 30 C -1.523822 -2.579920 -0.786045 0
M  V30 31 N -0.361060 -1.977130 -1.383658 0
M  V30 32 C -0.288222 -0.767629 -2.154362 0
M  V30 33 O -1.359446 -0.135781 -2.342923 0
M  V30 34 O 0.917553 -0.355316 -2.648082 0
M  V30 35 C 1.067381 0.815483 -3.422844 0
M  V30 36 C 0.239573 0.752966 -4.692970 0
M  V30 37 C 2.505201 0.988817 -3.851026 0
M  V30 38 C 0.648413 2.068117 -2.699003 0
M  V30 39 C 2.744193 -1.979757 2.027121 0
M  V30 40 H 0.059708 -1.874193 2.872081 0
M  V30 41 H 0.223189 -0.147885 3.131548 0
M  V30 42 H -0.245996 -0.725949 1.491955 0
M  V30 43 H -0.216347 1.611768 1.643732 0
M  V30 44 H 1.012197 4.228424 1.337578 0
M  V30 45 H 0.480887 3.697365 -0.325850 0
M  V30 46 H -1.161854 3.807431 2.207560 0
M  V30 47 H -1.227997 5.012258 0.905193 0
M  V30 48 H -1.946627 3.095457 -0.663790 0
M  V30 49 H -2.017360 2.035316 0.789082 0
M  V30 50 H -3.900882 2.322552 -0.924025 0
M  V30 51 H -4.643197 1.691429 0.595191 0
M  V30 52 H -5.317690 3.146729 -0.263172 0
M  V30 53 H -4.904313 4.943883 0.319490 0
M  V30 54 H -3.362086 5.193753 -0.534135 0
M  V30 55 H -3.525336 5.554034 1.226685 0
M  V30 56 H 5.687598 -4.519823 2.083044 0
M  V30 57 H 1.457474 -3.218591 4.110494 0
M  V30 58 H 1.062565 -5.582361 4.951011 0
M  V30 59 H -0.615870 -7.331102 4.987440 0
M  V30 60 H -2.166392 -5.949062 1.348175 0
M  V30 61 H -2.217482 -4.353965 0.218891 0
M  V30 62 H -1.562241 -5.315086 -1.707277 0
M  V30 63 H -0.012658 -5.516873 -0.710147 0
M  V30 64 H -0.187955 -4.216807 -1.902315 0
M  V30 65 H -2.303621 -2.660323 -1.567859 0
M  V30 66 H -1.915617 -1.809797 -0.064266 0
M  V30 67 H 0.554476 -2.474903 -1.238145 0
M  V30 68 H 0.736069 1.408984 -5.445913 0
M  V30 69 H -0.777348 1.174294 -4.565444 0
M  V30 70 H 0.155531 -0.274849 -5.085953 0
M  V30 71 H 2.862068 0.156205 -4.488916 0
M  V30 72 H 2.601923 1.979199 -4.354868 0
M  V30 73 H 3.129840 1.005355 -2.943939 0
M  V30 74 H 0.515017 2.855081 -3.474170 0
M  V30 75 H 1.513960 2.432325 -2.072757 0
M  V30 76 H -0.283813 1.985791 -2.131426 0
M  V30 END ATOM
M  V30 BEGIN BOND
M  V30 1 1 1 2
M  V30 2 2 2 3
M  V30 3 1 3 4
M  V30 4 2 4 5
M  V30 5 1 4 6
M  V30 6 1 6 7
M  V30 7 1 7 8
M  V30 8 1 8 9
M  V30 9 1 9 10
M  V30 10 1 10 11
M  V30 11 1 10 12
M  V30 12 1 3 13
M  V30 13 1 13 14
M  V30 14 2 14 15
M  V30 15 1 15 16
M  V30 16 2 16 17
M  V30 17 1 17 18
M  V30 18 1 18 19
M  V30 19 1 19 20
M  V30 20 2 20 21
M  V30 21 1 21 22
M  V30 22 2 22 23
M  V30 23 1 23 24
M  V30 24 1 23 25
M  V30 25 2 25 26
M  V30 26 1 26 27
M  V30 27 1 27 28
M  V30 28 1 28 29
M  V30 29 1 28 30
M  V30 30 1 30 31
M  V30 31 1 31 32
M  V30 32 2 32 33
M  V30 33 1 32 34
M  V30 34 1 34 35
M  V30 35 1 35 36
M  V30 36 1 35 37
M  V30 37 1 35 38
M  V30 38 2 18 39
M  V30 39 1 39 2
M  V30 40 1 39 14
M  V30 41 1 26 20
M  V30 42 1 1 40
M  V30 43 1 1 41
M  V30 44 1 1 42
M  V30 45 1 6 43
M  V30 46 1 7 44
M  V30 47 1 7 45
M  V30 48 1 8 46
M  V30 49 1 8 47
M  V30 50 1 9 48
M  V30 51 1 9 49
M  V30 52 1 11 50
M  V30 53 1 11 51
M  V30 54 1 11 52
M  V30 55 1 12 53
M  V30 56 1 12 54
M  V30 57 1 12 55
M  V30 58 1 16 56
M  V30 59 1 19 57
M  V30 60 1 21 58
M  V30 61 1 22 59
M  V30 62 1 25 60
M  V30 63 1 28 61
M  V30 64 1 29 62
M  V30 65 1 29 63
M  V30 66 1 29 64
M  V30 67 1 30 65
M  V30 68 1 30 66
M  V30 69 1 31 67
M  V30 70 1 36 68
M  V30 71 1 36 69
M  V30 72 1 36 70
M  V30 73 1 37 71
M  V30 74 1 37 72
M  V30 75 1 37 73
M  V30 76 1 38 74
M  V30 77 1 38 75
M  V30 78 1 38 76
M  V30 END BOND
M  V30 END CTAB
M  END
>  <Dataset>  (488) 
ChEMBL_Kinases

>  <Ligand_Instance>  (488) 
nan

>  <PDB_ID>  (488) 
nan

>  <Standardized_SMILES>  (488) 
Cc1c(C(=O)NCCCN(C)C)sc2ncnc(Nc3ccc(F)cc3OC(C)CNC(=O)OC(C)(C)C)c12

>  <Name>  (488) 
nan

>  <Pocket>  (488) 
nan

>  <ATP_Site>  (488) 
nan

>  <Peripheral>  (488) 
nan

>  <Num_H_Atoms_ProtBoundConf>  (488) 
nan

>  <Num_Resolved_Atoms>  (488) 
nan

>  <Num_Not_Resolved_Atoms>  (488) 
nan

$$$$
CHEMBL3698742
     RDKit          3D

  0  0  0  0  0  0  0  0  0  0999 V3000
M  V30 BEGIN CTAB
M  V30 COUNTS 59 64 0 0 0
M  V30 BEGIN ATOM
M  V30 1 C 2.797197 -2.337846 6.713950 0
M  V30 2 N 2.635301 -3.384328 5.762715 0
M  V30 3 C 3.823973 -4.007663 5.288973 0
M  V30 4 C 4.167117 -3.757988 3.841702 0
M  V30 5 N 3.015469 -3.223142 3.137094 0
M  V30 6 C 2.911323 -2.210468 2.178080 0
M  V30 7 C 4.039416 -1.695637 1.547752 0
M  V30 8 C 3.796474 -0.692092 0.625959 0
M  V30 9 C 2.501388 -0.224285 0.345884 0
M  V30 10 N 2.193842 0.773331 -0.598294 0
M  V30 11 C 0.869719 1.261652 -0.824657 0
M  V30 12 N 0.760239 2.505421 -0.353269 0
M  V30 13 C -0.429784 3.157162 -0.462260 0
M  V30 14 C -1.492910 2.517488 -1.055969 0
M  V30 15 C -2.785720 2.970315 -1.275777 0
M  V30 16 C -3.470310 4.154379 -1.010845 0
M  V30 17 C -4.798718 4.306254 -1.365104 0
M  V30 18 N -5.406590 3.285739 -1.968207 0
M  V30 19 C -4.743344 2.151202 -2.219781 0
M  V30 20 C -3.416667 1.907857 -1.903247 0
M  V30 21 N -2.541582 0.896316 -2.040188 0
M  V30 22 C -2.906658 -0.337771 -2.640781 0
M  V30 23 C -1.851217 -1.412827 -2.512326 0
M  V30 24 C -2.400519 -2.509678 -3.415142 0
M  V30 25 C -3.268788 -1.819604 -4.430430 0
M  V30 26 C -3.156925 -0.321092 -4.110232 0
M  V30 27 C -1.358806 1.221153 -1.540404 0
M  V30 28 N -0.149389 0.598842 -1.413930 0
M  V30 29 N 1.480500 -0.783448 1.005322 0
M  V30 30 N 1.702031 -1.739423 1.883873 0
M  V30 31 C 1.817150 -3.956236 3.586452 0
M  V30 32 C 1.498359 -3.347807 4.935140 0
M  V30 33 H 3.852630 -2.138502 6.979417 0
M  V30 34 H 2.316007 -1.384666 6.429045 0
M  V30 35 H 2.245616 -2.652717 7.647237 0
M  V30 36 H 3.756663 -5.100270 5.473396 0
M  V30 37 H 4.700533 -3.675623 5.901975 0
M  V30 38 H 4.368049 -4.736165 3.360311 0
M  V30 39 H 5.071621 -3.165879 3.770967 0
M  V30 40 H 5.020951 -2.042274 1.754973 0
M  V30 41 H 4.614764 -0.243724 0.099671 0
M  V30 42 H 2.978506 1.175655 -1.160050 0
M  V30 43 H -0.577818 4.164914 -0.101049 0
M  V30 44 H -2.959247 4.952760 -0.528001 0
M  V30 45 H -5.364377 5.211153 -1.176193 0
M  V30 46 H -5.304163 1.383288 -2.705351 0
M  V30 47 H -3.828924 -0.724774 -2.128447 0
M  V30 48 H -0.896946 -1.088179 -2.967694 0
M  V30 49 H -1.725703 -1.781071 -1.470086 0
M  V30 50 H -1.575064 -3.020221 -3.963018 0
M  V30 51 H -2.979388 -3.250270 -2.806258 0
M  V30 52 H -2.938632 -2.040831 -5.460983 0
M  V30 53 H -4.333216 -2.098608 -4.253586 0
M  V30 54 H -2.264805 0.050589 -4.660622 0
M  V30 55 H -4.101587 0.197331 -4.404873 0
M  V30 56 H 1.014911 -3.782921 2.834453 0
M  V30 57 H 2.008440 -5.030415 3.735735 0
M  V30 58 H 0.615612 -3.833643 5.405504 0
M  V30 59 H 1.122865 -2.305649 4.691023 0
M  V30 END ATOM
M  V30 BEGIN BOND
M  V30 1 1 1 2
M  V30 2 1 2 3
M  V30 3 1 3 4
M  V30 4 1 4 5
M  V30 5 1 5 6
M  V30 6 2 6 7
M  V30 7 1 7 8
M  V30 8 2 8 9
M  V30 9 1 9 10
M  V30 10 1 10 11
M  V30 11 2 11 12
M  V30 12 1 12 13
M  V30 13 2 13 14
M  V30 14 1 14 15
M  V30 15 2 15 16
M  V30 16 1 16 17
M  V30 17 2 17 18
M  V30 18 1 18 19
M  V30 19 2 19 20
M  V30 20 1 20 21
M  V30 21 1 21 22
M  V30 22 1 22 23
M  V30 23 1 23 24
M  V30 24 1 24 25
M  V30 25 1 25 26
M  V30 26 1 21 27
M  V30 27 2 27 28
M  V30 28 1 9 29
M  V30 29 2 29 30
M  V30 30 1 5 31
M  V30 31 1 31 32
M  V30 32 1 32 2
M  V30 33 1 30 6
M  V30 34 1 28 11
M  V30 35 1 27 14
M  V30 36 1 20 15
M  V30 37 1 26 22
M  V30 38 1 1 33
M  V30 39 1 1 34
M  V30 40 1 1 35
M  V30 41 1 3 36
M  V30 42 1 3 37
M  V30 43 1 4 38
M  V30 44 1 4 39
M  V30 45 1 7 40
M  V30 46 1 8 41
M  V30 47 1 10 42
M  V30 48 1 13 43
M  V30 49 1 16 44
M  V30 50 1 17 45
M  V30 51 1 19 46
M  V30 52 1 22 47
M  V30 53 1 23 48
M  V30 54 1 23 49
M  V30 55 1 24 50
M  V30 56 1 24 51
M  V30 57 1 25 52
M  V30 58 1 25 53
M  V30 59 1 26 54
M  V30 60 1 26 55
M  V30 61 1 31 56
M  V30 62 1 31 57
M  V30 63 1 32 58
M  V30 64 1 32 59
M  V30 END BOND
M  V30 END CTAB
M  END
>  <Dataset>  (489) 
ChEMBL_Kinases

>  <Ligand_Instance>  (489) 
nan

>  <PDB_ID>  (489) 
nan

>  <Standardized_SMILES>  (489) 
CN1CCN(c2ccc(Nc3ncc4c5ccncc5n(C5CCCC5)c4n3)nn2)CC1

>  <Name>  (489) 
nan

>  <Pocket>  (489) 
nan

>  <ATP_Site>  (489) 
nan

>  <Peripheral>  (489) 
nan

>  <Num_H_Atoms_ProtBoundConf>  (489) 
nan

>  <Num_Resolved_Atoms>  (489) 
nan

>  <Num_Not_Resolved_Atoms>  (489) 
nan

$$$$
CHEMBL3679452
     RDKit          3D

  0  0  0  0  0  0  0  0  0  0999 V3000
M  V30 BEGIN CTAB
M  V30 COUNTS 56 60 0 0 0
M  V30 BEGIN ATOM
M  V30 1 O -0.009830 -4.506070 2.555456 0
M  V30 2 C -0.417173 -3.810412 1.610727 0
M  V30 3 N -0.042068 -2.442978 1.629476 0
M  V30 4 C 0.764599 -1.932140 2.700342 0
M  V30 5 C 1.006496 -0.482346 2.468903 0
M  V30 6 C 2.151420 0.118936 2.018461 0
M  V30 7 N 2.190934 1.466514 1.867168 0
M  V30 8 C 3.440339 1.963784 1.392646 0
M  V30 9 C 3.779267 2.510931 0.173109 0
M  V30 10 C 5.075554 2.920079 -0.036092 0
M  V30 11 C 6.044806 2.798751 0.938021 0
M  V30 12 C 5.719546 2.250395 2.169564 0
M  V30 13 C 4.400764 1.832223 2.387498 0
M  V30 14 C 1.140360 2.251920 2.143633 0
M  V30 15 C 1.245222 3.613262 1.968507 0
M  V30 16 C 0.216601 4.483865 2.228579 0
M  V30 17 Cl 0.387098 6.191553 1.995625 0
M  V30 18 C -0.957285 3.896508 2.687380 0
M  V30 19 C -1.109092 2.535848 2.878339 0
M  V30 20 C -0.036401 1.708945 2.598874 0
M  V30 21 C -0.088805 0.324902 2.758348 0
M  V30 22 O -1.203252 -0.104650 3.180945 0
M  V30 23 C -1.231550 -4.439040 0.578097 0
M  V30 24 C -1.494962 -5.783245 0.723394 0
M  V30 25 C -2.276314 -6.372717 -0.271728 0
M  V30 26 N -2.765673 -5.693954 -1.334861 0
M  V30 27 C -2.512112 -4.365478 -1.489196 0
M  V30 28 N -2.987209 -3.577310 -2.574850 0
M  V30 29 C -2.795623 -2.169277 -2.880071 0
M  V30 30 C -4.252523 -1.750740 -3.064263 0
M  V30 31 C -4.962543 -3.010275 -3.545476 0
M  V30 32 C -3.815754 -4.022664 -3.683546 0
M  V30 33 C -1.741467 -3.771385 -0.513049 0
M  V30 34 H -0.369821 -1.831554 0.846960 0
M  V30 35 H 0.337801 -2.153442 3.693483 0
M  V30 36 H 1.777563 -2.412528 2.642186 0
M  V30 37 H 2.967597 -0.558809 1.810503 0
M  V30 38 H 2.936760 2.550919 -0.499862 0
M  V30 39 H 5.278310 3.338556 -1.007017 0
M  V30 40 H 7.037908 3.152133 0.673427 0
M  V30 41 H 6.512383 2.177176 2.896552 0
M  V30 42 H 4.286633 1.425886 3.385159 0
M  V30 43 H 2.181752 4.007536 1.609841 0
M  V30 44 H -1.814733 4.524073 2.914310 0
M  V30 45 H -2.028321 2.095237 3.235597 0
M  V30 46 H -1.125493 -6.362010 1.554117 0
M  V30 47 H -2.501322 -7.411980 -0.193410 0
M  V30 48 H -2.291563 -1.602221 -2.095328 0
M  V30 49 H -2.316921 -2.037568 -3.881415 0
M  V30 50 H -4.596182 -1.492756 -2.030306 0
M  V30 51 H -4.364227 -0.909836 -3.769166 0
M  V30 52 H -5.522052 -2.872677 -4.475257 0
M  V30 53 H -5.599402 -3.400609 -2.701806 0
M  V30 54 H -3.322769 -3.886773 -4.652953 0
M  V30 55 H -4.192422 -5.050416 -3.507462 0
M  V30 56 H -1.511342 -2.727937 -0.585268 0
M  V30 END ATOM
M  V30 BEGIN BOND
M  V30 1 2 1 2
M  V30 2 1 2 3
M  V30 3 1 3 4
M  V30 4 1 4 5
M  V30 5 2 5 6
M  V30 6 1 6 7
M  V30 7 1 7 8
M  V30 8 2 8 9
M  V30 9 1 9 10
M  V30 10 2 10 11
M  V30 11 1 11 12
M  V30 12 2 12 13
M  V30 13 1 7 14
M  V30 14 2 14 15
M  V30 15 1 15 16
M  V30 16 1 16 17
M  V30 17 2 16 18
M  V30 18 1 18 19
M  V30 19 2 19 20
M  V30 20 1 20 21
M  V30 21 2 21 22
M  V30 22 1 2 23
M  V30 23 2 23 24
M  V30 24 1 24 25
M  V30 25 2 25 26
M  V30 26 1 26 27
M  V30 27 1 27 28
M  V30 28 1 28 29
M  V30 29 1 29 30
M  V30 30 1 30 31
M  V30 31 1 31 32
M  V30 32 2 27 33
M  V30 33 1 21 5
M  V30 34 1 33 23
M  V30 35 1 13 8
M  V30 36 1 20 14
M  V30 37 1 32 28
M  V30 38 1 3 34
M  V30 39 1 4 35
M  V30 40 1 4 36
M  V30 41 1 6 37
M  V30 42 1 9 38
M  V30 43 1 10 39
M  V30 44 1 11 40
M  V30 45 1 12 41
M  V30 46 1 13 42
M  V30 47 1 15 43
M  V30 48 1 18 44
M  V30 49 1 19 45
M  V30 50 1 24 46
M  V30 51 1 25 47
M  V30 52 1 29 48
M  V30 53 1 29 49
M  V30 54 1 30 50
M  V30 55 1 30 51
M  V30 56 1 31 52
M  V30 57 1 31 53
M  V30 58 1 32 54
M  V30 59 1 32 55
M  V30 60 1 33 56
M  V30 END BOND
M  V30 END CTAB
M  END
>  <Dataset>  (490) 
ChEMBL_Kinases

>  <Ligand_Instance>  (490) 
nan

>  <PDB_ID>  (490) 
nan

>  <Standardized_SMILES>  (490) 
O=C(NCc1cn(-c2ccccc2)c2cc(Cl)ccc2c1=O)c1ccnc(N2CCCC2)c1

>  <Name>  (490) 
nan

>  <Pocket>  (490) 
nan

>  <ATP_Site>  (490) 
nan

>  <Peripheral>  (490) 
nan

>  <Num_H_Atoms_ProtBoundConf>  (490) 
nan

>  <Num_Resolved_Atoms>  (490) 
nan

>  <Num_Not_Resolved_Atoms>  (490) 
nan

$$$$
CHEMBL3679451
     RDKit          3D

  0  0  0  0  0  0  0  0  0  0999 V3000
M  V30 BEGIN CTAB
M  V30 COUNTS 57 61 0 0 0
M  V30 BEGIN ATOM
M  V30 1 O -0.724948 -3.164924 2.640487 0
M  V30 2 C -0.314039 -3.142289 1.456821 0
M  V30 3 N 0.888632 -2.447882 1.252557 0
M  V30 4 C 1.869930 -1.707338 1.966832 0
M  V30 5 C 1.420372 -0.475775 2.619705 0
M  V30 6 C 1.638046 0.715438 1.912461 0
M  V30 7 N 1.294279 1.950698 2.294693 0
M  V30 8 C 1.571751 3.090094 1.487044 0
M  V30 9 C 2.440514 4.111568 1.881269 0
M  V30 10 C 2.666955 5.199014 1.040501 0
M  V30 11 C 2.058082 5.303775 -0.179203 0
M  V30 12 C 1.209726 4.305827 -0.565088 0
M  V30 13 C 0.970370 3.219092 0.252300 0
M  V30 14 C 0.670960 2.117297 3.476710 0
M  V30 15 C 0.291361 3.364075 3.922879 0
M  V30 16 C -0.355846 3.503646 5.156275 0
M  V30 17 Cl -0.849129 5.079926 5.747202 0
M  V30 18 C -0.598295 2.363837 5.901990 0
M  V30 19 C -0.225674 1.099383 5.473775 0
M  V30 20 C 0.408502 1.009461 4.253622 0
M  V30 21 C 0.782871 -0.230614 3.813250 0
M  V30 22 O 0.547563 -1.236373 4.520149 0
M  V30 23 C -1.124079 -3.828207 0.468051 0
M  V30 24 C -2.257936 -4.462348 0.919411 0
M  V30 25 C -3.059659 -5.133316 -0.000298 0
M  V30 26 N -2.773871 -5.189112 -1.313458 0
M  V30 27 C -1.651864 -4.566696 -1.787750 0
M  V30 28 N -1.359960 -4.634493 -3.175505 0
M  V30 29 C -0.276281 -4.005709 -3.908180 0
M  V30 30 C -1.042420 -3.056415 -4.841342 0
M  V30 31 O -1.630169 -3.849286 -5.792660 0
M  V30 32 C -2.629977 -4.642714 -5.275864 0
M  V30 33 C -2.208788 -5.421840 -4.054119 0
M  V30 34 C -0.869761 -3.910186 -0.881584 0
M  V30 35 H 1.096345 -2.525745 0.200598 0
M  V30 36 H 2.337183 -2.348860 2.796017 0
M  V30 37 H 2.729475 -1.473894 1.325179 0
M  V30 38 H 2.138156 0.678207 0.941688 0
M  V30 39 H 2.926106 4.028916 2.852869 0
M  V30 40 H 3.338948 5.991868 1.339107 0
M  V30 41 H 2.203069 6.133807 -0.870948 0
M  V30 42 H 0.686661 4.308892 -1.512394 0
M  V30 43 H 0.289852 2.410754 -0.044897 0
M  V30 44 H 0.474441 4.260714 3.351885 0
M  V30 45 H -1.108613 2.512761 6.866099 0
M  V30 46 H -0.458510 0.268277 6.131050 0
M  V30 47 H -2.583966 -4.484481 1.941159 0
M  V30 48 H -3.940563 -5.631780 0.323868 0
M  V30 49 H 0.232829 -4.783177 -4.516540 0
M  V30 50 H 0.436661 -3.477246 -3.256313 0
M  V30 51 H -0.428807 -2.243967 -5.229585 0
M  V30 52 H -1.878595 -2.565846 -4.266345 0
M  V30 53 H -2.899750 -5.385474 -6.062597 0
M  V30 54 H -3.527241 -4.010075 -5.097623 0
M  V30 55 H -1.647644 -6.329714 -4.414116 0
M  V30 56 H -3.134261 -5.748090 -3.536359 0
M  V30 57 H 0.003019 -3.427208 -1.253642 0
M  V30 END ATOM
M  V30 BEGIN BOND
M  V30 1 2 1 2
M  V30 2 1 2 3
M  V30 3 1 3 4
M  V30 4 1 4 5
M  V30 5 2 5 6
M  V30 6 1 6 7
M  V30 7 1 7 8
M  V30 8 2 8 9
M  V30 9 1 9 10
M  V30 10 2 10 11
M  V30 11 1 11 12
M  V30 12 2 12 13
M  V30 13 1 7 14
M  V30 14 2 14 15
M  V30 15 1 15 16
M  V30 16 1 16 17
M  V30 17 2 16 18
M  V30 18 1 18 19
M  V30 19 2 19 20
M  V30 20 1 20 21
M  V30 21 2 21 22
M  V30 22 1 2 23
M  V30 23 2 23 24
M  V30 24 1 24 25
M  V30 25 2 25 26
M  V30 26 1 26 27
M  V30 27 1 27 28
M  V30 28 1 28 29
M  V30 29 1 29 30
M  V30 30 1 30 31
M  V30 31 1 31 32
M  V30 32 1 32 33
M  V30 33 2 27 34
M  V30 34 1 21 5
M  V30 35 1 34 23
M  V30 36 1 13 8
M  V30 37 1 20 14
M  V30 38 1 33 28
M  V30 39 1 3 35
M  V30 40 1 4 36
M  V30 41 1 4 37
M  V30 42 1 6 38
M  V30 43 1 9 39
M  V30 44 1 10 40
M  V30 45 1 11 41
M  V30 46 1 12 42
M  V30 47 1 13 43
M  V30 48 1 15 44
M  V30 49 1 18 45
M  V30 50 1 19 46
M  V30 51 1 24 47
M  V30 52 1 25 48
M  V30 53 1 29 49
M  V30 54 1 29 50
M  V30 55 1 30 51
M  V30 56 1 30 52
M  V30 57 1 32 53
M  V30 58 1 32 54
M  V30 59 1 33 55
M  V30 60 1 33 56
M  V30 61 1 34 57
M  V30 END BOND
M  V30 END CTAB
M  END
>  <Dataset>  (491) 
ChEMBL_Kinases

>  <Ligand_Instance>  (491) 
nan

>  <PDB_ID>  (491) 
nan

>  <Standardized_SMILES>  (491) 
O=C(NCc1cn(-c2ccccc2)c2cc(Cl)ccc2c1=O)c1ccnc(N2CCOCC2)c1

>  <Name>  (491) 
nan

>  <Pocket>  (491) 
nan

>  <ATP_Site>  (491) 
nan

>  <Peripheral>  (491) 
nan

>  <Num_H_Atoms_ProtBoundConf>  (491) 
nan

>  <Num_Resolved_Atoms>  (491) 
nan

>  <Num_Not_Resolved_Atoms>  (491) 
nan

$$$$
CHEMBL3679450
     RDKit          3D

  0  0  0  0  0  0  0  0  0  0999 V3000
M  V30 BEGIN CTAB
M  V30 COUNTS 45 48 0 0 0
M  V30 BEGIN ATOM
M  V30 1 C -0.009495 -6.710907 2.775587 0
M  V30 2 N 0.949269 -6.229817 1.800105 0
M  V30 3 C 0.918904 -4.962492 1.335898 0
M  V30 4 C 1.964172 -4.877778 0.442866 0
M  V30 5 C 2.327628 -3.687975 -0.315679 0
M  V30 6 O 3.316525 -3.721799 -1.114595 0
M  V30 7 N 1.609649 -2.480035 -0.193248 0
M  V30 8 C 1.974746 -1.276953 -0.958417 0
M  V30 9 C 0.990660 -0.233650 -0.551869 0
M  V30 10 C 1.203486 0.825271 0.296225 0
M  V30 11 N 0.216715 1.695084 0.575660 0
M  V30 12 C 0.468502 2.781683 1.457982 0
M  V30 13 C 0.599469 4.089540 0.991472 0
M  V30 14 C 0.839464 5.057553 1.917461 0
M  V30 15 C 0.966945 4.883777 3.266320 0
M  V30 16 C 0.828713 3.566092 3.680831 0
M  V30 17 C 0.584409 2.519114 2.815422 0
M  V30 18 C -1.025970 1.623841 0.077397 0
M  V30 19 C -2.033927 2.502051 0.355442 0
M  V30 20 C -3.307127 2.387906 -0.184864 0
M  V30 21 Cl -4.563585 3.526943 0.193803 0
M  V30 22 C -3.524049 1.320478 -1.040581 0
M  V30 23 C -2.541086 0.392254 -1.364115 0
M  V30 24 C -1.299137 0.574803 -0.785193 0
M  V30 25 C -0.294101 -0.333393 -1.086037 0
M  V30 26 O -0.564191 -1.280331 -1.873137 0
M  V30 27 C 2.607841 -6.097654 0.383870 0
M  V30 28 N 1.951405 -6.928948 1.245065 0
M  V30 29 H -0.066002 -6.101709 3.681352 0
M  V30 30 H 0.198507 -7.777906 2.966174 0
M  V30 31 H -1.008061 -6.708848 2.247909 0
M  V30 32 H 0.220075 -4.187150 1.611563 0
M  V30 33 H 0.795979 -2.515777 0.488915 0
M  V30 34 H 1.948283 -1.454544 -2.041487 0
M  V30 35 H 3.010705 -0.963845 -0.716352 0
M  V30 36 H 2.201861 0.895192 0.706034 0
M  V30 37 H 0.502276 4.249024 -0.070194 0
M  V30 38 H 0.939482 6.078773 1.533885 0
M  V30 39 H 1.157559 5.678359 3.969116 0
M  V30 40 H 0.907049 3.292891 4.718624 0
M  V30 41 H 0.478048 1.490001 3.153446 0
M  V30 42 H -1.787820 3.304738 1.028833 0
M  V30 43 H -4.530832 1.247549 -1.455197 0
M  V30 44 H -2.763555 -0.422828 -2.037867 0
M  V30 45 H 3.469446 -6.401584 -0.208278 0
M  V30 END ATOM
M  V30 BEGIN BOND
M  V30 1 1 1 2
M  V30 2 1 2 3
M  V30 3 2 3 4
M  V30 4 1 4 5
M  V30 5 2 5 6
M  V30 6 1 5 7
M  V30 7 1 7 8
M  V30 8 1 8 9
M  V30 9 2 9 10
M  V30 10 1 10 11
M  V30 11 1 11 12
M  V30 12 2 12 13
M  V30 13 1 13 14
M  V30 14 2 14 15
M  V30 15 1 15 16
M  V30 16 2 16 17
M  V30 17 1 11 18
M  V30 18 2 18 19
M  V30 19 1 19 20
M  V30 20 1 20 21
M  V30 21 2 20 22
M  V30 22 1 22 23
M  V30 23 2 23 24
M  V30 24 1 24 25
M  V30 25 2 25 26
M  V30 26 1 4 27
M  V30 27 2 27 28
M  V30 28 1 28 2
M  V30 29 1 25 9
M  V30 30 1 17 12
M  V30 31 1 24 18
M  V30 32 1 1 29
M  V30 33 1 1 30
M  V30 34 1 1 31
M  V30 35 1 3 32
M  V30 36 1 7 33
M  V30 37 1 8 34
M  V30 38 1 8 35
M  V30 39 1 10 36
M  V30 40 1 13 37
M  V30 41 1 14 38
M  V30 42 1 15 39
M  V30 43 1 16 40
M  V30 44 1 17 41
M  V30 45 1 19 42
M  V30 46 1 22 43
M  V30 47 1 23 44
M  V30 48 1 27 45
M  V30 END BOND
M  V30 END CTAB
M  END
>  <Dataset>  (492) 
ChEMBL_Kinases

>  <Ligand_Instance>  (492) 
nan

>  <PDB_ID>  (492) 
nan

>  <Standardized_SMILES>  (492) 
Cn1cc(C(=O)NCc2cn(-c3ccccc3)c3cc(Cl)ccc3c2=O)cn1

>  <Name>  (492) 
nan

>  <Pocket>  (492) 
nan

>  <ATP_Site>  (492) 
nan

>  <Peripheral>  (492) 
nan

>  <Num_H_Atoms_ProtBoundConf>  (492) 
nan

>  <Num_Resolved_Atoms>  (492) 
nan

>  <Num_Not_Resolved_Atoms>  (492) 
nan

$$$$
CHEMBL3679449
     RDKit          3D

  0  0  0  0  0  0  0  0  0  0999 V3000
M  V30 BEGIN CTAB
M  V30 COUNTS 58 62 0 0 0
M  V30 BEGIN ATOM
M  V30 1 O 2.052267 -0.689071 1.479367 0
M  V30 2 C 1.407091 -1.744660 1.800860 0
M  V30 3 N 0.865619 -1.702657 3.104792 0
M  V30 4 C 0.984234 -0.607019 4.048099 0
M  V30 5 C 0.360968 0.588848 3.426081 0
M  V30 6 C 0.968642 1.688684 2.860428 0
M  V30 7 N 0.230171 2.683834 2.340351 0
M  V30 8 C 0.916666 3.798151 1.764400 0
M  V30 9 C 0.858227 3.694009 0.371028 0
M  V30 10 C 1.463645 4.674653 -0.420926 0
M  V30 11 C 2.117606 5.743427 0.197944 0
M  V30 12 C 2.155540 5.813996 1.564027 0
M  V30 13 C 1.563748 4.855524 2.358796 0
M  V30 14 C -1.116533 2.658396 2.345235 0
M  V30 15 C -1.844712 3.705855 1.797595 0
M  V30 16 C -3.241540 3.669743 1.807176 0
M  V30 17 Cl -4.211252 4.976925 1.122552 0
M  V30 18 C -3.917742 2.588149 2.363334 0
M  V30 19 C -3.171872 1.559942 2.901054 0
M  V30 20 C -1.791741 1.582027 2.898579 0
M  V30 21 C -1.038268 0.557582 3.433708 0
M  V30 22 O -1.702498 -0.394698 3.922683 0
M  V30 23 C 1.277510 -2.847343 0.872162 0
M  V30 24 C 0.590293 -4.012664 1.134856 0
M  V30 25 C 0.536656 -5.001663 0.161000 0
M  V30 26 N 1.121280 -4.905711 -1.054260 0
M  V30 27 C 0.997195 -6.004201 -1.990296 0
M  V30 28 C -0.170813 -5.910644 -2.873078 0
M  V30 29 C -1.433999 -6.406096 -2.635435 0
M  V30 30 C -2.482095 -6.273553 -3.527038 0
M  V30 31 C -2.289166 -5.622251 -4.716286 0
M  V30 32 C -1.032562 -5.113077 -4.985363 0
M  V30 33 C 0.014675 -5.251285 -4.082931 0
M  V30 34 C 1.788271 -3.764057 -1.297643 0
M  V30 35 O 2.350837 -3.625029 -2.414809 0
M  V30 36 C 1.879189 -2.738299 -0.367168 0
M  V30 37 H 0.326712 -2.576213 3.385307 0
M  V30 38 H 0.427629 -0.856007 4.967964 0
M  V30 39 H 2.044025 -0.362368 4.268490 0
M  V30 40 H 2.048299 1.656491 2.886896 0
M  V30 41 H 0.401821 2.947173 -0.243790 0
M  V30 42 H 1.475121 4.685774 -1.503271 0
M  V30 43 H 2.589973 6.508925 -0.410999 0
M  V30 44 H 2.652577 6.626385 2.106085 0
M  V30 45 H 1.525629 4.800848 3.431852 0
M  V30 46 H -1.341769 4.575248 1.350359 0
M  V30 47 H -4.996299 2.495673 2.404339 0
M  V30 48 H -3.675883 0.697872 3.345228 0
M  V30 49 H 0.107662 -4.132044 2.094434 0
M  V30 50 H -0.023047 -5.880134 0.453228 0
M  V30 51 H 0.878256 -6.939751 -1.376510 0
M  V30 52 H 1.950270 -6.138600 -2.555256 0
M  V30 53 H -1.569022 -6.926139 -1.674119 0
M  V30 54 H -3.456924 -6.689409 -3.275354 0
M  V30 55 H -3.103788 -5.507047 -5.432710 0
M  V30 56 H -0.940121 -4.605342 -5.947365 0
M  V30 57 H 0.933268 -4.792215 -4.455843 0
M  V30 58 H 2.434680 -1.852739 -0.642577 0
M  V30 END ATOM
M  V30 BEGIN BOND
M  V30 1 2 1 2
M  V30 2 1 2 3
M  V30 3 1 3 4
M  V30 4 1 4 5
M  V30 5 2 5 6
M  V30 6 1 6 7
M  V30 7 1 7 8
M  V30 8 2 8 9
M  V30 9 1 9 10
M  V30 10 2 10 11
M  V30 11 1 11 12
M  V30 12 2 12 13
M  V30 13 1 7 14
M  V30 14 2 14 15
M  V30 15 1 15 16
M  V30 16 1 16 17
M  V30 17 2 16 18
M  V30 18 1 18 19
M  V30 19 2 19 20
M  V30 20 1 20 21
M  V30 21 2 21 22
M  V30 22 1 2 23
M  V30 23 1 23 24
M  V30 24 2 24 25
M  V30 25 1 25 26
M  V30 26 1 26 27
M  V30 27 1 27 28
M  V30 28 2 28 29
M  V30 29 1 29 30
M  V30 30 2 30 31
M  V30 31 1 31 32
M  V30 32 2 32 33
M  V30 33 1 26 34
M  V30 34 2 34 35
M  V30 35 1 34 36
M  V30 36 1 21 5
M  V30 37 2 36 23
M  V30 38 1 13 8
M  V30 39 1 20 14
M  V30 40 1 33 28
M  V30 41 1 3 37
M  V30 42 1 4 38
M  V30 43 1 4 39
M  V30 44 1 6 40
M  V30 45 1 9 41
M  V30 46 1 10 42
M  V30 47 1 11 43
M  V30 48 1 12 44
M  V30 49 1 13 45
M  V30 50 1 15 46
M  V30 51 1 18 47
M  V30 52 1 19 48
M  V30 53 1 24 49
M  V30 54 1 25 50
M  V30 55 1 27 51
M  V30 56 1 27 52
M  V30 57 1 29 53
M  V30 58 1 30 54
M  V30 59 1 31 55
M  V30 60 1 32 56
M  V30 61 1 33 57
M  V30 62 1 36 58
M  V30 END BOND
M  V30 END CTAB
M  END
>  <Dataset>  (493) 
ChEMBL_Kinases

>  <Ligand_Instance>  (493) 
nan

>  <PDB_ID>  (493) 
nan

>  <Standardized_SMILES>  (493) 
O=C(NCc1cn(-c2ccccc2)c2cc(Cl)ccc2c1=O)c1ccn(Cc2ccccc2)c(=O)c1

>  <Name>  (493) 
nan

>  <Pocket>  (493) 
nan

>  <ATP_Site>  (493) 
nan

>  <Peripheral>  (493) 
nan

>  <Num_H_Atoms_ProtBoundConf>  (493) 
nan

>  <Num_Resolved_Atoms>  (493) 
nan

>  <Num_Not_Resolved_Atoms>  (493) 
nan

$$$$
CHEMBL3679448
     RDKit          3D

  0  0  0  0  0  0  0  0  0  0999 V3000
M  V30 BEGIN CTAB
M  V30 COUNTS 69 73 0 0 0
M  V30 BEGIN ATOM
M  V30 1 C 4.589234 -0.161396 -0.057392 0
M  V30 2 N 3.809274 -1.145617 0.652351 0
M  V30 3 C 4.572996 -2.371667 0.919923 0
M  V30 4 C 2.433986 -0.974396 1.065842 0
M  V30 5 O 2.043817 0.162424 0.704381 0
M  V30 6 C 1.867988 -2.134611 1.777504 0
M  V30 7 C 1.275250 -3.173591 1.084033 0
M  V30 8 C 1.240333 -2.996609 -0.411886 0
M  V30 9 N 0.145507 -2.035980 -0.634403 0
M  V30 10 C -0.180438 -1.587310 -1.950021 0
M  V30 11 O 0.515843 -2.048812 -2.881066 0
M  V30 12 C -1.257797 -0.645103 -2.221744 0
M  V30 13 C -2.131620 -0.220608 -1.252876 0
M  V30 14 C -3.127655 0.675777 -1.565279 0
M  V30 15 C -3.287391 1.181622 -2.857736 0
M  V30 16 N -4.289666 2.098084 -3.273258 0
M  V30 17 C -4.277513 2.720153 -4.557856 0
M  V30 18 C -5.590794 3.397697 -4.804184 0
M  V30 19 C -6.780566 2.488333 -4.483242 0
M  V30 20 C -6.641951 1.863767 -3.127403 0
M  V30 21 C -5.431347 2.491975 -2.450773 0
M  V30 22 N -2.416433 0.748880 -3.789976 0
M  V30 23 C -1.424004 -0.141345 -3.490344 0
M  V30 24 C 0.774507 -4.237412 1.813095 0
M  V30 25 O 0.254190 -5.142700 1.143587 0
M  V30 26 C 0.896957 -4.195313 3.186244 0
M  V30 27 C 0.391730 -5.263718 3.906984 0
M  V30 28 C 0.491943 -5.262109 5.286311 0
M  V30 29 C 1.102047 -4.172425 5.866398 0
M  V30 30 Cl 1.237403 -4.153184 7.613656 0
M  V30 31 C 1.623786 -3.080444 5.202341 0
M  V30 32 C 1.500148 -3.126405 3.818911 0
M  V30 33 N 2.004921 -2.060882 3.125723 0
M  V30 34 C 2.624209 -0.959785 3.768042 0
M  V30 35 C 3.869783 -0.926849 4.350693 0
M  V30 36 C 4.369262 0.216764 4.949249 0
M  V30 37 C 3.585545 1.361277 4.958901 0
M  V30 38 C 2.345071 1.329980 4.379111 0
M  V30 39 C 1.826865 0.191917 3.773724 0
M  V30 40 H 4.060352 0.795081 -0.238960 0
M  V30 41 H 5.536739 -0.028725 0.542845 0
M  V30 42 H 4.942266 -0.621959 -1.004175 0
M  V30 43 H 4.005660 -3.045106 1.596627 0
M  V30 44 H 5.477571 -2.073880 1.487994 0
M  V30 45 H 4.788438 -2.952573 0.023611 0
M  V30 46 H 2.157691 -2.546208 -0.776558 0
M  V30 47 H 0.930188 -3.926631 -0.908085 0
M  V30 48 H -0.436114 -1.639817 0.135769 0
M  V30 49 H -2.085427 -0.553158 -0.247817 0
M  V30 50 H -3.812813 1.010174 -0.809786 0
M  V30 51 H -3.507366 3.534414 -4.512392 0
M  V30 52 H -3.986188 2.043649 -5.399088 0
M  V30 53 H -5.682319 3.633913 -5.892107 0
M  V30 54 H -5.640750 4.365921 -4.290949 0
M  V30 55 H -6.778947 1.690100 -5.264918 0
M  V30 56 H -7.693152 3.096417 -4.594463 0
M  V30 57 H -6.431787 0.767020 -3.241061 0
M  V30 58 H -7.554499 1.995688 -2.538164 0
M  V30 59 H -5.365274 2.134729 -1.419441 0
M  V30 60 H -5.526117 3.581184 -2.413471 0
M  V30 61 H -0.794513 -0.402381 -4.339057 0
M  V30 62 H -0.082888 -6.101505 3.395398 0
M  V30 63 H 0.117508 -6.062980 5.882054 0
M  V30 64 H 2.091264 -2.260914 5.744580 0
M  V30 65 H 4.401535 -1.862297 4.292867 0
M  V30 66 H 5.371398 0.171899 5.396059 0
M  V30 67 H 3.967349 2.266159 5.426779 0
M  V30 68 H 1.746398 2.243240 4.399767 0
M  V30 69 H 0.837216 0.232392 3.332904 0
M  V30 END ATOM
M  V30 BEGIN BOND
M  V30 1 1 1 2
M  V30 2 1 2 3
M  V30 3 1 2 4
M  V30 4 2 4 5
M  V30 5 1 4 6
M  V30 6 2 6 7
M  V30 7 1 7 8
M  V30 8 1 8 9
M  V30 9 1 9 10
M  V30 10 2 10 11
M  V30 11 1 10 12
M  V30 12 2 12 13
M  V30 13 1 13 14
M  V30 14 2 14 15
M  V30 15 1 15 16
M  V30 16 1 16 17
M  V30 17 1 17 18
M  V30 18 1 18 19
M  V30 19 1 19 20
M  V30 20 1 20 21
M  V30 21 1 15 22
M  V30 22 2 22 23
M  V30 23 1 7 24
M  V30 24 2 24 25
M  V30 25 1 24 26
M  V30 26 2 26 27
M  V30 27 1 27 28
M  V30 28 2 28 29
M  V30 29 1 29 30
M  V30 30 1 29 31
M  V30 31 2 31 32
M  V30 32 1 32 33
M  V30 33 1 33 34
M  V30 34 2 34 35
M  V30 35 1 35 36
M  V30 36 2 36 37
M  V30 37 1 37 38
M  V30 38 2 38 39
M  V30 39 1 33 6
M  V30 40 1 39 34
M  V30 41 1 23 12
M  V30 42 1 32 26
M  V30 43 1 21 16
M  V30 44 1 1 40
M  V30 45 1 1 41
M  V30 46 1 1 42
M  V30 47 1 3 43
M  V30 48 1 3 44
M  V30 49 1 3 45
M  V30 50 1 8 46
M  V30 51 1 8 47
M  V30 52 1 9 48
M  V30 53 1 13 49
M  V30 54 1 14 50
M  V30 55 1 17 51
M  V30 56 1 17 52
M  V30 57 1 18 53
M  V30 58 1 18 54
M  V30 59 1 19 55
M  V30 60 1 19 56
M  V30 61 1 20 57
M  V30 62 1 20 58
M  V30 63 1 21 59
M  V30 64 1 21 60
M  V30 65 1 23 61
M  V30 66 1 27 62
M  V30 67 1 28 63
M  V30 68 1 31 64
M  V30 69 1 35 65
M  V30 70 1 36 66
M  V30 71 1 37 67
M  V30 72 1 38 68
M  V30 73 1 39 69
M  V30 END BOND
M  V30 END CTAB
M  END
>  <Dataset>  (494) 
ChEMBL_Kinases

>  <Ligand_Instance>  (494) 
nan

>  <PDB_ID>  (494) 
nan

>  <Standardized_SMILES>  (494) 
CN(C)C(=O)c1c(CNC(=O)c2ccc(N3CCCCC3)nc2)c(=O)c2ccc(Cl)cc2n1-c1ccccc1

>  <Name>  (494) 
nan

>  <Pocket>  (494) 
nan

>  <ATP_Site>  (494) 
nan

>  <Peripheral>  (494) 
nan

>  <Num_H_Atoms_ProtBoundConf>  (494) 
nan

>  <Num_Resolved_Atoms>  (494) 
nan

>  <Num_Not_Resolved_Atoms>  (494) 
nan

$$$$
CHEMBL3679447
     RDKit          3D

  0  0  0  0  0  0  0  0  0  0999 V3000
M  V30 BEGIN CTAB
M  V30 COUNTS 73 77 0 0 0
M  V30 BEGIN ATOM
M  V30 1 C -0.138957 3.579833 -2.477720 0
M  V30 2 N -1.034753 3.389769 -1.371646 0
M  V30 3 C -2.064892 4.351051 -1.069863 0
M  V30 4 C -0.652003 2.158466 -0.766861 0
M  V30 5 O 0.316326 1.644145 -1.367944 0
M  V30 6 C -1.524741 1.918570 0.357396 0
M  V30 7 C -2.715137 1.301836 0.090908 0
M  V30 8 C -3.256706 0.870232 -1.227070 0
M  V30 9 N -2.582253 -0.324001 -1.685269 0
M  V30 10 C -3.050040 -0.981466 -2.889287 0
M  V30 11 O -4.035253 -0.525899 -3.524969 0
M  V30 12 C -2.262887 -2.201238 -3.270811 0
M  V30 13 C -2.376560 -3.056178 -4.319398 0
M  V30 14 N -1.457351 -3.899375 -4.183335 0
M  V30 15 C -0.585082 -4.291187 -3.614135 0
M  V30 16 N 0.573527 -4.948359 -3.011572 0
M  V30 17 C 1.763237 -5.186722 -3.806506 0
M  V30 18 C 3.026478 -4.755079 -3.067432 0
M  V30 19 C 2.583034 -3.799011 -2.002601 0
M  V30 20 C 3.672640 -3.017535 -1.346991 0
M  V30 21 C 4.728171 -3.801903 -0.651696 0
M  V30 22 O 5.401159 -4.660745 -1.511056 0
M  V30 23 C 1.778670 -4.541236 -0.983758 0
M  V30 24 C 0.735219 -5.437423 -1.653247 0
M  V30 25 S -0.896398 -2.842789 -2.406081 0
M  V30 26 C -3.544747 1.052123 1.167392 0
M  V30 27 O -4.674109 0.481236 0.996928 0
M  V30 28 C -3.199766 1.402829 2.452012 0
M  V30 29 C -4.081829 1.121912 3.481518 0
M  V30 30 C -3.774724 1.457533 4.760576 0
M  V30 31 C -2.569896 2.085912 5.030855 0
M  V30 32 Cl -2.198325 2.516738 6.664871 0
M  V30 33 C -1.733647 2.339462 3.963534 0
M  V30 34 C -1.999775 2.016142 2.640358 0
M  V30 35 N -1.181357 2.267397 1.612846 0
M  V30 36 C 0.048452 2.905555 1.926556 0
M  V30 37 C 0.960263 2.153185 2.679302 0
M  V30 38 C 2.215118 2.544358 3.120510 0
M  V30 39 C 2.572269 3.822083 2.760061 0
M  V30 40 C 1.724522 4.636923 2.010589 0
M  V30 41 C 0.487249 4.168702 1.610247 0
M  V30 42 H -0.206904 4.589397 -2.952712 0
M  V30 43 H -0.270082 2.788584 -3.276198 0
M  V30 44 H 0.923346 3.470860 -2.181051 0
M  V30 45 H -1.596774 5.347120 -0.914022 0
M  V30 46 H -2.810719 4.399603 -1.867966 0
M  V30 47 H -2.604441 4.108763 -0.135443 0
M  V30 48 H -4.347458 0.704694 -1.160571 0
M  V30 49 H -3.055669 1.721186 -1.922541 0
M  V30 50 H -1.765284 -0.677746 -1.124129 0
M  V30 51 H -3.133618 -2.967181 -5.076305 0
M  V30 52 H 1.877713 -6.266232 -4.054969 0
M  V30 53 H 1.652356 -4.671810 -4.778025 0
M  V30 54 H 3.636307 -4.188291 -3.830966 0
M  V30 55 H 3.628767 -5.603700 -2.698587 0
M  V30 56 H 1.978595 -3.018230 -2.568198 0
M  V30 57 H 3.150295 -2.412128 -0.532956 0
M  V30 58 H 4.080709 -2.221648 -2.023004 0
M  V30 59 H 4.287226 -4.308261 0.230281 0
M  V30 60 H 5.456830 -3.079942 -0.231741 0
M  V30 61 H 5.710513 -5.417002 -0.935955 0
M  V30 62 H 2.476956 -5.232768 -0.454456 0
M  V30 63 H 1.241814 -3.909946 -0.254792 0
M  V30 64 H 1.043607 -6.499470 -1.655668 0
M  V30 65 H -0.235843 -5.417478 -1.103673 0
M  V30 66 H -5.022004 0.630333 3.265076 0
M  V30 67 H -4.481025 1.222905 5.549388 0
M  V30 68 H -0.810949 2.825392 4.209895 0
M  V30 69 H 0.676312 1.126382 2.972501 0
M  V30 70 H 2.823918 1.875537 3.697404 0
M  V30 71 H 3.553012 4.188450 3.084484 0
M  V30 72 H 2.017544 5.659222 1.721751 0
M  V30 73 H -0.183089 4.756005 1.037798 0
M  V30 END ATOM
M  V30 BEGIN BOND
M  V30 1 1 1 2
M  V30 2 1 2 3
M  V30 3 1 2 4
M  V30 4 2 4 5
M  V30 5 1 4 6
M  V30 6 2 6 7
M  V30 7 1 7 8
M  V30 8 1 8 9
M  V30 9 1 9 10
M  V30 10 2 10 11
M  V30 11 1 10 12
M  V30 12 2 12 13
M  V30 13 1 13 14
M  V30 14 2 14 15
M  V30 15 1 15 16
M  V30 16 1 16 17
M  V30 17 1 17 18
M  V30 18 1 18 19
M  V30 19 1 19 20
M  V30 20 1 20 21
M  V30 21 1 21 22
M  V30 22 1 19 23
M  V30 23 1 23 24
M  V30 24 1 15 25
M  V30 25 1 7 26
M  V30 26 2 26 27
M  V30 27 1 26 28
M  V30 28 2 28 29
M  V30 29 1 29 30
M  V30 30 2 30 31
M  V30 31 1 31 32
M  V30 32 1 31 33
M  V30 33 2 33 34
M  V30 34 1 34 35
M  V30 35 1 35 36
M  V30 36 2 36 37
M  V30 37 1 37 38
M  V30 38 2 38 39
M  V30 39 1 39 40
M  V30 40 2 40 41
M  V30 41 1 35 6
M  V30 42 1 41 36
M  V30 43 1 25 12
M  V30 44 1 34 28
M  V30 45 1 24 16
M  V30 46 1 1 42
M  V30 47 1 1 43
M  V30 48 1 1 44
M  V30 49 1 3 45
M  V30 50 1 3 46
M  V30 51 1 3 47
M  V30 52 1 8 48
M  V30 53 1 8 49
M  V30 54 1 9 50
M  V30 55 1 13 51
M  V30 56 1 17 52
M  V30 57 1 17 53
M  V30 58 1 18 54
M  V30 59 1 18 55
M  V30 60 1 19 56
M  V30 61 1 20 57
M  V30 62 1 20 58
M  V30 63 1 21 59
M  V30 64 1 21 60
M  V30 65 1 22 61
M  V30 66 1 23 62
M  V30 67 1 23 63
M  V30 68 1 24 64
M  V30 69 1 24 65
M  V30 70 1 29 66
M  V30 71 1 30 67
M  V30 72 1 33 68
M  V30 73 1 37 69
M  V30 74 1 38 70
M  V30 75 1 39 71
M  V30 76 1 40 72
M  V30 77 1 41 73
M  V30 END BOND
M  V30 END CTAB
M  END
>  <Dataset>  (495) 
ChEMBL_Kinases

>  <Ligand_Instance>  (495) 
nan

>  <PDB_ID>  (495) 
nan

>  <Standardized_SMILES>  (495) 
CN(C)C(=O)c1c(CNC(=O)c2cnc(N3CCC(CCO)CC3)s2)c(=O)c2ccc(Cl)cc2n1-c1ccccc1

>  <Name>  (495) 
nan

>  <Pocket>  (495) 
nan

>  <ATP_Site>  (495) 
nan

>  <Peripheral>  (495) 
nan

>  <Num_H_Atoms_ProtBoundConf>  (495) 
nan

>  <Num_Resolved_Atoms>  (495) 
nan

>  <Num_Not_Resolved_Atoms>  (495) 
nan

$$$$
CHEMBL3679446
     RDKit          3D

  0  0  0  0  0  0  0  0  0  0999 V3000
M  V30 BEGIN CTAB
M  V30 COUNTS 70 74 0 0 0
M  V30 BEGIN ATOM
M  V30 1 C 4.315807 -2.835205 2.805154 0
M  V30 2 N 3.468315 -3.487739 1.820426 0
M  V30 3 C 3.902828 -4.793598 1.316822 0
M  V30 4 C 2.302707 -2.716609 1.484731 0
M  V30 5 O 2.375519 -1.651692 2.178174 0
M  V30 6 C 1.331662 -3.211933 0.517931 0
M  V30 7 C 1.363902 -2.835273 -0.805254 0
M  V30 8 C 2.397245 -1.916932 -1.342601 0
M  V30 9 N 2.203369 -0.529517 -0.975418 0
M  V30 10 C 1.080729 0.293723 -1.235697 0
M  V30 11 O 0.104322 -0.193153 -1.851159 0
M  V30 12 C 1.026983 1.671063 -0.817075 0
M  V30 13 C 1.681303 2.680590 -0.200835 0
M  V30 14 N 1.221890 3.913713 -0.027158 0
M  V30 15 C 0.057558 4.192268 -0.475236 0
M  V30 16 N -0.893210 5.250084 -0.595601 0
M  V30 17 C -1.845706 5.529534 0.492691 0
M  V30 18 C -3.215334 4.992271 0.122074 0
M  V30 19 C -3.394262 5.278770 -1.375955 0
M  V30 20 C -4.883368 5.428638 -1.619394 0
M  V30 21 O -5.482745 4.225962 -1.244749 0
M  V30 22 C -2.623954 6.528465 -1.716560 0
M  V30 23 C -1.131221 6.177349 -1.685676 0
M  V30 24 S -0.576440 2.576052 -1.270779 0
M  V30 25 C 0.383024 -3.363471 -1.654460 0
M  V30 26 O 0.323703 -3.085469 -2.878333 0
M  V30 27 C -0.600020 -4.242402 -1.194168 0
M  V30 28 C -1.554226 -4.748414 -2.052634 0
M  V30 29 C -2.523567 -5.613625 -1.610676 0
M  V30 30 C -2.518632 -5.964820 -0.277971 0
M  V30 31 Cl -3.756260 -7.072866 0.287124 0
M  V30 32 C -1.557505 -5.452827 0.581383 0
M  V30 33 C -0.575964 -4.580571 0.144570 0
M  V30 34 N 0.375513 -4.061472 0.945042 0
M  V30 35 C 0.278974 -4.499898 2.300332 0
M  V30 36 C 0.790136 -5.673958 2.788875 0
M  V30 37 C 0.621555 -5.966984 4.134285 0
M  V30 38 C -0.036884 -5.131369 5.001533 0
M  V30 39 C -0.529768 -3.974937 4.476167 0
M  V30 40 C -0.390499 -3.635200 3.148587 0
M  V30 41 H 5.356058 -3.150980 2.601500 0
M  V30 42 H 4.298667 -1.736067 2.736042 0
M  V30 43 H 4.088469 -3.214589 3.836208 0
M  V30 44 H 3.804317 -5.586133 2.050426 0
M  V30 45 H 4.902758 -4.688732 0.851937 0
M  V30 46 H 3.211221 -5.007398 0.453823 0
M  V30 47 H 3.418742 -2.211634 -1.049391 0
M  V30 48 H 2.320197 -1.941766 -2.468708 0
M  V30 49 H 2.972688 -0.019846 -0.442744 0
M  V30 50 H 2.658345 2.368084 0.151565 0
M  V30 51 H -1.863332 6.598858 0.752056 0
M  V30 52 H -1.500111 4.960003 1.373959 0
M  V30 53 H -3.264380 3.914554 0.306611 0
M  V30 54 H -3.979435 5.585756 0.652678 0
M  V30 55 H -2.966093 4.466994 -1.988009 0
M  V30 56 H -5.045782 5.649042 -2.677332 0
M  V30 57 H -5.301346 6.205100 -0.931623 0
M  V30 58 H -5.142405 3.545152 -1.881182 0
M  V30 59 H -2.865704 7.351036 -1.016225 0
M  V30 60 H -2.913317 6.856071 -2.751850 0
M  V30 61 H -0.520551 7.093391 -1.632113 0
M  V30 62 H -0.945884 5.703453 -2.688502 0
M  V30 63 H -1.542788 -4.460318 -3.105490 0
M  V30 64 H -3.245526 -5.977988 -2.345359 0
M  V30 65 H -1.552828 -5.729456 1.632690 0
M  V30 66 H 1.300397 -6.318316 2.109894 0
M  V30 67 H 1.052600 -6.909460 4.447885 0
M  V30 68 H -0.098324 -5.479330 6.024997 0
M  V30 69 H -1.055988 -3.312770 5.173427 0
M  V30 70 H -0.816373 -2.685584 2.802822 0
M  V30 END ATOM
M  V30 BEGIN BOND
M  V30 1 1 1 2
M  V30 2 1 2 3
M  V30 3 1 2 4
M  V30 4 2 4 5
M  V30 5 1 4 6
M  V30 6 2 6 7
M  V30 7 1 7 8
M  V30 8 1 8 9
M  V30 9 1 9 10
M  V30 10 2 10 11
M  V30 11 1 10 12
M  V30 12 2 12 13
M  V30 13 1 13 14
M  V30 14 2 14 15
M  V30 15 1 15 16
M  V30 16 1 16 17
M  V30 17 1 17 18
M  V30 18 1 18 19
M  V30 19 1 19 20
M  V30 20 1 20 21
M  V30 21 1 19 22
M  V30 22 1 22 23
M  V30 23 1 15 24
M  V30 24 1 7 25
M  V30 25 2 25 26
M  V30 26 1 25 27
M  V30 27 2 27 28
M  V30 28 1 28 29
M  V30 29 2 29 30
M  V30 30 1 30 31
M  V30 31 1 30 32
M  V30 32 2 32 33
M  V30 33 1 33 34
M  V30 34 1 34 35
M  V30 35 2 35 36
M  V30 36 1 36 37
M  V30 37 2 37 38
M  V30 38 1 38 39
M  V30 39 2 39 40
M  V30 40 1 34 6
M  V30 41 1 40 35
M  V30 42 1 24 12
M  V30 43 1 33 27
M  V30 44 1 23 16
M  V30 45 1 1 41
M  V30 46 1 1 42
M  V30 47 1 1 43
M  V30 48 1 3 44
M  V30 49 1 3 45
M  V30 50 1 3 46
M  V30 51 1 8 47
M  V30 52 1 8 48
M  V30 53 1 9 49
M  V30 54 1 13 50
M  V30 55 1 17 51
M  V30 56 1 17 52
M  V30 57 1 18 53
M  V30 58 1 18 54
M  V30 59 1 19 55
M  V30 60 1 20 56
M  V30 61 1 20 57
M  V30 62 1 21 58
M  V30 63 1 22 59
M  V30 64 1 22 60
M  V30 65 1 23 61
M  V30 66 1 23 62
M  V30 67 1 28 63
M  V30 68 1 29 64
M  V30 69 1 32 65
M  V30 70 1 36 66
M  V30 71 1 37 67
M  V30 72 1 38 68
M  V30 73 1 39 69
M  V30 74 1 40 70
M  V30 END BOND
M  V30 END CTAB
M  END
>  <Dataset>  (496) 
ChEMBL_Kinases

>  <Ligand_Instance>  (496) 
nan

>  <PDB_ID>  (496) 
nan

>  <Standardized_SMILES>  (496) 
CN(C)C(=O)c1c(CNC(=O)c2cnc(N3CCC(CO)CC3)s2)c(=O)c2ccc(Cl)cc2n1-c1ccccc1

>  <Name>  (496) 
nan

>  <Pocket>  (496) 
nan

>  <ATP_Site>  (496) 
nan

>  <Peripheral>  (496) 
nan

>  <Num_H_Atoms_ProtBoundConf>  (496) 
nan

>  <Num_Resolved_Atoms>  (496) 
nan

>  <Num_Not_Resolved_Atoms>  (496) 
nan

$$$$
CHEMBL3679445
     RDKit          3D

  0  0  0  0  0  0  0  0  0  0999 V3000
M  V30 BEGIN CTAB
M  V30 COUNTS 76 80 0 0 0
M  V30 BEGIN ATOM
M  V30 1 C 4.200171 -3.293186 1.999503 0
M  V30 2 N 3.101442 -3.876616 1.262622 0
M  V30 3 C 3.379611 -5.297335 1.071854 0
M  V30 4 C 1.926007 -3.236734 0.780032 0
M  V30 5 O 1.964743 -2.026638 1.096914 0
M  V30 6 C 0.976753 -4.039528 0.067179 0
M  V30 7 C 0.922598 -3.910842 -1.316414 0
M  V30 8 C 1.825946 -2.953913 -2.011144 0
M  V30 9 N 1.271792 -1.623288 -1.776906 0
M  V30 10 C 1.860207 -0.458978 -2.320650 0
M  V30 11 O 2.903088 -0.615774 -3.006047 0
M  V30 12 C 1.326162 0.877935 -2.128007 0
M  V30 13 C 2.000964 2.048794 -2.379903 0
M  V30 14 C 1.377859 3.265369 -2.198276 0
M  V30 15 C 0.076167 3.405527 -1.766271 0
M  V30 16 N -0.635303 4.606837 -1.550003 0
M  V30 17 C -0.113145 5.953107 -1.368065 0
M  V30 18 C -0.519468 6.318002 0.062765 0
M  V30 19 C -2.024640 6.419472 0.180882 0
M  V30 20 C -2.356098 6.595522 1.642540 0
M  V30 21 C -3.817883 6.712995 1.932023 0
M  V30 22 O -4.515171 5.597604 1.544225 0
M  V30 23 C -2.713714 5.181986 -0.321292 0
M  V30 24 C -2.069256 4.575301 -1.516013 0
M  V30 25 N -0.549378 2.242983 -1.530548 0
M  V30 26 C 0.026056 1.042290 -1.695867 0
M  V30 27 C 0.022104 -4.669970 -2.047026 0
M  V30 28 O -0.056643 -4.582484 -3.295935 0
M  V30 29 C -0.811841 -5.547383 -1.379853 0
M  V30 30 C -1.725467 -6.323964 -2.055919 0
M  V30 31 C -2.569421 -7.207280 -1.398596 0
M  V30 32 C -2.507206 -7.325869 -0.026896 0
M  V30 33 Cl -3.572994 -8.443986 0.829350 0
M  V30 34 C -1.586696 -6.540720 0.632902 0
M  V30 35 C -0.731833 -5.652656 0.016116 0
M  V30 36 N 0.154277 -4.906000 0.736059 0
M  V30 37 C 0.193533 -5.045460 2.150670 0
M  V30 38 C 0.582759 -6.168912 2.804813 0
M  V30 39 C 0.604524 -6.266362 4.191541 0
M  V30 40 C 0.215857 -5.180483 4.966258 0
M  V30 41 C -0.192571 -4.002300 4.329549 0
M  V30 42 C -0.184823 -3.989335 2.950691 0
M  V30 43 H 4.061512 -2.218121 2.204088 0
M  V30 44 H 4.427954 -3.855230 2.928292 0
M  V30 45 H 5.106601 -3.440329 1.351041 0
M  V30 46 H 3.445173 -5.765117 2.081962 0
M  V30 47 H 2.587786 -5.824489 0.515383 0
M  V30 48 H 4.320698 -5.409259 0.536272 0
M  V30 49 H 2.879282 -3.062151 -1.743575 0
M  V30 50 H 1.745062 -3.146242 -3.095234 0
M  V30 51 H 0.418163 -1.473482 -1.196801 0
M  V30 52 H 3.023457 1.979013 -2.720272 0
M  V30 53 H 1.907936 4.212670 -2.394679 0
M  V30 54 H -0.657483 6.649467 -2.051290 0
M  V30 55 H 0.965934 6.039787 -1.466414 0
M  V30 56 H -0.190114 5.479905 0.702559 0
M  V30 57 H -0.093677 7.282652 0.375198 0
M  V30 58 H -2.339814 7.355677 -0.320716 0
M  V30 59 H -1.976501 5.713168 2.242526 0
M  V30 60 H -1.829475 7.463612 2.103519 0
M  V30 61 H -4.239664 7.636770 1.481810 0
M  V30 62 H -3.943825 6.815998 3.030617 0
M  V30 63 H -5.472453 5.627614 1.724566 0
M  V30 64 H -2.831935 4.421121 0.467859 0
M  V30 65 H -3.744570 5.492231 -0.640531 0
M  V30 66 H -2.442077 3.535643 -1.629725 0
M  V30 67 H -2.398557 5.085978 -2.469327 0
M  V30 68 H -0.653108 0.210452 -1.451554 0
M  V30 69 H -1.736340 -6.193218 -3.149168 0
M  V30 70 H -3.267433 -7.790921 -1.996391 0
M  V30 71 H -1.577742 -6.671515 1.717604 0
M  V30 72 H 0.895569 -7.043448 2.229973 0
M  V30 73 H 0.931453 -7.210247 4.655244 0
M  V30 74 H 0.254545 -5.318465 6.033257 0
M  V30 75 H -0.491153 -3.168331 4.947348 0
M  V30 76 H -0.511669 -3.048754 2.525156 0
M  V30 END ATOM
M  V30 BEGIN BOND
M  V30 1 1 1 2
M  V30 2 1 2 3
M  V30 3 1 2 4
M  V30 4 2 4 5
M  V30 5 1 4 6
M  V30 6 2 6 7
M  V30 7 1 7 8
M  V30 8 1 8 9
M  V30 9 1 9 10
M  V30 10 2 10 11
M  V30 11 1 10 12
M  V30 12 2 12 13
M  V30 13 1 13 14
M  V30 14 2 14 15
M  V30 15 1 15 16
M  V30 16 1 16 17
M  V30 17 1 17 18
M  V30 18 1 18 19
M  V30 19 1 19 20
M  V30 20 1 20 21
M  V30 21 1 21 22
M  V30 22 1 19 23
M  V30 23 1 23 24
M  V30 24 1 15 25
M  V30 25 2 25 26
M  V30 26 1 7 27
M  V30 27 2 27 28
M  V30 28 1 27 29
M  V30 29 2 29 30
M  V30 30 1 30 31
M  V30 31 2 31 32
M  V30 32 1 32 33
M  V30 33 1 32 34
M  V30 34 2 34 35
M  V30 35 1 35 36
M  V30 36 1 36 37
M  V30 37 2 37 38
M  V30 38 1 38 39
M  V30 39 2 39 40
M  V30 40 1 40 41
M  V30 41 2 41 42
M  V30 42 1 36 6
M  V30 43 1 42 37
M  V30 44 1 26 12
M  V30 45 1 35 29
M  V30 46 1 24 16
M  V30 47 1 1 43
M  V30 48 1 1 44
M  V30 49 1 1 45
M  V30 50 1 3 46
M  V30 51 1 3 47
M  V30 52 1 3 48
M  V30 53 1 8 49
M  V30 54 1 8 50
M  V30 55 1 9 51
M  V30 56 1 13 52
M  V30 57 1 14 53
M  V30 58 1 17 54
M  V30 59 1 17 55
M  V30 60 1 18 56
M  V30 61 1 18 57
M  V30 62 1 19 58
M  V30 63 1 20 59
M  V30 64 1 20 60
M  V30 65 1 21 61
M  V30 66 1 21 62
M  V30 67 1 22 63
M  V30 68 1 23 64
M  V30 69 1 23 65
M  V30 70 1 24 66
M  V30 71 1 24 67
M  V30 72 1 26 68
M  V30 73 1 30 69
M  V30 74 1 31 70
M  V30 75 1 34 71
M  V30 76 1 38 72
M  V30 77 1 39 73
M  V30 78 1 40 74
M  V30 79 1 41 75
M  V30 80 1 42 76
M  V30 END BOND
M  V30 END CTAB
M  END
>  <Dataset>  (497) 
ChEMBL_Kinases

>  <Ligand_Instance>  (497) 
nan

>  <PDB_ID>  (497) 
nan

>  <Standardized_SMILES>  (497) 
CN(C)C(=O)c1c(CNC(=O)c2ccc(N3CCC(CCO)CC3)nc2)c(=O)c2ccc(Cl)cc2n1-c1ccccc1

>  <Name>  (497) 
nan

>  <Pocket>  (497) 
nan

>  <ATP_Site>  (497) 
nan

>  <Peripheral>  (497) 
nan

>  <Num_H_Atoms_ProtBoundConf>  (497) 
nan

>  <Num_Resolved_Atoms>  (497) 
nan

>  <Num_Not_Resolved_Atoms>  (497) 
nan

$$$$
CHEMBL3679444
     RDKit          3D

  0  0  0  0  0  0  0  0  0  0999 V3000
M  V30 BEGIN CTAB
M  V30 COUNTS 73 77 0 0 0
M  V30 BEGIN ATOM
M  V30 1 C 1.117305 -1.737801 4.385573 0
M  V30 2 N 1.855078 -2.403054 3.333534 0
M  V30 3 C 2.953678 -3.261298 3.781099 0
M  V30 4 C 1.312866 -2.052327 2.064921 0
M  V30 5 O 0.348021 -1.273754 2.156294 0
M  V30 6 C 2.064023 -2.724188 0.982336 0
M  V30 7 C 3.051548 -2.116241 0.194090 0
M  V30 8 C 3.213350 -0.686184 0.604082 0
M  V30 9 N 2.127863 0.113844 0.065163 0
M  V30 10 C 1.853364 1.477025 0.225613 0
M  V30 11 O 2.679510 2.109954 0.966446 0
M  V30 12 C 0.720953 2.160094 -0.389497 0
M  V30 13 C -0.091755 1.578600 -1.335707 0
M  V30 14 C -1.177090 2.200770 -1.933942 0
M  V30 15 C -1.401720 3.507422 -1.496432 0
M  V30 16 N -2.470625 4.223655 -2.064681 0
M  V30 17 C -3.187249 3.910475 -3.283898 0
M  V30 18 C -4.549518 3.421613 -2.908325 0
M  V30 19 C -5.127250 4.008268 -1.686730 0
M  V30 20 C -5.056814 2.965744 -0.588004 0
M  V30 21 O -5.577576 3.418054 0.611510 0
M  V30 22 C -4.501206 5.260939 -1.171481 0
M  V30 23 C -3.043890 5.430580 -1.465996 0
M  V30 24 N -0.623016 4.084019 -0.579442 0
M  V30 25 C 0.434157 3.458452 -0.006665 0
M  V30 26 C 3.675524 -2.869353 -0.775077 0
M  V30 27 O 4.533484 -2.197117 -1.399645 0
M  V30 28 C 3.314719 -4.185892 -0.940917 0
M  V30 29 C 3.984925 -4.857143 -1.923295 0
M  V30 30 C 3.676166 -6.190243 -2.148678 0
M  V30 31 C 2.694877 -6.787067 -1.362228 0
M  V30 32 Cl 2.229799 -8.464117 -1.565413 0
M  V30 33 C 2.045872 -6.083377 -0.388880 0
M  V30 34 C 2.326377 -4.752603 -0.134907 0
M  V30 35 N 1.719945 -4.012467 0.810481 0
M  V30 36 C 0.721291 -4.684150 1.579201 0
M  V30 37 C 0.834266 -5.607548 2.576390 0
M  V30 38 C -0.307408 -6.094351 3.153501 0
M  V30 39 C -1.583367 -5.716364 2.797927 0
M  V30 40 C -1.702183 -4.776094 1.782884 0
M  V30 41 C -0.554059 -4.263939 1.178072 0
M  V30 42 H 1.476855 -1.963511 5.399334 0
M  V30 43 H 0.066702 -2.132543 4.319565 0
M  V30 44 H 1.161417 -0.630654 4.264649 0
M  V30 45 H 2.509234 -4.009928 4.503959 0
M  V30 46 H 3.366173 -3.853824 2.943211 0
M  V30 47 H 3.734752 -2.697289 4.338020 0
M  V30 48 H 3.426881 -0.532480 1.654735 0
M  V30 49 H 4.134686 -0.324183 0.057496 0
M  V30 50 H 1.425507 -0.400931 -0.544632 0
M  V30 51 H 0.089157 0.571762 -1.665371 0
M  V30 52 H -1.768539 1.676810 -2.669556 0
M  V30 53 H -3.214463 4.819788 -3.926363 0
M  V30 54 H -2.651088 3.087685 -3.810398 0
M  V30 55 H -4.551438 2.320174 -2.890822 0
M  V30 56 H -5.216511 3.683667 -3.783779 0
M  V30 57 H -6.232048 4.179755 -1.840926 0
M  V30 58 H -5.546643 2.002814 -0.908702 0
M  V30 59 H -3.989274 2.685770 -0.419316 0
M  V30 60 H -5.380925 2.685524 1.268245 0
M  V30 61 H -4.669382 5.407424 -0.087072 0
M  V30 62 H -5.045909 6.109427 -1.658114 0
M  V30 63 H -2.900692 6.224594 -2.225318 0
M  V30 64 H -2.477667 5.621601 -0.557212 0
M  V30 65 H 1.022059 3.993398 0.734440 0
M  V30 66 H 4.745691 -4.393906 -2.532805 0
M  V30 67 H 4.146434 -6.821195 -2.903938 0
M  V30 68 H 1.274697 -6.498045 0.251664 0
M  V30 69 H 1.841741 -5.852862 2.798691 0
M  V30 70 H -0.183274 -6.826276 3.941381 0
M  V30 71 H -2.406482 -6.169206 3.323727 0
M  V30 72 H -2.699106 -4.472238 1.497541 0
M  V30 73 H -0.782045 -3.529580 0.391514 0
M  V30 END ATOM
M  V30 BEGIN BOND
M  V30 1 1 1 2
M  V30 2 1 2 3
M  V30 3 1 2 4
M  V30 4 2 4 5
M  V30 5 1 4 6
M  V30 6 2 6 7
M  V30 7 1 7 8
M  V30 8 1 8 9
M  V30 9 1 9 10
M  V30 10 2 10 11
M  V30 11 1 10 12
M  V30 12 2 12 13
M  V30 13 1 13 14
M  V30 14 2 14 15
M  V30 15 1 15 16
M  V30 16 1 16 17
M  V30 17 1 17 18
M  V30 18 1 18 19
M  V30 19 1 19 20
M  V30 20 1 20 21
M  V30 21 1 19 22
M  V30 22 1 22 23
M  V30 23 1 15 24
M  V30 24 2 24 25
M  V30 25 1 7 26
M  V30 26 2 26 27
M  V30 27 1 26 28
M  V30 28 2 28 29
M  V30 29 1 29 30
M  V30 30 2 30 31
M  V30 31 1 31 32
M  V30 32 1 31 33
M  V30 33 2 33 34
M  V30 34 1 34 35
M  V30 35 1 35 36
M  V30 36 2 36 37
M  V30 37 1 37 38
M  V30 38 2 38 39
M  V30 39 1 39 40
M  V30 40 2 40 41
M  V30 41 1 35 6
M  V30 42 1 41 36
M  V30 43 1 25 12
M  V30 44 1 34 28
M  V30 45 1 23 16
M  V30 46 1 1 42
M  V30 47 1 1 43
M  V30 48 1 1 44
M  V30 49 1 3 45
M  V30 50 1 3 46
M  V30 51 1 3 47
M  V30 52 1 8 48
M  V30 53 1 8 49
M  V30 54 1 9 50
M  V30 55 1 13 51
M  V30 56 1 14 52
M  V30 57 1 17 53
M  V30 58 1 17 54
M  V30 59 1 18 55
M  V30 60 1 18 56
M  V30 61 1 19 57
M  V30 62 1 20 58
M  V30 63 1 20 59
M  V30 64 1 21 60
M  V30 65 1 22 61
M  V30 66 1 22 62
M  V30 67 1 23 63
M  V30 68 1 23 64
M  V30 69 1 25 65
M  V30 70 1 29 66
M  V30 71 1 30 67
M  V30 72 1 33 68
M  V30 73 1 37 69
M  V30 74 1 38 70
M  V30 75 1 39 71
M  V30 76 1 40 72
M  V30 77 1 41 73
M  V30 END BOND
M  V30 END CTAB
M  END
>  <Dataset>  (498) 
ChEMBL_Kinases

>  <Ligand_Instance>  (498) 
nan

>  <PDB_ID>  (498) 
nan

>  <Standardized_SMILES>  (498) 
CN(C)C(=O)c1c(CNC(=O)c2ccc(N3CCC(CO)CC3)nc2)c(=O)c2ccc(Cl)cc2n1-c1ccccc1

>  <Name>  (498) 
nan

>  <Pocket>  (498) 
nan

>  <ATP_Site>  (498) 
nan

>  <Peripheral>  (498) 
nan

>  <Num_H_Atoms_ProtBoundConf>  (498) 
nan

>  <Num_Resolved_Atoms>  (498) 
nan

>  <Num_Not_Resolved_Atoms>  (498) 
nan

$$$$
CHEMBL3679443
     RDKit          3D

  0  0  0  0  0  0  0  0  0  0999 V3000
M  V30 BEGIN CTAB
M  V30 COUNTS 55 58 0 0 0
M  V30 BEGIN ATOM
M  V30 1 C 1.762880 -2.678256 2.807110 0
M  V30 2 N 0.761587 -1.629549 2.838932 0
M  V30 3 C 0.459358 -1.354833 4.252259 0
M  V30 4 C 0.092191 -0.902911 1.785449 0
M  V30 5 O -0.754945 -0.019541 2.136542 0
M  V30 6 C 0.509345 -1.313790 0.442872 0
M  V30 7 C 1.616331 -0.832853 -0.267453 0
M  V30 8 C 2.336618 0.168730 0.515535 0
M  V30 9 N 1.661929 1.454660 0.546656 0
M  V30 10 C 1.388366 2.288596 -0.559779 0
M  V30 11 O 1.732406 1.966231 -1.709907 0
M  V30 12 C 0.687386 3.568313 -0.385155 0
M  V30 13 C 0.466234 4.492429 -1.384041 0
M  V30 14 N -0.223831 5.549029 -0.860333 0
M  V30 15 N -0.434801 5.305152 0.428975 0
M  V30 16 C -1.088133 5.967475 1.565554 0
M  V30 17 C 0.107799 4.098485 0.767395 0
M  V30 18 C 1.823411 -1.361416 -1.521697 0
M  V30 19 O 2.816658 -0.895943 -2.093762 0
M  V30 20 C 0.959702 -2.313893 -2.017025 0
M  V30 21 C 1.208566 -2.809853 -3.284774 0
M  V30 22 C 0.351436 -3.765859 -3.806207 0
M  V30 23 C -0.741137 -4.247464 -3.119497 0
M  V30 24 Cl -1.863108 -5.442750 -3.699582 0
M  V30 25 C -0.980236 -3.742908 -1.850165 0
M  V30 26 C -0.131888 -2.792548 -1.326279 0
M  V30 27 N -0.317210 -2.256643 -0.087398 0
M  V30 28 C -1.456344 -2.768246 0.625477 0
M  V30 29 C -1.467769 -4.041689 1.180148 0
M  V30 30 C -2.596674 -4.496302 1.874357 0
M  V30 31 C -3.707646 -3.660070 2.003724 0
M  V30 32 C -3.711826 -2.406934 1.463846 0
M  V30 33 C -2.607318 -1.991723 0.797460 0
M  V30 34 H 2.014596 -2.926735 1.734398 0
M  V30 35 H 2.719625 -2.296167 3.272329 0
M  V30 36 H 1.498709 -3.585124 3.347754 0
M  V30 37 H 0.041380 -2.252635 4.719976 0
M  V30 38 H -0.308930 -0.548256 4.336209 0
M  V30 39 H 1.371923 -0.959295 4.771588 0
M  V30 40 H 2.527151 -0.209324 1.534419 0
M  V30 41 H 3.333823 0.336648 0.007016 0
M  V30 42 H 1.334853 1.819355 1.487339 0
M  V30 43 H 0.769979 4.440136 -2.429533 0
M  V30 44 H -1.433467 6.981205 1.261308 0
M  V30 45 H -2.004835 5.376732 1.873322 0
M  V30 46 H -0.427501 6.005856 2.454730 0
M  V30 47 H 0.181446 3.502243 1.669756 0
M  V30 48 H 2.052850 -2.460765 -3.862476 0
M  V30 49 H 0.474793 -4.205078 -4.786739 0
M  V30 50 H -1.836106 -4.086527 -1.250619 0
M  V30 51 H -0.613205 -4.677776 1.077413 0
M  V30 52 H -2.630851 -5.486185 2.316150 0
M  V30 53 H -4.561282 -4.046967 2.548100 0
M  V30 54 H -4.600424 -1.805221 1.596392 0
M  V30 55 H -2.618781 -0.990180 0.369178 0
M  V30 END ATOM
M  V30 BEGIN BOND
M  V30 1 1 1 2
M  V30 2 1 2 3
M  V30 3 1 2 4
M  V30 4 2 4 5
M  V30 5 1 4 6
M  V30 6 2 6 7
M  V30 7 1 7 8
M  V30 8 1 8 9
M  V30 9 1 9 10
M  V30 10 2 10 11
M  V30 11 1 10 12
M  V30 12 1 12 13
M  V30 13 2 13 14
M  V30 14 1 14 15
M  V30 15 1 15 16
M  V30 16 1 15 17
M  V30 17 1 7 18
M  V30 18 2 18 19
M  V30 19 1 18 20
M  V30 20 2 20 21
M  V30 21 1 21 22
M  V30 22 2 22 23
M  V30 23 1 23 24
M  V30 24 1 23 25
M  V30 25 2 25 26
M  V30 26 1 26 27
M  V30 27 1 27 28
M  V30 28 2 28 29
M  V30 29 1 29 30
M  V30 30 2 30 31
M  V30 31 1 31 32
M  V30 32 2 32 33
M  V30 33 1 27 6
M  V30 34 1 33 28
M  V30 35 2 17 12
M  V30 36 1 26 20
M  V30 37 1 1 34
M  V30 38 1 1 35
M  V30 39 1 1 36
M  V30 40 1 3 37
M  V30 41 1 3 38
M  V30 42 1 3 39
M  V30 43 1 8 40
M  V30 44 1 8 41
M  V30 45 1 9 42
M  V30 46 1 13 43
M  V30 47 1 16 44
M  V30 48 1 16 45
M  V30 49 1 16 46
M  V30 50 1 17 47
M  V30 51 1 21 48
M  V30 52 1 22 49
M  V30 53 1 25 50
M  V30 54 1 29 51
M  V30 55 1 30 52
M  V30 56 1 31 53
M  V30 57 1 32 54
M  V30 58 1 33 55
M  V30 END BOND
M  V30 END CTAB
M  END
>  <Dataset>  (499) 
ChEMBL_Kinases

>  <Ligand_Instance>  (499) 
nan

>  <PDB_ID>  (499) 
nan

>  <Standardized_SMILES>  (499) 
CN(C)C(=O)c1c(CNC(=O)c2cnn(C)c2)c(=O)c2ccc(Cl)cc2n1-c1ccccc1

>  <Name>  (499) 
nan

>  <Pocket>  (499) 
nan

>  <ATP_Site>  (499) 
nan

>  <Peripheral>  (499) 
nan

>  <Num_H_Atoms_ProtBoundConf>  (499) 
nan

>  <Num_Resolved_Atoms>  (499) 
nan

>  <Num_Not_Resolved_Atoms>  (499) 
nan

$$$$
CHEMBL3679442
     RDKit          3D

  0  0  0  0  0  0  0  0  0  0999 V3000
M  V30 BEGIN CTAB
M  V30 COUNTS 68 72 0 0 0
M  V30 BEGIN ATOM
M  V30 1 C 0.375904 -1.417953 1.229856 0
M  V30 2 N 1.726588 -1.152031 0.715238 0
M  V30 3 C 2.532886 -2.320397 0.595686 0
M  V30 4 C 2.358719 0.058492 0.320223 0
M  V30 5 O 3.555891 0.166397 -0.117458 0
M  V30 6 C 1.989524 1.463965 0.250840 0
M  V30 7 C 1.460008 2.122974 -0.838901 0
M  V30 8 C 1.291656 1.202197 -1.992867 0
M  V30 9 N 0.126932 0.369603 -1.753039 0
M  V30 10 C -0.343255 -0.630181 -2.643833 0
M  V30 11 O 0.320814 -0.777631 -3.705581 0
M  V30 12 C -1.516854 -1.453772 -2.379956 0
M  V30 13 C -2.301537 -1.375171 -1.250756 0
M  V30 14 C -3.399622 -2.188865 -1.070239 0
M  V30 15 N -3.770264 -3.108287 -1.987356 0
M  V30 16 C -4.930065 -3.883923 -1.666358 0
M  V30 17 C -4.601836 -5.125062 -0.918858 0
M  V30 18 C -4.338398 -6.379034 -1.473376 0
M  V30 19 C -4.045258 -7.446894 -0.649127 0
M  V30 20 C -4.005166 -7.302162 0.741613 0
M  V30 21 C -4.263765 -6.065179 1.310631 0
M  V30 22 C -4.552084 -5.026556 0.450728 0
M  V30 23 C -3.008822 -3.196092 -3.101389 0
M  V30 24 O -3.402725 -4.069813 -3.919561 0
M  V30 25 C -1.897471 -2.394552 -3.316798 0
M  V30 26 C 1.155951 3.467315 -0.762378 0
M  V30 27 O 0.679969 3.944656 -1.825390 0
M  V30 28 C 1.388410 4.145560 0.419968 0
M  V30 29 C 1.069931 5.470739 0.442001 0
M  V30 30 C 1.289344 6.179706 1.609913 0
M  V30 31 C 1.824099 5.518764 2.713627 0
M  V30 32 Cl 2.148132 6.316987 4.257967 0
M  V30 33 C 2.145593 4.177804 2.689507 0
M  V30 34 C 1.920087 3.481925 1.512864 0
M  V30 35 N 2.207985 2.162495 1.406218 0
M  V30 36 C 2.747734 1.564710 2.571648 0
M  V30 37 C 4.085876 1.598579 2.919067 0
M  V30 38 C 4.542252 0.989165 4.078685 0
M  V30 39 C 3.657308 0.319557 4.933849 0
M  V30 40 C 2.327381 0.313100 4.543011 0
M  V30 41 C 1.846055 0.913624 3.390831 0
M  V30 42 H 0.427408 -1.896063 2.224155 0
M  V30 43 H -0.070998 -2.096827 0.462198 0
M  V30 44 H -0.121566 -0.444425 1.316962 0
M  V30 45 H 2.261024 -2.829038 -0.369685 0
M  V30 46 H 3.615646 -2.109751 0.619886 0
M  V30 47 H 2.314288 -3.067319 1.384744 0
M  V30 48 H 2.216473 0.641792 -2.151516 0
M  V30 49 H 1.082157 1.788978 -2.910129 0
M  V30 50 H -0.431191 0.486313 -0.871128 0
M  V30 51 H -2.050884 -0.666893 -0.497636 0
M  V30 52 H -3.969389 -2.058350 -0.138029 0
M  V30 53 H -5.627090 -3.277692 -1.055161 0
M  V30 54 H -5.502106 -4.167454 -2.598176 0
M  V30 55 H -4.386526 -6.416407 -2.550728 0
M  V30 56 H -3.843529 -8.417291 -1.114299 0
M  V30 57 H -3.767239 -8.183673 1.343452 0
M  V30 58 H -4.229150 -5.968427 2.385577 0
M  V30 59 H -4.742808 -4.085958 0.988208 0
M  V30 60 H -1.379621 -2.574888 -4.256182 0
M  V30 61 H 0.657318 5.975293 -0.412816 0
M  V30 62 H 1.067652 7.241783 1.726444 0
M  V30 63 H 2.563414 3.650069 3.544516 0
M  V30 64 H 4.715003 2.122767 2.230585 0
M  V30 65 H 5.608038 1.045339 4.306997 0
M  V30 66 H 4.006537 -0.153792 5.832576 0
M  V30 67 H 1.604398 -0.204916 5.193808 0
M  V30 68 H 0.767610 0.851209 3.169397 0
M  V30 END ATOM
M  V30 BEGIN BOND
M  V30 1 1 1 2
M  V30 2 1 2 3
M  V30 3 1 2 4
M  V30 4 2 4 5
M  V30 5 1 4 6
M  V30 6 2 6 7
M  V30 7 1 7 8
M  V30 8 1 8 9
M  V30 9 1 9 10
M  V30 10 2 10 11
M  V30 11 1 10 12
M  V30 12 1 12 13
M  V30 13 2 13 14
M  V30 14 1 14 15
M  V30 15 1 15 16
M  V30 16 1 16 17
M  V30 17 2 17 18
M  V30 18 1 18 19
M  V30 19 2 19 20
M  V30 20 1 20 21
M  V30 21 2 21 22
M  V30 22 1 15 23
M  V30 23 2 23 24
M  V30 24 1 23 25
M  V30 25 1 7 26
M  V30 26 2 26 27
M  V30 27 1 26 28
M  V30 28 2 28 29
M  V30 29 1 29 30
M  V30 30 2 30 31
M  V30 31 1 31 32
M  V30 32 1 31 33
M  V30 33 2 33 34
M  V30 34 1 34 35
M  V30 35 1 35 36
M  V30 36 2 36 37
M  V30 37 1 37 38
M  V30 38 2 38 39
M  V30 39 1 39 40
M  V30 40 2 40 41
M  V30 41 1 35 6
M  V30 42 1 41 36
M  V30 43 2 25 12
M  V30 44 1 34 28
M  V30 45 1 22 17
M  V30 46 1 1 42
M  V30 47 1 1 43
M  V30 48 1 1 44
M  V30 49 1 3 45
M  V30 50 1 3 46
M  V30 51 1 3 47
M  V30 52 1 8 48
M  V30 53 1 8 49
M  V30 54 1 9 50
M  V30 55 1 13 51
M  V30 56 1 14 52
M  V30 57 1 16 53
M  V30 58 1 16 54
M  V30 59 1 18 55
M  V30 60 1 19 56
M  V30 61 1 20 57
M  V30 62 1 21 58
M  V30 63 1 22 59
M  V30 64 1 25 60
M  V30 65 1 29 61
M  V30 66 1 30 62
M  V30 67 1 33 63
M  V30 68 1 37 64
M  V30 69 1 38 65
M  V30 70 1 39 66
M  V30 71 1 40 67
M  V30 72 1 41 68
M  V30 END BOND
M  V30 END CTAB
M  END
>  <Dataset>  (500) 
ChEMBL_Kinases

>  <Ligand_Instance>  (500) 
nan

>  <PDB_ID>  (500) 
nan

>  <Standardized_SMILES>  (500) 
CN(C)C(=O)c1c(CNC(=O)c2ccn(Cc3ccccc3)c(=O)c2)c(=O)c2ccc(Cl)cc2n1-c1ccccc1

>  <Name>  (500) 
nan

>  <Pocket>  (500) 
nan

>  <ATP_Site>  (500) 
nan

>  <Peripheral>  (500) 
nan

>  <Num_H_Atoms_ProtBoundConf>  (500) 
nan

>  <Num_Resolved_Atoms>  (500) 
nan

>  <Num_Not_Resolved_Atoms>  (500) 
nan

$$$$
CHEMBL3679441
     RDKit          3D

  0  0  0  0  0  0  0  0  0  0999 V3000
M  V30 BEGIN CTAB
M  V30 COUNTS 61 65 0 0 0
M  V30 BEGIN ATOM
M  V30 1 C 2.564394 1.296944 2.259331 0
M  V30 2 N 1.698995 0.264638 1.766234 0
M  V30 3 C 0.602380 -0.213160 2.577417 0
M  V30 4 C 2.058205 -0.172288 0.466430 0
M  V30 5 O 3.073556 0.492864 0.108454 0
M  V30 6 C 1.744276 -1.068601 -0.629622 0
M  V30 7 C 0.988798 -0.520446 -1.630155 0
M  V30 8 C 0.438383 0.876362 -1.677672 0
M  V30 9 N -0.712495 1.017369 -0.835193 0
M  V30 10 C -1.563093 2.130752 -0.613890 0
M  V30 11 O -1.240274 3.167059 -1.284000 0
M  V30 12 C -2.715532 2.174138 0.270493 0
M  V30 13 C -3.471791 3.339124 0.230819 0
M  V30 14 C -4.592158 3.448035 1.053617 0
M  V30 15 C -4.916951 2.391815 1.886205 0
M  V30 16 C -4.153776 1.232015 1.918563 0
M  V30 17 C -3.030985 1.118909 1.095460 0
M  V30 18 O -4.463394 0.179525 2.738238 0
M  V30 19 C -5.761027 -0.041447 3.291812 0
M  V30 20 C -6.699094 1.089337 2.949938 0
M  V30 21 O -5.988571 2.314415 2.771566 0
M  V30 22 C 0.669505 -1.337735 -2.709250 0
M  V30 23 O -0.026430 -0.882828 -3.664029 0
M  V30 24 C 1.111193 -2.638404 -2.735262 0
M  V30 25 C 0.765987 -3.419600 -3.833783 0
M  V30 26 C 1.161457 -4.754114 -3.957576 0
M  V30 27 C 1.914160 -5.233421 -2.915860 0
M  V30 28 Cl 2.439879 -6.910803 -3.017074 0
M  V30 29 C 2.265597 -4.483802 -1.827514 0
M  V30 30 C 1.871055 -3.172793 -1.717183 0
M  V30 31 N 2.147861 -2.339358 -0.705731 0
M  V30 32 C 2.927638 -2.927786 0.328355 0
M  V30 33 C 4.302839 -2.997567 0.316889 0
M  V30 34 C 4.953785 -3.611662 1.386888 0
M  V30 35 C 4.244769 -4.152808 2.460753 0
M  V30 36 C 2.856572 -4.062850 2.436574 0
M  V30 37 C 2.204647 -3.447082 1.363720 0
M  V30 38 H 1.960752 1.979615 2.915142 0
M  V30 39 H 3.323356 0.826517 2.914917 0
M  V30 40 H 3.006218 1.941647 1.462497 0
M  V30 41 H 1.032117 -1.003244 3.241814 0
M  V30 42 H -0.228962 -0.610446 1.959617 0
M  V30 43 H 0.154049 0.600810 3.185988 0
M  V30 44 H 0.179389 1.124617 -2.716921 0
M  V30 45 H 1.263314 1.548746 -1.379795 0
M  V30 46 H -0.991714 0.170465 -0.281026 0
M  V30 47 H -3.241352 4.191602 -0.417722 0
M  V30 48 H -5.253011 4.299711 1.106166 0
M  V30 49 H -2.443392 0.213474 1.127369 0
M  V30 50 H -6.147259 -0.956405 2.798479 0
M  V30 51 H -5.702378 -0.251481 4.387797 0
M  V30 52 H -7.275199 0.907540 2.018072 0
M  V30 53 H -7.430418 1.190764 3.765640 0
M  V30 54 H 0.171216 -2.979255 -4.618300 0
M  V30 55 H 0.884714 -5.346960 -4.816107 0
M  V30 56 H 2.857946 -4.861750 -1.008697 0
M  V30 57 H 4.810116 -2.566273 -0.533143 0
M  V30 58 H 6.042554 -3.661854 1.370272 0
M  V30 59 H 4.793791 -4.625665 3.279649 0
M  V30 60 H 2.392578 -4.514824 3.322602 0
M  V30 61 H 1.143400 -3.422713 1.427159 0
M  V30 END ATOM
M  V30 BEGIN BOND
M  V30 1 1 1 2
M  V30 2 1 2 3
M  V30 3 1 2 4
M  V30 4 2 4 5
M  V30 5 1 4 6
M  V30 6 2 6 7
M  V30 7 1 7 8
M  V30 8 1 8 9
M  V30 9 1 9 10
M  V30 10 2 10 11
M  V30 11 1 10 12
M  V30 12 2 12 13
M  V30 13 1 13 14
M  V30 14 2 14 15
M  V30 15 1 15 16
M  V30 16 2 16 17
M  V30 17 1 16 18
M  V30 18 1 18 19
M  V30 19 1 19 20
M  V30 20 1 20 21
M  V30 21 1 7 22
M  V30 22 2 22 23
M  V30 23 1 22 24
M  V30 24 2 24 25
M  V30 25 1 25 26
M  V30 26 2 26 27
M  V30 27 1 27 28
M  V30 28 1 27 29
M  V30 29 2 29 30
M  V30 30 1 30 31
M  V30 31 1 31 32
M  V30 32 2 32 33
M  V30 33 1 33 34
M  V30 34 2 34 35
M  V30 35 1 35 36
M  V30 36 2 36 37
M  V30 37 1 31 6
M  V30 38 1 37 32
M  V30 39 1 17 12
M  V30 40 1 30 24
M  V30 41 1 21 15
M  V30 42 1 1 38
M  V30 43 1 1 39
M  V30 44 1 1 40
M  V30 45 1 3 41
M  V30 46 1 3 42
M  V30 47 1 3 43
M  V30 48 1 8 44
M  V30 49 1 8 45
M  V30 50 1 9 46
M  V30 51 1 13 47
M  V30 52 1 14 48
M  V30 53 1 17 49
M  V30 54 1 19 50
M  V30 55 1 19 51
M  V30 56 1 20 52
M  V30 57 1 20 53
M  V30 58 1 25 54
M  V30 59 1 26 55
M  V30 60 1 29 56
M  V30 61 1 33 57
M  V30 62 1 34 58
M  V30 63 1 35 59
M  V30 64 1 36 60
M  V30 65 1 37 61
M  V30 END BOND
M  V30 END CTAB
M  END
>  <Dataset>  (501) 
ChEMBL_Kinases

>  <Ligand_Instance>  (501) 
nan

>  <PDB_ID>  (501) 
nan

>  <Standardized_SMILES>  (501) 
CN(C)C(=O)c1c(CNC(=O)c2ccc3c(c2)OCCO3)c(=O)c2ccc(Cl)cc2n1-c1ccccc1

>  <Name>  (501) 
nan

>  <Pocket>  (501) 
nan

>  <ATP_Site>  (501) 
nan

>  <Peripheral>  (501) 
nan

>  <Num_H_Atoms_ProtBoundConf>  (501) 
nan

>  <Num_Resolved_Atoms>  (501) 
nan

>  <Num_Not_Resolved_Atoms>  (501) 
nan

$$$$
CHEMBL3679440
     RDKit          3D

  0  0  0  0  0  0  0  0  0  0999 V3000
M  V30 BEGIN CTAB
M  V30 COUNTS 55 58 0 0 0
M  V30 BEGIN ATOM
M  V30 1 C 2.258967 -3.039100 2.368337 0
M  V30 2 N 1.527979 -1.794673 2.658859 0
M  V30 3 C 1.552666 -1.218550 3.989335 0
M  V30 4 C 0.742090 -1.015204 1.759677 0
M  V30 5 O 0.078501 0.067965 1.917688 0
M  V30 6 C 0.524863 -1.336578 0.356722 0
M  V30 7 C 1.219598 -0.692143 -0.642483 0
M  V30 8 C 2.216565 0.352886 -0.341981 0
M  V30 9 N 1.644724 1.612680 0.054528 0
M  V30 10 C 0.762857 2.469253 -0.646980 0
M  V30 11 O 0.415724 2.087667 -1.793103 0
M  V30 12 C 0.259792 3.727320 -0.114365 0
M  V30 13 C 0.620754 4.274109 1.111550 0
M  V30 14 C 0.121990 5.461971 1.595891 0
M  V30 15 C -0.804791 6.187024 0.835096 0
M  V30 16 F -1.315511 7.353461 1.281632 0
M  V30 17 C -1.147071 5.632851 -0.367057 0
M  V30 18 C -0.657181 4.447707 -0.863781 0
M  V30 19 C 0.926654 -1.087940 -1.946415 0
M  V30 20 O 1.522698 -0.545469 -2.933535 0
M  V30 21 C 0.003749 -2.058189 -2.211633 0
M  V30 22 C -0.265723 -2.429899 -3.508021 0
M  V30 23 C -1.194712 -3.411356 -3.835610 0
M  V30 24 C -1.862369 -4.023211 -2.777484 0
M  V30 25 Cl -3.041046 -5.259723 -3.064531 0
M  V30 26 C -1.564524 -3.623397 -1.497720 0
M  V30 27 C -0.640867 -2.647380 -1.167973 0
M  V30 28 N -0.392488 -2.298687 0.122413 0
M  V30 29 C -1.159814 -3.012706 1.081466 0
M  V30 30 C -0.884990 -4.288800 1.522445 0
M  V30 31 C -1.626980 -4.985018 2.452818 0
M  V30 32 C -2.728146 -4.346978 2.976966 0
M  V30 33 C -3.074755 -3.059056 2.585683 0
M  V30 34 C -2.291050 -2.406846 1.646145 0
M  V30 35 H 3.258913 -2.964858 2.878542 0
M  V30 36 H 2.390947 -3.124757 1.272693 0
M  V30 37 H 1.718200 -3.922170 2.726881 0
M  V30 38 H 0.511483 -0.969228 4.329753 0
M  V30 39 H 2.048222 -1.882089 4.732309 0
M  V30 40 H 2.103194 -0.255140 4.005253 0
M  V30 41 H 2.735227 0.578798 -1.325482 0
M  V30 42 H 3.043752 0.030803 0.312710 0
M  V30 43 H 1.928213 1.944819 1.016192 0
M  V30 44 H 1.332854 3.742323 1.720532 0
M  V30 45 H 0.452394 5.837164 2.576779 0
M  V30 46 H -1.876340 6.193410 -0.974578 0
M  V30 47 H -0.991513 4.078682 -1.843411 0
M  V30 48 H 0.271926 -1.932012 -4.298462 0
M  V30 49 H -1.382362 -3.678062 -4.865254 0
M  V30 50 H -2.105774 -4.123090 -0.694415 0
M  V30 51 H -0.023353 -4.777026 1.106873 0
M  V30 52 H -1.316576 -5.987671 2.725424 0
M  V30 53 H -3.337174 -4.857468 3.709219 0
M  V30 54 H -3.949014 -2.565817 3.008379 0
M  V30 55 H -2.616290 -1.401540 1.382733 0
M  V30 END ATOM
M  V30 BEGIN BOND
M  V30 1 1 1 2
M  V30 2 1 2 3
M  V30 3 1 2 4
M  V30 4 2 4 5
M  V30 5 1 4 6
M  V30 6 2 6 7
M  V30 7 1 7 8
M  V30 8 1 8 9
M  V30 9 1 9 10
M  V30 10 2 10 11
M  V30 11 1 10 12
M  V30 12 2 12 13
M  V30 13 1 13 14
M  V30 14 2 14 15
M  V30 15 1 15 16
M  V30 16 1 15 17
M  V30 17 2 17 18
M  V30 18 1 7 19
M  V30 19 2 19 20
M  V30 20 1 19 21
M  V30 21 2 21 22
M  V30 22 1 22 23
M  V30 23 2 23 24
M  V30 24 1 24 25
M  V30 25 1 24 26
M  V30 26 2 26 27
M  V30 27 1 27 28
M  V30 28 1 28 29
M  V30 29 2 29 30
M  V30 30 1 30 31
M  V30 31 2 31 32
M  V30 32 1 32 33
M  V30 33 2 33 34
M  V30 34 1 28 6
M  V30 35 1 34 29
M  V30 36 1 18 12
M  V30 37 1 27 21
M  V30 38 1 1 35
M  V30 39 1 1 36
M  V30 40 1 1 37
M  V30 41 1 3 38
M  V30 42 1 3 39
M  V30 43 1 3 40
M  V30 44 1 8 41
M  V30 45 1 8 42
M  V30 46 1 9 43
M  V30 47 1 13 44
M  V30 48 1 14 45
M  V30 49 1 17 46
M  V30 50 1 18 47
M  V30 51 1 22 48
M  V30 52 1 23 49
M  V30 53 1 26 50
M  V30 54 1 30 51
M  V30 55 1 31 52
M  V30 56 1 32 53
M  V30 57 1 33 54
M  V30 58 1 34 55
M  V30 END BOND
M  V30 END CTAB
M  END
>  <Dataset>  (502) 
ChEMBL_Kinases

>  <Ligand_Instance>  (502) 
nan

>  <PDB_ID>  (502) 
nan

>  <Standardized_SMILES>  (502) 
CN(C)C(=O)c1c(CNC(=O)c2ccc(F)cc2)c(=O)c2ccc(Cl)cc2n1-c1ccccc1

>  <Name>  (502) 
nan

>  <Pocket>  (502) 
nan

>  <ATP_Site>  (502) 
nan

>  <Peripheral>  (502) 
nan

>  <Num_H_Atoms_ProtBoundConf>  (502) 
nan

>  <Num_Resolved_Atoms>  (502) 
nan

>  <Num_Not_Resolved_Atoms>  (502) 
nan

$$$$
CHEMBL3679439
     RDKit          3D

  0  0  0  0  0  0  0  0  0  0999 V3000
M  V30 BEGIN CTAB
M  V30 COUNTS 61 64 0 0 0
M  V30 BEGIN ATOM
M  V30 1 C -0.248760 -0.894502 2.259572 0
M  V30 2 N 0.930977 -0.037756 2.089173 0
M  V30 3 C 1.162455 0.966738 3.084166 0
M  V30 4 C 1.910756 -0.058001 1.048336 0
M  V30 5 O 2.925122 0.686682 0.911517 0
M  V30 6 C 2.069230 -0.887244 -0.134787 0
M  V30 7 C 1.575254 -0.559687 -1.384981 0
M  V30 8 C 0.831480 0.724075 -1.537333 0
M  V30 9 N -0.499187 0.669248 -1.011645 0
M  V30 10 C -1.448893 1.731795 -1.009315 0
M  V30 11 O -1.020985 2.807278 -1.536441 0
M  V30 12 C -2.792299 1.593744 -0.450522 0
M  V30 13 C -3.320458 0.461570 0.133975 0
M  V30 14 C -4.608512 0.453880 0.627712 0
M  V30 15 C -5.429008 1.558893 0.566645 0
M  V30 16 S -7.030218 1.396688 1.232499 0
M  V30 17 C -8.198391 0.840717 0.027654 0
M  V30 18 O -7.009814 0.371745 2.341988 0
M  V30 19 O -7.492831 2.707425 1.849079 0
M  V30 20 C -4.910950 2.709350 -0.020173 0
M  V30 21 C -3.608406 2.704862 -0.515310 0
M  V30 22 C 1.802993 -1.448210 -2.422909 0
M  V30 23 O 1.332309 -1.105306 -3.546944 0
M  V30 24 C 2.503333 -2.612651 -2.182769 0
M  V30 25 C 2.705367 -3.467668 -3.250016 0
M  V30 26 C 3.390055 -4.651210 -3.114308 0
M  V30 27 C 3.873168 -4.947555 -1.839141 0
M  V30 28 Cl 4.758836 -6.418607 -1.533299 0
M  V30 29 C 3.682276 -4.103448 -0.751295 0
M  V30 30 C 2.992680 -2.932600 -0.934319 0
M  V30 31 N 2.748424 -2.038987 0.049084 0
M  V30 32 C 3.272216 -2.399145 1.345791 0
M  V30 33 C 4.523219 -2.117694 1.877244 0
M  V30 34 C 4.789095 -2.572861 3.147744 0
M  V30 35 C 3.880550 -3.273258 3.876676 0
M  V30 36 C 2.618763 -3.559502 3.345998 0
M  V30 37 C 2.345322 -3.104926 2.069779 0
M  V30 38 H -0.429575 -1.534469 1.395776 0
M  V30 39 H -0.030044 -1.511578 3.176400 0
M  V30 40 H -1.083245 -0.207734 2.523369 0
M  V30 41 H 1.590336 1.881257 2.653412 0
M  V30 42 H 1.773221 0.579216 3.945331 0
M  V30 43 H 0.200304 1.260023 3.554860 0
M  V30 44 H 0.737865 0.873547 -2.648004 0
M  V30 45 H 1.434896 1.555111 -1.134602 0
M  V30 46 H -0.792187 -0.236321 -0.593517 0
M  V30 47 H -2.673082 -0.399130 0.178308 0
M  V30 48 H -4.920442 -0.477597 1.061825 0
M  V30 49 H -9.229235 1.192284 0.225653 0
M  V30 50 H -7.843684 1.139031 -0.991066 0
M  V30 51 H -8.249995 -0.278910 0.001415 0
M  V30 52 H -5.573054 3.559876 -0.055470 0
M  V30 53 H -3.239095 3.630411 -0.969354 0
M  V30 54 H 2.309118 -3.195591 -4.232162 0
M  V30 55 H 3.566917 -5.342913 -3.924208 0
M  V30 56 H 4.060956 -4.345173 0.227873 0
M  V30 57 H 5.149047 -1.555934 1.197215 0
M  V30 58 H 5.776425 -2.324899 3.509073 0
M  V30 59 H 4.152632 -3.606316 4.878645 0
M  V30 60 H 1.939017 -4.127340 3.989937 0
M  V30 61 H 1.339917 -3.381335 1.755595 0
M  V30 END ATOM
M  V30 BEGIN BOND
M  V30 1 1 1 2
M  V30 2 1 2 3
M  V30 3 1 2 4
M  V30 4 2 4 5
M  V30 5 1 4 6
M  V30 6 2 6 7
M  V30 7 1 7 8
M  V30 8 1 8 9
M  V30 9 1 9 10
M  V30 10 2 10 11
M  V30 11 1 10 12
M  V30 12 2 12 13
M  V30 13 1 13 14
M  V30 14 2 14 15
M  V30 15 1 15 16
M  V30 16 1 16 17
M  V30 17 2 16 18
M  V30 18 2 16 19
M  V30 19 1 15 20
M  V30 20 2 20 21
M  V30 21 1 7 22
M  V30 22 2 22 23
M  V30 23 1 22 24
M  V30 24 2 24 25
M  V30 25 1 25 26
M  V30 26 2 26 27
M  V30 27 1 27 28
M  V30 28 1 27 29
M  V30 29 2 29 30
M  V30 30 1 30 31
M  V30 31 1 31 32
M  V30 32 2 32 33
M  V30 33 1 33 34
M  V30 34 2 34 35
M  V30 35 1 35 36
M  V30 36 2 36 37
M  V30 37 1 31 6
M  V30 38 1 37 32
M  V30 39 1 21 12
M  V30 40 1 30 24
M  V30 41 1 1 38
M  V30 42 1 1 39
M  V30 43 1 1 40
M  V30 44 1 3 41
M  V30 45 1 3 42
M  V30 46 1 3 43
M  V30 47 1 8 44
M  V30 48 1 8 45
M  V30 49 1 9 46
M  V30 50 1 13 47
M  V30 51 1 14 48
M  V30 52 1 17 49
M  V30 53 1 17 50
M  V30 54 1 17 51
M  V30 55 1 20 52
M  V30 56 1 21 53
M  V30 57 1 25 54
M  V30 58 1 26 55
M  V30 59 1 29 56
M  V30 60 1 33 57
M  V30 61 1 34 58
M  V30 62 1 35 59
M  V30 63 1 36 60
M  V30 64 1 37 61
M  V30 END BOND
M  V30 END CTAB
M  END
>  <Dataset>  (503) 
ChEMBL_Kinases

>  <Ligand_Instance>  (503) 
nan

>  <PDB_ID>  (503) 
nan

>  <Standardized_SMILES>  (503) 
CN(C)C(=O)c1c(CNC(=O)c2ccc(S(C)(=O)=O)cc2)c(=O)c2ccc(Cl)cc2n1-c1ccccc1

>  <Name>  (503) 
nan

>  <Pocket>  (503) 
nan

>  <ATP_Site>  (503) 
nan

>  <Peripheral>  (503) 
nan

>  <Num_H_Atoms_ProtBoundConf>  (503) 
nan

>  <Num_Resolved_Atoms>  (503) 
nan

>  <Num_Not_Resolved_Atoms>  (503) 
nan

$$$$
CHEMBL3679438
     RDKit          3D

  0  0  0  0  0  0  0  0  0  0999 V3000
M  V30 BEGIN CTAB
M  V30 COUNTS 61 65 0 0 0
M  V30 BEGIN ATOM
M  V30 1 C 1.112766 0.407067 4.127708 0
M  V30 2 N 0.646038 -0.943759 3.898542 0
M  V30 3 C 0.527289 -1.828395 5.042656 0
M  V30 4 C 0.391173 -1.111178 2.480387 0
M  V30 5 O 0.732913 0.067524 2.099739 0
M  V30 6 C -0.093409 -2.184577 1.617701 0
M  V30 7 C -1.426389 -2.617459 1.526772 0
M  V30 8 C -2.243475 -1.689955 2.385428 0
M  V30 9 N -2.355779 -0.404655 1.665728 0
M  V30 10 C -2.751871 0.968404 1.614177 0
M  V30 11 O -3.237859 1.147671 2.786275 0
M  V30 12 C -2.518191 1.726073 0.376134 0
M  V30 13 C -2.900605 0.979613 -0.760751 0
M  V30 14 C -2.685047 1.567065 -1.997474 0
M  V30 15 C -2.110652 2.840193 -2.025734 0
M  V30 16 C -1.950407 3.374483 -3.395910 0
M  V30 17 C -1.420925 4.590821 -3.719940 0
M  V30 18 N -1.445661 4.724953 -5.100267 0
M  V30 19 C -1.996495 3.559683 -5.531533 0
M  V30 20 O -2.284267 2.781536 -4.506572 0
M  V30 21 C -1.730492 3.582866 -0.929529 0
M  V30 22 C -1.962341 2.962878 0.284958 0
M  V30 23 C -1.748980 -3.647295 0.708842 0
M  V30 24 O -2.962429 -3.926194 0.729578 0
M  V30 25 C -0.737111 -4.231279 -0.013116 0
M  V30 26 C -1.099293 -5.273472 -0.847375 0
M  V30 27 C -0.131401 -5.908993 -1.619732 0
M  V30 28 C 1.189653 -5.498541 -1.551894 0
M  V30 29 Cl 2.524228 -6.184535 -2.449310 0
M  V30 30 C 1.531570 -4.462530 -0.717153 0
M  V30 31 C 0.579031 -3.828221 0.051938 0
M  V30 32 N 0.878635 -2.804557 0.873667 0
M  V30 33 C 2.238356 -2.398467 0.903269 0
M  V30 34 C 2.442768 -1.221624 0.187430 0
M  V30 35 C 3.743676 -0.712700 0.139429 0
M  V30 36 C 4.792319 -1.326027 0.760843 0
M  V30 37 C 4.597745 -2.510921 1.485854 0
M  V30 38 C 3.311385 -2.999282 1.523461 0
M  V30 39 H 1.098255 0.645355 5.193839 0
M  V30 40 H 0.388746 1.127130 3.656399 0
M  V30 41 H 2.112761 0.584959 3.667917 0
M  V30 42 H -0.209998 -1.445114 5.799897 0
M  V30 43 H 0.152735 -2.827399 4.734575 0
M  V30 44 H 1.466684 -1.965750 5.590001 0
M  V30 45 H -1.805730 -1.627973 3.357432 0
M  V30 46 H -3.263704 -2.085109 2.488493 0
M  V30 47 H -1.926701 -0.633115 0.698172 0
M  V30 48 H -3.342034 0.001860 -0.722370 0
M  V30 49 H -2.973919 1.008256 -2.872676 0
M  V30 50 H -1.025450 5.393794 -3.106973 0
M  V30 51 H -2.150829 3.360373 -6.602374 0
M  V30 52 H -1.286969 4.557666 -1.018662 0
M  V30 53 H -1.699310 3.447571 1.228094 0
M  V30 54 H -2.128073 -5.595604 -0.905791 0
M  V30 55 H -0.338500 -6.725356 -2.293933 0
M  V30 56 H 2.550075 -4.086966 -0.614835 0
M  V30 57 H 1.738677 -0.615286 -0.359414 0
M  V30 58 H 4.013200 0.198348 -0.392512 0
M  V30 59 H 5.809826 -0.958994 0.746577 0
M  V30 60 H 5.339259 -3.088249 2.022825 0
M  V30 61 H 3.006719 -3.897226 2.036525 0
M  V30 END ATOM
M  V30 BEGIN BOND
M  V30 1 1 1 2
M  V30 2 1 2 3
M  V30 3 1 2 4
M  V30 4 2 4 5
M  V30 5 1 4 6
M  V30 6 2 6 7
M  V30 7 1 7 8
M  V30 8 1 8 9
M  V30 9 1 9 10
M  V30 10 2 10 11
M  V30 11 1 10 12
M  V30 12 2 12 13
M  V30 13 1 13 14
M  V30 14 2 14 15
M  V30 15 1 15 16
M  V30 16 2 16 17
M  V30 17 1 17 18
M  V30 18 2 18 19
M  V30 19 1 19 20
M  V30 20 1 15 21
M  V30 21 2 21 22
M  V30 22 1 7 23
M  V30 23 2 23 24
M  V30 24 1 23 25
M  V30 25 2 25 26
M  V30 26 1 26 27
M  V30 27 2 27 28
M  V30 28 1 28 29
M  V30 29 1 28 30
M  V30 30 2 30 31
M  V30 31 1 31 32
M  V30 32 1 32 33
M  V30 33 2 33 34
M  V30 34 1 34 35
M  V30 35 2 35 36
M  V30 36 1 36 37
M  V30 37 2 37 38
M  V30 38 1 32 6
M  V30 39 1 38 33
M  V30 40 1 22 12
M  V30 41 1 31 25
M  V30 42 1 20 16
M  V30 43 1 1 39
M  V30 44 1 1 40
M  V30 45 1 1 41
M  V30 46 1 3 42
M  V30 47 1 3 43
M  V30 48 1 3 44
M  V30 49 1 8 45
M  V30 50 1 8 46
M  V30 51 1 9 47
M  V30 52 1 13 48
M  V30 53 1 14 49
M  V30 54 1 17 50
M  V30 55 1 19 51
M  V30 56 1 21 52
M  V30 57 1 22 53
M  V30 58 1 26 54
M  V30 59 1 27 55
M  V30 60 1 30 56
M  V30 61 1 34 57
M  V30 62 1 35 58
M  V30 63 1 36 59
M  V30 64 1 37 60
M  V30 65 1 38 61
M  V30 END BOND
M  V30 END CTAB
M  END
>  <Dataset>  (504) 
ChEMBL_Kinases

>  <Ligand_Instance>  (504) 
nan

>  <PDB_ID>  (504) 
nan

>  <Standardized_SMILES>  (504) 
CN(C)C(=O)c1c(CNC(=O)c2ccc(-c3cnco3)cc2)c(=O)c2ccc(Cl)cc2n1-c1ccccc1

>  <Name>  (504) 
nan

>  <Pocket>  (504) 
nan

>  <ATP_Site>  (504) 
nan

>  <Peripheral>  (504) 
nan

>  <Num_H_Atoms_ProtBoundConf>  (504) 
nan

>  <Num_Resolved_Atoms>  (504) 
nan

>  <Num_Not_Resolved_Atoms>  (504) 
nan

$$$$
CHEMBL3687175
     RDKit          3D

  0  0  0  0  0  0  0  0  0  0999 V3000
M  V30 BEGIN CTAB
M  V30 COUNTS 45 48 0 0 0
M  V30 BEGIN ATOM
M  V30 1 N 1.253403 -3.588467 4.385921 0
M  V30 2 C 1.099251 -2.834329 3.523241 0
M  V30 3 C 0.933278 -1.897249 2.455717 0
M  V30 4 C 2.022703 -1.249466 1.918999 0
M  V30 5 C 1.826198 -0.355745 0.894490 0
M  V30 6 C 2.961793 0.343009 0.308990 0
M  V30 7 C 4.248898 0.136818 0.752975 0
M  V30 8 C 5.317947 0.779482 0.218633 0
M  V30 9 N 5.137005 1.653038 -0.780895 0
M  V30 10 C 3.882275 1.887084 -1.250375 0
M  V30 11 N 3.778440 2.821627 -2.304642 0
M  V30 12 C 2.639404 3.289087 -3.013968 0
M  V30 13 C 2.484492 4.202165 -4.052860 0
M  V30 14 N 1.195404 4.281339 -4.356586 0
M  V30 15 N 0.452273 3.499990 -3.614232 0
M  V30 16 C 1.322137 2.888912 -2.790634 0
M  V30 17 N 2.856916 1.233137 -0.696210 0
M  V30 18 C 0.554971 -0.119337 0.419718 0
M  V30 19 C -0.528062 -0.799479 0.993411 0
M  V30 20 C -0.363189 -1.719273 2.041576 0
M  V30 21 O -1.539958 -2.210272 2.389747 0
M  V30 22 C -2.116242 -3.072311 3.250029 0
M  V30 23 C -3.204370 -2.474640 4.131116 0
M  V30 24 C -4.320526 -1.911870 3.319589 0
M  V30 25 O -4.437982 -2.299122 2.031396 0
M  V30 26 C -3.923728 -3.476610 1.619445 0
M  V30 27 C -2.899196 -4.130641 2.452585 0
M  V30 28 H 2.974682 -1.497961 2.353810 0
M  V30 29 H 4.505154 -0.529851 1.535543 0
M  V30 30 H 6.355879 0.638246 0.548879 0
M  V30 31 H 4.637751 3.287600 -2.677778 0
M  V30 32 H 3.349786 4.722554 -4.485255 0
M  V30 33 H -0.574381 3.366506 -3.638100 0
M  V30 34 H 1.008596 2.178847 -2.055400 0
M  V30 35 H 0.467015 0.593036 -0.385437 0
M  V30 36 H -1.457882 -0.499906 0.505601 0
M  V30 37 H -1.400722 -3.567986 3.919546 0
M  V30 38 H -3.593887 -3.316213 4.742284 0
M  V30 39 H -2.807867 -1.727340 4.850101 0
M  V30 40 H -5.287866 -2.111534 3.848105 0
M  V30 41 H -4.223752 -0.804841 3.328935 0
M  V30 42 H -4.755695 -4.196487 1.433828 0
M  V30 43 H -3.474950 -3.320191 0.594213 0
M  V30 44 H -3.362950 -4.778365 3.216775 0
M  V30 45 H -2.163615 -4.685998 1.837320 0
M  V30 END ATOM
M  V30 BEGIN BOND
M  V30 1 3 1 2
M  V30 2 1 2 3
M  V30 3 2 3 4
M  V30 4 1 4 5
M  V30 5 1 5 6
M  V30 6 2 6 7
M  V30 7 1 7 8
M  V30 8 2 8 9
M  V30 9 1 9 10
M  V30 10 1 10 11
M  V30 11 1 11 12
M  V30 12 1 12 13
M  V30 13 2 13 14
M  V30 14 1 14 15
M  V30 15 1 15 16
M  V30 16 2 10 17
M  V30 17 2 5 18
M  V30 18 1 18 19
M  V30 19 2 19 20
M  V30 20 1 20 21
M  V30 21 1 21 22
M  V30 22 1 22 23
M  V30 23 1 23 24
M  V30 24 1 24 25
M  V30 25 1 25 26
M  V30 26 1 26 27
M  V30 27 1 20 3
M  V30 28 1 27 22
M  V30 29 1 17 6
M  V30 30 2 16 12
M  V30 31 1 4 28
M  V30 32 1 7 29
M  V30 33 1 8 30
M  V30 34 1 11 31
M  V30 35 1 13 32
M  V30 36 1 15 33
M  V30 37 1 16 34
M  V30 38 1 18 35
M  V30 39 1 19 36
M  V30 40 1 22 37
M  V30 41 1 23 38
M  V30 42 1 23 39
M  V30 43 1 24 40
M  V30 44 1 24 41
M  V30 45 1 26 42
M  V30 46 1 26 43
M  V30 47 1 27 44
M  V30 48 1 27 45
M  V30 END BOND
M  V30 END CTAB
M  END
>  <Dataset>  (505) 
ChEMBL_Kinases

>  <Ligand_Instance>  (505) 
nan

>  <PDB_ID>  (505) 
nan

>  <Standardized_SMILES>  (505) 
N#Cc1cc(-c2ccnc(Nc3cn[nH]c3)n2)ccc1OC1CCOCC1

>  <Name>  (505) 
nan

>  <Pocket>  (505) 
nan

>  <ATP_Site>  (505) 
nan

>  <Peripheral>  (505) 
nan

>  <Num_H_Atoms_ProtBoundConf>  (505) 
nan

>  <Num_Resolved_Atoms>  (505) 
nan

>  <Num_Not_Resolved_Atoms>  (505) 
nan

$$$$
CHEMBL3679436
     RDKit          3D

  0  0  0  0  0  0  0  0  0  0999 V3000
M  V30 BEGIN CTAB
M  V30 COUNTS 57 61 0 0 0
M  V30 BEGIN ATOM
M  V30 1 C 3.694043 1.646817 -0.315117 0
M  V30 2 N 3.155939 0.488180 0.415167 0
M  V30 3 C 4.029081 -0.248582 1.332760 0
M  V30 4 C 1.770159 0.237759 0.093076 0
M  V30 5 O 1.885570 1.226927 -0.662358 0
M  V30 6 C 1.061125 -0.868172 0.718284 0
M  V30 7 C 0.166306 -0.546078 1.680657 0
M  V30 8 C -0.401144 0.722291 2.180276 0
M  V30 9 N -1.643664 1.032869 1.470028 0
M  V30 10 C -2.337663 1.290565 0.200130 0
M  V30 11 O -1.143962 1.075949 -0.158728 0
M  V30 12 C -3.708611 1.548195 0.462643 0
M  V30 13 C -4.371512 1.990101 1.567268 0
M  V30 14 C -5.715261 2.087485 1.535850 0
M  V30 15 C -6.417642 1.748809 0.410133 0
M  V30 16 N -7.718902 1.795223 0.241589 0
M  V30 17 C -8.420074 1.553481 -0.612548 0
M  V30 18 S -7.120802 0.990257 -1.920074 0
M  V30 19 C -5.755346 1.298462 -0.721976 0
M  V30 20 C -4.336004 1.177856 -0.742987 0
M  V30 21 C -0.446436 -1.640645 2.314510 0
M  V30 22 O -1.302252 -1.594096 3.233612 0
M  V30 23 C -0.077621 -2.916590 1.891257 0
M  V30 24 C -0.629263 -4.050273 2.452591 0
M  V30 25 C -0.345038 -5.360298 2.112874 0
M  V30 26 C 0.588787 -5.503589 1.107797 0
M  V30 27 Cl 1.032268 -7.132407 0.595048 0
M  V30 28 C 1.191601 -4.430905 0.490814 0
M  V30 29 C 0.845658 -3.149287 0.897157 0
M  V30 30 N 1.433271 -2.079578 0.293234 0
M  V30 31 C 2.393915 -2.244605 -0.715296 0
M  V30 32 C 2.038758 -1.611347 -1.915928 0
M  V30 33 C 2.848129 -1.648142 -3.027113 0
M  V30 34 C 4.064237 -2.315575 -3.018454 0
M  V30 35 C 4.420483 -2.938105 -1.845168 0
M  V30 36 C 3.608112 -2.899684 -0.737093 0
M  V30 37 H 3.213101 2.588433 0.021548 0
M  V30 38 H 3.646157 1.468499 -1.405054 0
M  V30 39 H 4.777510 1.748070 -0.083347 0
M  V30 40 H 4.498761 0.387471 2.073054 0
M  V30 41 H 4.852586 -0.729089 0.724727 0
M  V30 42 H 3.495691 -1.092341 1.794707 0
M  V30 43 H 0.281938 1.589005 1.906177 0
M  V30 44 H -0.553836 0.729561 3.254831 0
M  V30 45 H -2.288362 1.041972 2.372608 0
M  V30 46 H -3.768625 2.254869 2.417081 0
M  V30 47 H -6.132304 2.456092 2.489144 0
M  V30 48 H -9.579129 1.644987 -0.621741 0
M  V30 49 H -4.011839 0.820597 -1.688493 0
M  V30 50 H -1.366198 -3.926324 3.247167 0
M  V30 51 H -0.841291 -6.185570 2.623014 0
M  V30 52 H 1.907019 -4.635276 -0.290709 0
M  V30 53 H 1.113109 -1.050325 -2.067983 0
M  V30 54 H 2.604830 -1.171541 -3.957599 0
M  V30 55 H 4.690194 -2.339223 -3.895191 0
M  V30 56 H 5.358176 -3.480587 -1.760607 0
M  V30 57 H 3.828280 -3.366298 0.233844 0
M  V30 END ATOM
M  V30 BEGIN BOND
M  V30 1 1 1 2
M  V30 2 1 2 3
M  V30 3 1 2 4
M  V30 4 2 4 5
M  V30 5 1 4 6
M  V30 6 2 6 7
M  V30 7 1 7 8
M  V30 8 1 8 9
M  V30 9 1 9 10
M  V30 10 2 10 11
M  V30 11 1 10 12
M  V30 12 2 12 13
M  V30 13 1 13 14
M  V30 14 2 14 15
M  V30 15 1 15 16
M  V30 16 2 16 17
M  V30 17 1 17 18
M  V30 18 1 18 19
M  V30 19 2 19 20
M  V30 20 1 7 21
M  V30 21 2 21 22
M  V30 22 1 21 23
M  V30 23 2 23 24
M  V30 24 1 24 25
M  V30 25 2 25 26
M  V30 26 1 26 27
M  V30 27 1 26 28
M  V30 28 2 28 29
M  V30 29 1 29 30
M  V30 30 1 30 31
M  V30 31 2 31 32
M  V30 32 1 32 33
M  V30 33 2 33 34
M  V30 34 1 34 35
M  V30 35 2 35 36
M  V30 36 1 30 6
M  V30 37 1 36 31
M  V30 38 1 20 12
M  V30 39 1 29 23
M  V30 40 1 19 15
M  V30 41 1 1 37
M  V30 42 1 1 38
M  V30 43 1 1 39
M  V30 44 1 3 40
M  V30 45 1 3 41
M  V30 46 1 3 42
M  V30 47 1 8 43
M  V30 48 1 8 44
M  V30 49 1 9 45
M  V30 50 1 13 46
M  V30 51 1 14 47
M  V30 52 1 17 48
M  V30 53 1 20 49
M  V30 54 1 24 50
M  V30 55 1 25 51
M  V30 56 1 28 52
M  V30 57 1 32 53
M  V30 58 1 33 54
M  V30 59 1 34 55
M  V30 60 1 35 56
M  V30 61 1 36 57
M  V30 END BOND
M  V30 END CTAB
M  END
>  <Dataset>  (506) 
ChEMBL_Kinases

>  <Ligand_Instance>  (506) 
nan

>  <PDB_ID>  (506) 
nan

>  <Standardized_SMILES>  (506) 
CN(C)C(=O)c1c(CNC(=O)c2ccc3ncsc3c2)c(=O)c2ccc(Cl)cc2n1-c1ccccc1

>  <Name>  (506) 
nan

>  <Pocket>  (506) 
nan

>  <ATP_Site>  (506) 
nan

>  <Peripheral>  (506) 
nan

>  <Num_H_Atoms_ProtBoundConf>  (506) 
nan

>  <Num_Resolved_Atoms>  (506) 
nan

>  <Num_Not_Resolved_Atoms>  (506) 
nan

$$$$
CHEMBL3679435
     RDKit          3D

  0  0  0  0  0  0  0  0  0  0999 V3000
M  V30 BEGIN CTAB
M  V30 COUNTS 59 62 0 0 0
M  V30 BEGIN ATOM
M  V30 1 C 5.646098 -0.863651 7.020505 0
M  V30 2 O 4.988734 -1.479552 5.944360 0
M  V30 3 C 4.460371 -0.813950 4.861580 0
M  V30 4 C 3.875490 -1.677121 3.967245 0
M  V30 5 C 3.273372 -1.232191 2.791590 0
M  V30 6 C 3.258467 0.134568 2.502604 0
M  V30 7 C 2.672050 0.750454 1.305744 0
M  V30 8 O 2.798855 2.000894 1.052340 0
M  V30 9 N 1.922706 0.056689 0.326609 0
M  V30 10 C 1.365843 0.696133 -0.849930 0
M  V30 11 C 0.557969 -0.382469 -1.531373 0
M  V30 12 C -0.684125 -0.536417 -0.901498 0
M  V30 13 C -1.099041 0.297967 0.226777 0
M  V30 14 O -0.914893 0.327384 1.471009 0
M  V30 15 N -1.931272 1.321103 -0.377127 0
M  V30 16 C -2.352705 1.575623 -1.764968 0
M  V30 17 C -2.508314 2.358425 0.494810 0
M  V30 18 N -1.606843 -1.444614 -1.287364 0
M  V30 19 C -2.857765 -1.569209 -0.610794 0
M  V30 20 C -2.687290 -2.067019 0.685302 0
M  V30 21 C -3.735507 -2.292358 1.578022 0
M  V30 22 C -5.028474 -1.995947 1.128464 0
M  V30 23 C -5.172428 -1.509024 -0.146269 0
M  V30 24 C -4.151240 -1.285385 -1.025873 0
M  V30 25 C -1.319287 -2.247226 -2.336072 0
M  V30 26 C -2.216546 -3.199503 -2.787728 0
M  V30 27 C -1.959270 -4.050777 -3.869226 0
M  V30 28 Cl -3.073327 -5.241533 -4.446735 0
M  V30 29 C -0.705247 -3.840978 -4.445922 0
M  V30 30 C 0.232921 -2.913747 -4.048977 0
M  V30 31 C -0.100915 -2.110942 -2.970700 0
M  V30 32 C 0.859026 -1.196516 -2.601198 0
M  V30 33 O 1.974935 -0.980048 -3.082407 0
M  V30 34 C 3.847633 0.992132 3.406636 0
M  V30 35 C 4.449300 0.532725 4.584275 0
M  V30 36 H 5.019974 -0.909349 7.942819 0
M  V30 37 H 6.595002 -1.415792 7.239771 0
M  V30 38 H 5.837648 0.189048 6.807903 0
M  V30 39 H 3.814982 -2.772506 4.065794 0
M  V30 40 H 2.805800 -1.875297 2.065924 0
M  V30 41 H 1.812924 -0.979802 0.546907 0
M  V30 42 H 0.769441 1.583228 -0.659856 0
M  V30 43 H 2.175976 0.953470 -1.561353 0
M  V30 44 H -2.027906 0.737447 -2.423274 0
M  V30 45 H -1.795682 2.473625 -2.100363 0
M  V30 46 H -3.439429 1.707076 -1.835805 0
M  V30 47 H -3.478931 2.060205 0.908417 0
M  V30 48 H -1.789447 2.451700 1.365784 0
M  V30 49 H -2.515406 3.352431 0.035156 0
M  V30 50 H -1.714836 -2.329678 1.130993 0
M  V30 51 H -3.590424 -2.675573 2.571060 0
M  V30 52 H -5.888233 -2.149060 1.773328 0
M  V30 53 H -6.172672 -1.272207 -0.516522 0
M  V30 54 H -4.178858 -0.909385 -2.034681 0
M  V30 55 H -3.164494 -3.291511 -2.282371 0
M  V30 56 H -0.450327 -4.471071 -5.285918 0
M  V30 57 H 1.182536 -2.818305 -4.552588 0
M  V30 58 H 3.868467 2.067520 3.242210 0
M  V30 59 H 4.913482 1.164934 5.302501 0
M  V30 END ATOM
M  V30 BEGIN BOND
M  V30 1 1 1 2
M  V30 2 1 2 3
M  V30 3 2 3 4
M  V30 4 1 4 5
M  V30 5 2 5 6
M  V30 6 1 6 7
M  V30 7 2 7 8
M  V30 8 1 7 9
M  V30 9 1 9 10
M  V30 10 1 10 11
M  V30 11 2 11 12
M  V30 12 1 12 13
M  V30 13 2 13 14
M  V30 14 1 13 15
M  V30 15 1 15 16
M  V30 16 1 15 17
M  V30 17 1 12 18
M  V30 18 1 18 19
M  V30 19 2 19 20
M  V30 20 1 20 21
M  V30 21 2 21 22
M  V30 22 1 22 23
M  V30 23 2 23 24
M  V30 24 1 18 25
M  V30 25 2 25 26
M  V30 26 1 26 27
M  V30 27 1 27 28
M  V30 28 2 27 29
M  V30 29 1 29 30
M  V30 30 2 30 31
M  V30 31 1 31 32
M  V30 32 2 32 33
M  V30 33 1 6 34
M  V30 34 2 34 35
M  V30 35 1 35 3
M  V30 36 1 32 11
M  V30 37 1 24 19
M  V30 38 1 31 25
M  V30 39 1 1 36
M  V30 40 1 1 37
M  V30 41 1 1 38
M  V30 42 1 4 39
M  V30 43 1 5 40
M  V30 44 1 9 41
M  V30 45 1 10 42
M  V30 46 1 10 43
M  V30 47 1 16 44
M  V30 48 1 16 45
M  V30 49 1 16 46
M  V30 50 1 17 47
M  V30 51 1 17 48
M  V30 52 1 17 49
M  V30 53 1 20 50
M  V30 54 1 21 51
M  V30 55 1 22 52
M  V30 56 1 23 53
M  V30 57 1 24 54
M  V30 58 1 26 55
M  V30 59 1 29 56
M  V30 60 1 30 57
M  V30 61 1 34 58
M  V30 62 1 35 59
M  V30 END BOND
M  V30 END CTAB
M  END
>  <Dataset>  (507) 
ChEMBL_Kinases

>  <Ligand_Instance>  (507) 
nan

>  <PDB_ID>  (507) 
nan

>  <Standardized_SMILES>  (507) 
COc1ccc(C(=O)NCc2c(C(=O)N(C)C)n(-c3ccccc3)c3cc(Cl)ccc3c2=O)cc1

>  <Name>  (507) 
nan

>  <Pocket>  (507) 
nan

>  <ATP_Site>  (507) 
nan

>  <Peripheral>  (507) 
nan

>  <Num_H_Atoms_ProtBoundConf>  (507) 
nan

>  <Num_Resolved_Atoms>  (507) 
nan

>  <Num_Not_Resolved_Atoms>  (507) 
nan

$$$$
CHEMBL3679434
     RDKit          3D

  0  0  0  0  0  0  0  0  0  0999 V3000
M  V30 BEGIN CTAB
M  V30 COUNTS 64 68 0 0 0
M  V30 BEGIN ATOM
M  V30 1 C 3.556673 2.445762 1.680298 0
M  V30 2 N 3.038816 1.087464 1.767783 0
M  V30 3 C 4.199414 0.265091 2.152458 0
M  V30 4 C 1.641991 0.846581 1.490978 0
M  V30 5 O 1.130220 1.960564 1.208248 0
M  V30 6 C 1.513722 -0.597915 1.680899 0
M  V30 7 C 1.947413 -1.458858 0.711837 0
M  V30 8 C 2.477218 -0.960462 -0.611133 0
M  V30 9 N 1.259144 -0.716059 -1.415289 0
M  V30 10 C 1.293036 -0.206591 -2.761472 0
M  V30 11 O 2.437317 0.031281 -3.183421 0
M  V30 12 C -0.038130 -0.064651 -3.381289 0
M  V30 13 C -0.403782 0.363077 -4.597646 0
M  V30 14 N -1.664402 0.399846 -4.948575 0
M  V30 15 C -2.573256 0.031890 -4.151825 0
M  V30 16 N -3.997346 -0.103449 -4.086431 0
M  V30 17 C -4.734745 -0.668961 -2.974878 0
M  V30 18 C -5.697939 -1.731484 -3.418109 0
M  V30 19 O -6.463988 -1.390807 -4.506477 0
M  V30 20 C -5.612631 -0.993614 -5.559979 0
M  V30 21 C -4.940748 0.284714 -5.076790 0
M  V30 22 S -1.642380 -0.443964 -2.690408 0
M  V30 23 C 1.833293 -2.807773 0.931633 0
M  V30 24 O 2.235113 -3.578848 0.041063 0
M  V30 25 C 1.275904 -3.175638 2.135433 0
M  V30 26 C 1.154878 -4.551730 2.333610 0
M  V30 27 C 0.594804 -5.040236 3.505862 0
M  V30 28 C 0.184903 -4.114531 4.423608 0
M  V30 29 Cl -0.532727 -4.672749 5.927374 0
M  V30 30 C 0.287647 -2.742068 4.265739 0
M  V30 31 C 0.842201 -2.285670 3.100109 0
M  V30 32 N 0.972336 -0.967697 2.852387 0
M  V30 33 C 0.533645 -0.093403 3.881479 0
M  V30 34 C -0.663474 0.509731 4.180074 0
M  V30 35 C -0.807629 1.321960 5.278303 0
M  V30 36 C 0.239348 1.590297 6.158476 0
M  V30 37 C 1.449858 0.974775 5.847023 0
M  V30 38 C 1.622989 0.143733 4.737294 0
M  V30 39 H 4.110043 2.774129 2.558755 0
M  V30 40 H 2.760434 3.177898 1.411956 0
M  V30 41 H 4.300455 2.435359 0.831093 0
M  V30 42 H 3.914519 -0.816608 2.221488 0
M  V30 43 H 4.563016 0.564903 3.145157 0
M  V30 44 H 5.023091 0.338655 1.432547 0
M  V30 45 H 3.038777 -0.025457 -0.517222 0
M  V30 46 H 3.091236 -1.777004 -1.020847 0
M  V30 47 H 0.306885 -0.927134 -0.982646 0
M  V30 48 H 0.376923 0.684517 -5.308770 0
M  V30 49 H -5.298131 0.122339 -2.445599 0
M  V30 50 H -3.991264 -1.085395 -2.267382 0
M  V30 51 H -6.322399 -2.157412 -2.622459 0
M  V30 52 H -5.061879 -2.596759 -3.763169 0
M  V30 53 H -6.181778 -0.824285 -6.492507 0
M  V30 54 H -4.860726 -1.793514 -5.672133 0
M  V30 55 H -4.498132 0.794962 -5.954741 0
M  V30 56 H -5.761404 0.932222 -4.660210 0
M  V30 57 H 1.502363 -5.255173 1.566024 0
M  V30 58 H 0.495467 -6.121388 3.667138 0
M  V30 59 H -0.053154 -2.074575 5.023577 0
M  V30 60 H -1.398959 0.239173 3.438525 0
M  V30 61 H -1.796615 1.751112 5.421675 0
M  V30 62 H 0.068390 2.232814 6.996457 0
M  V30 63 H 2.282404 1.181757 6.539053 0
M  V30 64 H 2.652193 -0.250123 4.659709 0
M  V30 END ATOM
M  V30 BEGIN BOND
M  V30 1 1 1 2
M  V30 2 1 2 3
M  V30 3 1 2 4
M  V30 4 2 4 5
M  V30 5 1 4 6
M  V30 6 2 6 7
M  V30 7 1 7 8
M  V30 8 1 8 9
M  V30 9 1 9 10
M  V30 10 2 10 11
M  V30 11 1 10 12
M  V30 12 2 12 13
M  V30 13 1 13 14
M  V30 14 2 14 15
M  V30 15 1 15 16
M  V30 16 1 16 17
M  V30 17 1 17 18
M  V30 18 1 18 19
M  V30 19 1 19 20
M  V30 20 1 20 21
M  V30 21 1 15 22
M  V30 22 1 7 23
M  V30 23 2 23 24
M  V30 24 1 23 25
M  V30 25 2 25 26
M  V30 26 1 26 27
M  V30 27 2 27 28
M  V30 28 1 28 29
M  V30 29 1 28 30
M  V30 30 2 30 31
M  V30 31 1 31 32
M  V30 32 1 32 33
M  V30 33 2 33 34
M  V30 34 1 34 35
M  V30 35 2 35 36
M  V30 36 1 36 37
M  V30 37 2 37 38
M  V30 38 1 32 6
M  V30 39 1 38 33
M  V30 40 1 22 12
M  V30 41 1 31 25
M  V30 42 1 21 16
M  V30 43 1 1 39
M  V30 44 1 1 40
M  V30 45 1 1 41
M  V30 46 1 3 42
M  V30 47 1 3 43
M  V30 48 1 3 44
M  V30 49 1 8 45
M  V30 50 1 8 46
M  V30 51 1 9 47
M  V30 52 1 13 48
M  V30 53 1 17 49
M  V30 54 1 17 50
M  V30 55 1 18 51
M  V30 56 1 18 52
M  V30 57 1 20 53
M  V30 58 1 20 54
M  V30 59 1 21 55
M  V30 60 1 21 56
M  V30 61 1 26 57
M  V30 62 1 27 58
M  V30 63 1 30 59
M  V30 64 1 34 60
M  V30 65 1 35 61
M  V30 66 1 36 62
M  V30 67 1 37 63
M  V30 68 1 38 64
M  V30 END BOND
M  V30 END CTAB
M  END
>  <Dataset>  (508) 
ChEMBL_Kinases

>  <Ligand_Instance>  (508) 
nan

>  <PDB_ID>  (508) 
nan

>  <Standardized_SMILES>  (508) 
CN(C)C(=O)c1c(CNC(=O)c2cnc(N3CCOCC3)s2)c(=O)c2ccc(Cl)cc2n1-c1ccccc1

>  <Name>  (508) 
nan

>  <Pocket>  (508) 
nan

>  <ATP_Site>  (508) 
nan

>  <Peripheral>  (508) 
nan

>  <Num_H_Atoms_ProtBoundConf>  (508) 
nan

>  <Num_Resolved_Atoms>  (508) 
nan

>  <Num_Not_Resolved_Atoms>  (508) 
nan

$$$$
CHEMBL3679433
     RDKit          3D

  0  0  0  0  0  0  0  0  0  0999 V3000
M  V30 BEGIN CTAB
M  V30 COUNTS 67 71 0 0 0
M  V30 BEGIN ATOM
M  V30 1 C 3.926238 -0.459660 1.703120 0
M  V30 2 N 3.264885 -1.744730 1.811687 0
M  V30 3 C 4.083223 -2.913628 2.162407 0
M  V30 4 C 1.846729 -1.688895 1.551306 0
M  V30 5 O 1.645098 -0.473940 1.302839 0
M  V30 6 C 0.933435 -2.831022 1.589767 0
M  V30 7 C 0.455027 -3.518302 0.470773 0
M  V30 8 C 1.003557 -2.929738 -0.798755 0
M  V30 9 N 0.219684 -1.697680 -0.986002 0
M  V30 10 C 0.530727 -0.908416 -2.126647 0
M  V30 11 O 1.425013 -1.260058 -2.917807 0
M  V30 12 C -0.167019 0.335072 -2.429285 0
M  V30 13 C 0.163233 1.039578 -3.570175 0
M  V30 14 C -0.464990 2.229314 -3.908238 0
M  V30 15 C -1.458324 2.756082 -3.099208 0
M  V30 16 N -2.198891 3.953293 -3.297143 0
M  V30 17 C -3.194257 4.468873 -2.381970 0
M  V30 18 C -4.499201 4.573038 -3.134781 0
M  V30 19 O -4.369343 5.650986 -4.009862 0
M  V30 20 C -3.444957 5.279398 -4.972198 0
M  V30 21 C -2.109956 4.856142 -4.404912 0
M  V30 22 N -1.778443 2.059638 -1.979510 0
M  V30 23 C -1.160610 0.907853 -1.665214 0
M  V30 24 C -0.403319 -4.580092 0.636923 0
M  V30 25 O -0.756771 -5.107700 -0.428666 0
M  V30 26 C -0.767404 -4.935113 1.919315 0
M  V30 27 C -1.631750 -6.007183 2.033899 0
M  V30 28 C -1.991194 -6.353592 3.325838 0
M  V30 29 C -1.535876 -5.693377 4.462271 0
M  V30 30 Cl -2.034373 -6.186753 6.070191 0
M  V30 31 C -0.663196 -4.615684 4.288890 0
M  V30 32 C -0.277830 -4.235849 3.010953 0
M  V30 33 N 0.561831 -3.198564 2.831079 0
M  V30 34 C 1.015568 -2.540277 4.002583 0
M  V30 35 C 0.337380 -1.340139 4.244727 0
M  V30 36 C 0.677150 -0.586109 5.362159 0
M  V30 37 C 1.688220 -1.055851 6.207198 0
M  V30 38 C 2.355403 -2.239433 5.966191 0
M  V30 39 C 1.995939 -2.965422 4.849553 0
M  V30 40 H 5.020676 -0.604629 1.583089 0
M  V30 41 H 3.726342 0.201129 2.579654 0
M  V30 42 H 3.623438 0.118249 0.796179 0
M  V30 43 H 4.527021 -2.781075 3.176256 0
M  V30 44 H 3.526210 -3.847388 2.031189 0
M  V30 45 H 4.938999 -2.931174 1.454142 0
M  V30 46 H 2.049678 -2.652519 -0.694401 0
M  V30 47 H 0.814675 -3.618800 -1.651819 0
M  V30 48 H -0.541042 -1.365459 -0.344559 0
M  V30 49 H 0.919374 0.727927 -4.274588 0
M  V30 50 H -0.249833 2.817003 -4.778268 0
M  V30 51 H -3.373716 3.764009 -1.522491 0
M  V30 52 H -2.875092 5.437284 -1.930675 0
M  V30 53 H -5.351103 4.695319 -2.442489 0
M  V30 54 H -4.602494 3.621276 -3.703232 0
M  V30 55 H -3.264203 6.169954 -5.621509 0
M  V30 56 H -3.923125 4.501163 -5.594901 0
M  V30 57 H -1.517100 5.768909 -4.168499 0
M  V30 58 H -1.560298 4.342759 -5.226356 0
M  V30 59 H -1.457896 0.398873 -0.761533 0
M  V30 60 H -1.991225 -6.525704 1.175761 0
M  V30 61 H -2.676069 -7.195010 3.507056 0
M  V30 62 H -0.312029 -4.104116 5.187396 0
M  V30 63 H -0.456022 -0.883074 3.663370 0
M  V30 64 H 0.207275 0.362612 5.636484 0
M  V30 65 H 1.980654 -0.489965 7.095259 0
M  V30 66 H 3.134413 -2.574080 6.640846 0
M  V30 67 H 2.472615 -3.895747 4.600121 0
M  V30 END ATOM
M  V30 BEGIN BOND
M  V30 1 1 1 2
M  V30 2 1 2 3
M  V30 3 1 2 4
M  V30 4 2 4 5
M  V30 5 1 4 6
M  V30 6 2 6 7
M  V30 7 1 7 8
M  V30 8 1 8 9
M  V30 9 1 9 10
M  V30 10 2 10 11
M  V30 11 1 10 12
M  V30 12 2 12 13
M  V30 13 1 13 14
M  V30 14 2 14 15
M  V30 15 1 15 16
M  V30 16 1 16 17
M  V30 17 1 17 18
M  V30 18 1 18 19
M  V30 19 1 19 20
M  V30 20 1 20 21
M  V30 21 1 15 22
M  V30 22 2 22 23
M  V30 23 1 7 24
M  V30 24 2 24 25
M  V30 25 1 24 26
M  V30 26 2 26 27
M  V30 27 1 27 28
M  V30 28 2 28 29
M  V30 29 1 29 30
M  V30 30 1 29 31
M  V30 31 2 31 32
M  V30 32 1 32 33
M  V30 33 1 33 34
M  V30 34 2 34 35
M  V30 35 1 35 36
M  V30 36 2 36 37
M  V30 37 1 37 38
M  V30 38 2 38 39
M  V30 39 1 33 6
M  V30 40 1 39 34
M  V30 41 1 23 12
M  V30 42 1 32 26
M  V30 43 1 21 16
M  V30 44 1 1 40
M  V30 45 1 1 41
M  V30 46 1 1 42
M  V30 47 1 3 43
M  V30 48 1 3 44
M  V30 49 1 3 45
M  V30 50 1 8 46
M  V30 51 1 8 47
M  V30 52 1 9 48
M  V30 53 1 13 49
M  V30 54 1 14 50
M  V30 55 1 17 51
M  V30 56 1 17 52
M  V30 57 1 18 53
M  V30 58 1 18 54
M  V30 59 1 20 55
M  V30 60 1 20 56
M  V30 61 1 21 57
M  V30 62 1 21 58
M  V30 63 1 23 59
M  V30 64 1 27 60
M  V30 65 1 28 61
M  V30 66 1 31 62
M  V30 67 1 35 63
M  V30 68 1 36 64
M  V30 69 1 37 65
M  V30 70 1 38 66
M  V30 71 1 39 67
M  V30 END BOND
M  V30 END CTAB
M  END
>  <Dataset>  (509) 
ChEMBL_Kinases

>  <Ligand_Instance>  (509) 
nan

>  <PDB_ID>  (509) 
nan

>  <Standardized_SMILES>  (509) 
CN(C)C(=O)c1c(CNC(=O)c2ccc(N3CCOCC3)nc2)c(=O)c2ccc(Cl)cc2n1-c1ccccc1

>  <Name>  (509) 
nan

>  <Pocket>  (509) 
nan

>  <ATP_Site>  (509) 
nan

>  <Peripheral>  (509) 
nan

>  <Num_H_Atoms_ProtBoundConf>  (509) 
nan

>  <Num_Resolved_Atoms>  (509) 
nan

>  <Num_Not_Resolved_Atoms>  (509) 
nan

$$$$
CHEMBL3679432
     RDKit          3D

  0  0  0  0  0  0  0  0  0  0999 V3000
M  V30 BEGIN CTAB
M  V30 COUNTS 68 73 0 0 0
M  V30 BEGIN ATOM
M  V30 1 O -2.582732 -0.339604 0.618441 0
M  V30 2 C -1.503784 -0.902135 0.388517 0
M  V30 3 N -1.367460 -1.924211 -0.580095 0
M  V30 4 C -2.397400 -2.450421 -1.425972 0
M  V30 5 C -3.016493 -1.497259 -2.339290 0
M  V30 6 C -2.435328 -1.038435 -3.512291 0
M  V30 7 C -1.120183 -1.542868 -3.903623 0
M  V30 8 N -0.449577 -1.161722 -5.006602 0
M  V30 9 C 0.723185 -1.800734 -5.088105 0
M  V30 10 C 0.739473 -2.604272 -3.964151 0
M  V30 11 O -0.374453 -2.403547 -3.312061 0
M  V30 12 N -3.059968 -0.135051 -4.329684 0
M  V30 13 C -2.420357 0.298861 -5.536679 0
M  V30 14 C -1.496848 1.338760 -5.695591 0
M  V30 15 C -0.979506 1.621045 -6.930525 0
M  V30 16 C -1.348056 0.904338 -8.021996 0
M  V30 17 C -2.251419 -0.145934 -7.991337 0
M  V30 18 C -2.746306 -0.391369 -6.711346 0
M  V30 19 C -4.276175 0.374498 -4.061266 0
M  V30 20 N -4.852718 1.256282 -4.884630 0
M  V30 21 C -6.066731 1.756716 -4.604686 0
M  V30 22 C -6.772593 1.391833 -3.469187 0
M  V30 23 C -6.157318 0.481946 -2.635880 0
M  V30 24 C -4.932897 -0.041369 -2.891142 0
M  V30 25 C -4.250467 -0.951227 -2.113512 0
M  V30 26 O -4.947523 -1.255538 -1.081102 0
M  V30 27 C -0.430487 -0.387255 1.221183 0
M  V30 28 C -0.651159 0.453210 2.287988 0
M  V30 29 C 0.360549 0.965212 3.077923 0
M  V30 30 C 1.666015 0.627360 2.797752 0
M  V30 31 N 2.816604 1.067739 3.538210 0
M  V30 32 C 4.171163 1.004181 2.964101 0
M  V30 33 C 4.891832 -0.147512 3.628644 0
M  V30 34 C 4.260275 -0.482982 4.972904 0
M  V30 35 C 5.221991 -1.283116 5.807407 0
M  V30 36 O 5.506136 -2.465116 5.085567 0
M  V30 37 C 3.925831 0.840683 5.644454 0
M  V30 38 C 2.873749 1.596104 4.863534 0
M  V30 39 N 1.955042 -0.210365 1.742040 0
M  V30 40 C 0.900625 -0.682238 0.999449 0
M  V30 41 H -0.380835 -2.277007 -0.606512 0
M  V30 42 H -3.205029 -2.808000 -0.717634 0
M  V30 43 H -2.026616 -3.366728 -1.898290 0
M  V30 44 H 1.537981 -1.765320 -5.823048 0
M  V30 45 H 1.571036 -3.268233 -3.720763 0
M  V30 46 H -1.260032 1.856416 -4.780227 0
M  V30 47 H -0.271470 2.425698 -7.029761 0
M  V30 48 H -0.934331 1.133212 -9.007737 0
M  V30 49 H -2.591431 -0.760724 -8.808310 0
M  V30 50 H -3.464245 -1.210421 -6.625940 0
M  V30 51 H -6.607748 2.485676 -5.224922 0
M  V30 52 H -7.767027 1.791795 -3.227187 0
M  V30 53 H -6.648651 0.157127 -1.735993 0
M  V30 54 H -1.656249 0.751976 2.552993 0
M  V30 55 H 0.186963 1.618114 3.902858 0
M  V30 56 H 4.016161 0.830715 1.864000 0
M  V30 57 H 4.701961 1.970328 3.122858 0
M  V30 58 H 4.793766 -1.062773 2.987941 0
M  V30 59 H 5.964683 0.102857 3.778303 0
M  V30 60 H 3.365720 -1.106446 4.802026 0
M  V30 61 H 6.128273 -0.755003 6.109241 0
M  V30 62 H 4.711044 -1.620764 6.742570 0
M  V30 63 H 5.901216 -2.265307 4.195888 0
M  V30 64 H 3.598361 0.712558 6.684110 0
M  V30 65 H 4.885069 1.427714 5.665422 0
M  V30 66 H 1.897961 1.615328 5.388412 0
M  V30 67 H 3.195198 2.657167 4.803396 0
M  V30 68 H 1.212812 -1.329591 0.193794 0
M  V30 END ATOM
M  V30 BEGIN BOND
M  V30 1 2 1 2
M  V30 2 1 2 3
M  V30 3 1 3 4
M  V30 4 1 4 5
M  V30 5 2 5 6
M  V30 6 1 6 7
M  V30 7 2 7 8
M  V30 8 1 8 9
M  V30 9 2 9 10
M  V30 10 1 10 11
M  V30 11 1 6 12
M  V30 12 1 12 13
M  V30 13 2 13 14
M  V30 14 1 14 15
M  V30 15 2 15 16
M  V30 16 1 16 17
M  V30 17 2 17 18
M  V30 18 1 12 19
M  V30 19 2 19 20
M  V30 20 1 20 21
M  V30 21 2 21 22
M  V30 22 1 22 23
M  V30 23 2 23 24
M  V30 24 1 24 25
M  V30 25 2 25 26
M  V30 26 1 2 27
M  V30 27 2 27 28
M  V30 28 1 28 29
M  V30 29 2 29 30
M  V30 30 1 30 31
M  V30 31 1 31 32
M  V30 32 1 32 33
M  V30 33 1 33 34
M  V30 34 1 34 35
M  V30 35 1 35 36
M  V30 36 1 34 37
M  V30 37 1 37 38
M  V30 38 1 30 39
M  V30 39 2 39 40
M  V30 40 1 25 5
M  V30 41 1 40 27
M  V30 42 1 11 7
M  V30 43 1 18 13
M  V30 44 1 24 19
M  V30 45 1 38 31
M  V30 46 1 3 41
M  V30 47 1 4 42
M  V30 48 1 4 43
M  V30 49 1 9 44
M  V30 50 1 10 45
M  V30 51 1 14 46
M  V30 52 1 15 47
M  V30 53 1 16 48
M  V30 54 1 17 49
M  V30 55 1 18 50
M  V30 56 1 21 51
M  V30 57 1 22 52
M  V30 58 1 23 53
M  V30 59 1 28 54
M  V30 60 1 29 55
M  V30 61 1 32 56
M  V30 62 1 32 57
M  V30 63 1 33 58
M  V30 64 1 33 59
M  V30 65 1 34 60
M  V30 66 1 35 61
M  V30 67 1 35 62
M  V30 68 1 36 63
M  V30 69 1 37 64
M  V30 70 1 37 65
M  V30 71 1 38 66
M  V30 72 1 38 67
M  V30 73 1 40 68
M  V30 END BOND
M  V30 END CTAB
M  END
>  <Dataset>  (510) 
ChEMBL_Kinases

>  <Ligand_Instance>  (510) 
nan

>  <PDB_ID>  (510) 
nan

>  <Standardized_SMILES>  (510) 
O=C(NCc1c(-c2ncco2)n(-c2ccccc2)c2ncccc2c1=O)c1ccc(N2CCC(CO)CC2)nc1

>  <Name>  (510) 
nan

>  <Pocket>  (510) 
nan

>  <ATP_Site>  (510) 
nan

>  <Peripheral>  (510) 
nan

>  <Num_H_Atoms_ProtBoundConf>  (510) 
nan

>  <Num_Resolved_Atoms>  (510) 
nan

>  <Num_Not_Resolved_Atoms>  (510) 
nan

$$$$
CHEMBL3679431
     RDKit          3D

  0  0  0  0  0  0  0  0  0  0999 V3000
M  V30 BEGIN CTAB
M  V30 COUNTS 50 54 0 0 0
M  V30 BEGIN ATOM
M  V30 1 C 5.806485 -5.434465 1.183627 0
M  V30 2 N 5.132575 -4.168229 0.975729 0
M  V30 3 C 3.960812 -3.764328 1.496490 0
M  V30 4 C 3.669121 -2.497564 1.054843 0
M  V30 5 C 2.519167 -1.653652 1.347551 0
M  V30 6 O 2.437533 -0.525858 0.833822 0
M  V30 7 N 1.457989 -2.032063 2.196927 0
M  V30 8 C 0.214885 -1.568130 2.742757 0
M  V30 9 C -0.790788 -1.136084 1.757482 0
M  V30 10 C -0.916395 0.106683 1.193116 0
M  V30 11 C -0.095242 1.215087 1.660443 0
M  V30 12 N 0.803103 1.302969 2.654075 0
M  V30 13 C 1.300302 2.558050 2.691428 0
M  V30 14 C 0.667311 3.259624 1.666622 0
M  V30 15 O -0.126212 2.383278 1.128484 0
M  V30 16 N -1.859114 0.330226 0.235072 0
M  V30 17 C -1.978907 1.638982 -0.349524 0
M  V30 18 C -1.225348 1.806095 -1.502291 0
M  V30 19 C -1.292371 3.040341 -2.113641 0
M  V30 20 C -2.063472 4.071493 -1.620585 0
M  V30 21 C -2.795223 3.860691 -0.473217 0
M  V30 22 C -2.758636 2.638908 0.173104 0
M  V30 23 C -2.707798 -0.608523 -0.213709 0
M  V30 24 N -3.614801 -0.317412 -1.162884 0
M  V30 25 C -4.467125 -1.249925 -1.616109 0
M  V30 26 C -4.382108 -2.512822 -1.077861 0
M  V30 27 C -3.479250 -2.895913 -0.099216 0
M  V30 28 C -2.645675 -1.892822 0.311105 0
M  V30 29 C -1.687216 -2.082986 1.269578 0
M  V30 30 O -1.632005 -3.259723 1.748376 0
M  V30 31 C 4.715152 -2.140882 0.238754 0
M  V30 32 N 5.574545 -3.174107 0.217908 0
M  V30 33 H 6.578896 -5.592457 0.403718 0
M  V30 34 H 5.099504 -6.294611 1.147392 0
M  V30 35 H 6.222562 -5.450347 2.221092 0
M  V30 36 H 3.374014 -4.361224 2.148062 0
M  V30 37 H 1.705616 -3.025005 2.539052 0
M  V30 38 H 0.367153 -0.801666 3.544336 0
M  V30 39 H -0.246052 -2.421338 3.288261 0
M  V30 40 H 2.038071 2.663140 3.492223 0
M  V30 41 H 1.065779 4.269576 1.694219 0
M  V30 42 H -0.596214 1.020927 -1.936927 0
M  V30 43 H -0.713865 3.193456 -3.012066 0
M  V30 44 H -2.128520 5.056105 -2.091249 0
M  V30 45 H -3.392902 4.667971 -0.095039 0
M  V30 46 H -3.319089 2.434070 1.077252 0
M  V30 47 H -5.173992 -0.975608 -2.371503 0
M  V30 48 H -5.086049 -3.238523 -1.468766 0
M  V30 49 H -3.424773 -3.888621 0.310903 0
M  V30 50 H 4.790090 -1.194223 -0.269954 0
M  V30 END ATOM
M  V30 BEGIN BOND
M  V30 1 1 1 2
M  V30 2 1 2 3
M  V30 3 2 3 4
M  V30 4 1 4 5
M  V30 5 2 5 6
M  V30 6 1 5 7
M  V30 7 1 7 8
M  V30 8 1 8 9
M  V30 9 2 9 10
M  V30 10 1 10 11
M  V30 11 2 11 12
M  V30 12 1 12 13
M  V30 13 2 13 14
M  V30 14 1 14 15
M  V30 15 1 10 16
M  V30 16 1 16 17
M  V30 17 2 17 18
M  V30 18 1 18 19
M  V30 19 2 19 20
M  V30 20 1 20 21
M  V30 21 2 21 22
M  V30 22 1 16 23
M  V30 23 2 23 24
M  V30 24 1 24 25
M  V30 25 2 25 26
M  V30 26 1 26 27
M  V30 27 2 27 28
M  V30 28 1 28 29
M  V30 29 2 29 30
M  V30 30 1 4 31
M  V30 31 2 31 32
M  V30 32 1 32 2
M  V30 33 1 29 9
M  V30 34 1 15 11
M  V30 35 1 22 17
M  V30 36 1 28 23
M  V30 37 1 1 33
M  V30 38 1 1 34
M  V30 39 1 1 35
M  V30 40 1 3 36
M  V30 41 1 7 37
M  V30 42 1 8 38
M  V30 43 1 8 39
M  V30 44 1 13 40
M  V30 45 1 14 41
M  V30 46 1 18 42
M  V30 47 1 19 43
M  V30 48 1 20 44
M  V30 49 1 21 45
M  V30 50 1 22 46
M  V30 51 1 25 47
M  V30 52 1 26 48
M  V30 53 1 27 49
M  V30 54 1 31 50
M  V30 END BOND
M  V30 END CTAB
M  END
>  <Dataset>  (511) 
ChEMBL_Kinases

>  <Ligand_Instance>  (511) 
nan

>  <PDB_ID>  (511) 
nan

>  <Standardized_SMILES>  (511) 
Cn1cc(C(=O)NCc2c(-c3ncco3)n(-c3ccccc3)c3ncccc3c2=O)cn1

>  <Name>  (511) 
nan

>  <Pocket>  (511) 
nan

>  <ATP_Site>  (511) 
nan

>  <Peripheral>  (511) 
nan

>  <Num_H_Atoms_ProtBoundConf>  (511) 
nan

>  <Num_Resolved_Atoms>  (511) 
nan

>  <Num_Not_Resolved_Atoms>  (511) 
nan

$$$$
CHEMBL3679430
     RDKit          3D

  0  0  0  0  0  0  0  0  0  0999 V3000
M  V30 BEGIN CTAB
M  V30 COUNTS 62 67 0 0 0
M  V30 BEGIN ATOM
M  V30 1 O -1.796368 -2.678673 0.753185 0
M  V30 2 C -1.733195 -1.600192 1.396534 0
M  V30 3 N -0.900701 -1.524473 2.508450 0
M  V30 4 C -0.033943 -2.518327 3.107963 0
M  V30 5 C 0.976805 -3.000995 2.135506 0
M  V30 6 C 2.089641 -2.294002 1.742600 0
M  V30 7 C 2.370454 -0.984984 2.288063 0
M  V30 8 N 3.414834 -0.257672 1.931779 0
M  V30 9 C 3.365973 0.887457 2.627578 0
M  V30 10 C 2.253538 0.859577 3.437220 0
M  V30 11 O 1.706572 -0.296945 3.177122 0
M  V30 12 N 2.906668 -2.876327 0.847659 0
M  V30 13 C 4.089093 -2.175836 0.401567 0
M  V30 14 C 5.199280 -2.292032 1.206047 0
M  V30 15 C 6.361260 -1.638146 0.820339 0
M  V30 16 C 6.417682 -0.883641 -0.342489 0
M  V30 17 C 5.304397 -0.778519 -1.131106 0
M  V30 18 C 4.141062 -1.427035 -0.754705 0
M  V30 19 C 2.743800 -4.089855 0.294755 0
M  V30 20 N 3.616691 -4.598388 -0.598843 0
M  V30 21 C 3.439573 -5.821311 -1.146377 0
M  V30 22 C 2.355609 -6.609775 -0.817059 0
M  V30 23 C 1.474463 -6.071913 0.098501 0
M  V30 24 C 1.638579 -4.826653 0.667328 0
M  V30 25 C 0.770654 -4.267895 1.584730 0
M  V30 26 O -0.204808 -5.044525 1.846159 0
M  V30 27 C -2.570238 -0.538273 0.871657 0
M  V30 28 C -3.350644 -0.761519 -0.244344 0
M  V30 29 C -4.171816 0.231050 -0.784702 0
M  V30 30 C -4.231091 1.484373 -0.213445 0
M  V30 31 N -5.022924 2.571555 -0.668314 0
M  V30 32 C -5.044811 3.858516 -0.006146 0
M  V30 33 C -6.439839 4.428221 -0.289031 0
M  V30 34 O -6.575899 4.753770 -1.638110 0
M  V30 35 C -5.825794 3.907322 -2.450327 0
M  V30 36 C -5.883368 2.503841 -1.833736 0
M  V30 37 N -3.465414 1.687337 0.873243 0
M  V30 38 C -2.675442 0.731246 1.392470 0
M  V30 39 H -0.964657 -0.556337 2.946394 0
M  V30 40 H -0.631874 -3.382739 3.505782 0
M  V30 41 H 0.496005 -2.114691 3.970653 0
M  V30 42 H 4.112065 1.673889 2.526457 0
M  V30 43 H 2.021306 1.688138 4.086814 0
M  V30 44 H 5.260332 -2.851048 2.125556 0
M  V30 45 H 7.276898 -1.698224 1.427193 0
M  V30 46 H 7.328256 -0.361783 -0.659930 0
M  V30 47 H 5.273479 -0.213630 -2.042901 0
M  V30 48 H 3.219189 -1.389591 -1.329589 0
M  V30 49 H 4.170511 -6.203359 -1.870575 0
M  V30 50 H 2.173123 -7.607258 -1.236827 0
M  V30 51 H 0.605289 -6.658317 0.387943 0
M  V30 52 H -3.369318 -1.712794 -0.759153 0
M  V30 53 H -4.781420 0.059238 -1.654742 0
M  V30 54 H -4.329147 4.592475 -0.425207 0
M  V30 55 H -4.987339 3.766007 1.095730 0
M  V30 56 H -7.226800 3.674877 -0.072564 0
M  V30 57 H -6.655380 5.309299 0.324173 0
M  V30 58 H -6.166111 3.909136 -3.486527 0
M  V30 59 H -4.752158 4.219708 -2.387770 0
M  V30 60 H -6.925792 2.266479 -1.573539 0
M  V30 61 H -5.561568 1.742357 -2.568191 0
M  V30 62 H -2.096401 0.979570 2.262805 0
M  V30 END ATOM
M  V30 BEGIN BOND
M  V30 1 2 1 2
M  V30 2 1 2 3
M  V30 3 1 3 4
M  V30 4 1 4 5
M  V30 5 2 5 6
M  V30 6 1 6 7
M  V30 7 2 7 8
M  V30 8 1 8 9
M  V30 9 2 9 10
M  V30 10 1 10 11
M  V30 11 1 6 12
M  V30 12 1 12 13
M  V30 13 2 13 14
M  V30 14 1 14 15
M  V30 15 2 15 16
M  V30 16 1 16 17
M  V30 17 2 17 18
M  V30 18 1 12 19
M  V30 19 2 19 20
M  V30 20 1 20 21
M  V30 21 2 21 22
M  V30 22 1 22 23
M  V30 23 2 23 24
M  V30 24 1 24 25
M  V30 25 2 25 26
M  V30 26 1 2 27
M  V30 27 2 27 28
M  V30 28 1 28 29
M  V30 29 2 29 30
M  V30 30 1 30 31
M  V30 31 1 31 32
M  V30 32 1 32 33
M  V30 33 1 33 34
M  V30 34 1 34 35
M  V30 35 1 35 36
M  V30 36 1 30 37
M  V30 37 2 37 38
M  V30 38 1 25 5
M  V30 39 1 38 27
M  V30 40 1 11 7
M  V30 41 1 18 13
M  V30 42 1 24 19
M  V30 43 1 36 31
M  V30 44 1 3 39
M  V30 45 1 4 40
M  V30 46 1 4 41
M  V30 47 1 9 42
M  V30 48 1 10 43
M  V30 49 1 14 44
M  V30 50 1 15 45
M  V30 51 1 16 46
M  V30 52 1 17 47
M  V30 53 1 18 48
M  V30 54 1 21 49
M  V30 55 1 22 50
M  V30 56 1 23 51
M  V30 57 1 28 52
M  V30 58 1 29 53
M  V30 59 1 32 54
M  V30 60 1 32 55
M  V30 61 1 33 56
M  V30 62 1 33 57
M  V30 63 1 35 58
M  V30 64 1 35 59
M  V30 65 1 36 60
M  V30 66 1 36 61
M  V30 67 1 38 62
M  V30 END BOND
M  V30 END CTAB
M  END
>  <Dataset>  (512) 
ChEMBL_Kinases

>  <Ligand_Instance>  (512) 
nan

>  <PDB_ID>  (512) 
nan

>  <Standardized_SMILES>  (512) 
O=C(NCc1c(-c2ncco2)n(-c2ccccc2)c2ncccc2c1=O)c1ccc(N2CCOCC2)nc1

>  <Name>  (512) 
nan

>  <Pocket>  (512) 
nan

>  <ATP_Site>  (512) 
nan

>  <Peripheral>  (512) 
nan

>  <Num_H_Atoms_ProtBoundConf>  (512) 
nan

>  <Num_Resolved_Atoms>  (512) 
nan

>  <Num_Not_Resolved_Atoms>  (512) 
nan

$$$$
CHEMBL3679429
     RDKit          3D

  0  0  0  0  0  0  0  0  0  0999 V3000
M  V30 BEGIN CTAB
M  V30 COUNTS 63 68 0 0 0
M  V30 BEGIN ATOM
M  V30 1 O 0.154334 -2.464551 1.704250 0
M  V30 2 C 0.799706 -1.459719 1.304790 0
M  V30 3 N 1.423712 -1.576462 0.044716 0
M  V30 4 C 1.465196 -2.662661 -0.906036 0
M  V30 5 C 0.101922 -3.044994 -1.333644 0
M  V30 6 C -0.679868 -2.334154 -2.217134 0
M  V30 7 C -0.164739 -1.126082 -2.846450 0
M  V30 8 N 1.026058 -0.547070 -2.750065 0
M  V30 9 C 1.047397 0.548788 -3.511729 0
M  V30 10 C -0.193231 0.627519 -4.091487 0
M  V30 11 O -0.864051 -0.386462 -3.662068 0
M  V30 12 N -1.915360 -2.791696 -2.511594 0
M  V30 13 C -2.710072 -2.032409 -3.433810 0
M  V30 14 C -3.625545 -1.066897 -3.074847 0
M  V30 15 C -4.302611 -0.435000 -4.104605 0
M  V30 16 C -4.055328 -0.773156 -5.421335 0
M  V30 17 C -3.129652 -1.748375 -5.769838 0
M  V30 18 C -2.447312 -2.386851 -4.756223 0
M  V30 19 C -2.483251 -3.904546 -2.019357 0
M  V30 20 N -3.738485 -4.263446 -2.392006 0
M  V30 21 C -4.306878 -5.379997 -1.898082 0
M  V30 22 C -3.602148 -6.161582 -1.006120 0
M  V30 23 C -2.308676 -5.789646 -0.623628 0
M  V30 24 C -1.733147 -4.645631 -1.133086 0
M  V30 25 C -0.467231 -4.211640 -0.806470 0
M  V30 26 O 0.113876 -4.985917 0.016516 0
M  V30 27 C 0.853849 -0.277446 2.152497 0
M  V30 28 C 1.515059 0.893910 1.845844 0
M  V30 29 C 1.459440 1.916266 2.768004 0
M  V30 30 N 0.824536 1.902023 3.950718 0
M  V30 31 C 0.850047 3.049354 4.819914 0
M  V30 32 C 1.973905 3.055280 5.771466 0
M  V30 33 C 3.130439 3.687463 5.298255 0
M  V30 34 C 4.264943 3.767876 6.085240 0
M  V30 35 C 4.321762 3.234657 7.370246 0
M  V30 36 C 3.169378 2.621859 7.802200 0
M  V30 37 C 2.025849 2.525464 7.044426 0
M  V30 38 C 0.183087 0.761948 4.245575 0
M  V30 39 O -0.444603 0.662627 5.346933 0
M  V30 40 C 0.200061 -0.296961 3.366729 0
M  V30 41 H 1.945984 -0.691463 -0.191662 0
M  V30 42 H 2.123453 -2.416020 -1.757868 0
M  V30 43 H 1.946901 -3.559083 -0.432996 0
M  V30 44 H 1.943224 1.146676 -3.553727 0
M  V30 45 H -0.365817 1.473467 -4.759390 0
M  V30 46 H -3.738032 -0.883571 -2.010104 0
M  V30 47 H -5.022960 0.325581 -3.803302 0
M  V30 48 H -4.596635 -0.265071 -6.195250 0
M  V30 49 H -2.999390 -1.949213 -6.833767 0
M  V30 50 H -1.752352 -3.122963 -5.081221 0
M  V30 51 H -5.316128 -5.625731 -2.227135 0
M  V30 52 H -4.049833 -7.072808 -0.595023 0
M  V30 53 H -1.738651 -6.384611 0.071383 0
M  V30 54 H 2.042838 0.974606 0.917223 0
M  V30 55 H 2.000913 2.832033 2.482791 0
M  V30 56 H -0.146022 3.047630 5.350275 0
M  V30 57 H 0.844846 3.969366 4.208659 0
M  V30 58 H 3.186393 4.138852 4.300302 0
M  V30 59 H 5.145990 4.261000 5.698639 0
M  V30 60 H 5.221593 3.328164 7.925625 0
M  V30 61 H 3.167107 2.185650 8.811054 0
M  V30 62 H 1.109743 2.048808 7.361962 0
M  V30 63 H -0.340996 -1.195550 3.665118 0
M  V30 END ATOM
M  V30 BEGIN BOND
M  V30 1 2 1 2
M  V30 2 1 2 3
M  V30 3 1 3 4
M  V30 4 1 4 5
M  V30 5 2 5 6
M  V30 6 1 6 7
M  V30 7 2 7 8
M  V30 8 1 8 9
M  V30 9 2 9 10
M  V30 10 1 10 11
M  V30 11 1 6 12
M  V30 12 1 12 13
M  V30 13 2 13 14
M  V30 14 1 14 15
M  V30 15 2 15 16
M  V30 16 1 16 17
M  V30 17 2 17 18
M  V30 18 1 12 19
M  V30 19 2 19 20
M  V30 20 1 20 21
M  V30 21 2 21 22
M  V30 22 1 22 23
M  V30 23 2 23 24
M  V30 24 1 24 25
M  V30 25 2 25 26
M  V30 26 1 2 27
M  V30 27 1 27 28
M  V30 28 2 28 29
M  V30 29 1 29 30
M  V30 30 1 30 31
M  V30 31 1 31 32
M  V30 32 2 32 33
M  V30 33 1 33 34
M  V30 34 2 34 35
M  V30 35 1 35 36
M  V30 36 2 36 37
M  V30 37 1 30 38
M  V30 38 2 38 39
M  V30 39 1 38 40
M  V30 40 1 25 5
M  V30 41 2 40 27
M  V30 42 1 11 7
M  V30 43 1 18 13
M  V30 44 1 24 19
M  V30 45 1 37 32
M  V30 46 1 3 41
M  V30 47 1 4 42
M  V30 48 1 4 43
M  V30 49 1 9 44
M  V30 50 1 10 45
M  V30 51 1 14 46
M  V30 52 1 15 47
M  V30 53 1 16 48
M  V30 54 1 17 49
M  V30 55 1 18 50
M  V30 56 1 21 51
M  V30 57 1 22 52
M  V30 58 1 23 53
M  V30 59 1 28 54
M  V30 60 1 29 55
M  V30 61 1 31 56
M  V30 62 1 31 57
M  V30 63 1 33 58
M  V30 64 1 34 59
M  V30 65 1 35 60
M  V30 66 1 36 61
M  V30 67 1 37 62
M  V30 68 1 40 63
M  V30 END BOND
M  V30 END CTAB
M  END
>  <Dataset>  (513) 
ChEMBL_Kinases

>  <Ligand_Instance>  (513) 
nan

>  <PDB_ID>  (513) 
nan

>  <Standardized_SMILES>  (513) 
O=C(NCc1c(-c2ncco2)n(-c2ccccc2)c2ncccc2c1=O)c1ccn(Cc2ccccc2)c(=O)c1

>  <Name>  (513) 
nan

>  <Pocket>  (513) 
nan

>  <ATP_Site>  (513) 
nan

>  <Peripheral>  (513) 
nan

>  <Num_H_Atoms_ProtBoundConf>  (513) 
nan

>  <Num_Resolved_Atoms>  (513) 
nan

>  <Num_Not_Resolved_Atoms>  (513) 
nan

$$$$
CHEMBL3679428
     RDKit          3D

  0  0  0  0  0  0  0  0  0  0999 V3000
M  V30 BEGIN CTAB
M  V30 COUNTS 54 59 0 0 0
M  V30 BEGIN ATOM
M  V30 1 O -0.007986 -3.426239 -0.663587 0
M  V30 2 C 1.075284 -2.832280 -0.926337 0
M  V30 3 N 1.855807 -2.429605 0.158345 0
M  V30 4 C 1.634609 -2.577769 1.580166 0
M  V30 5 C 0.382828 -1.945247 2.045634 0
M  V30 6 C 0.200782 -0.589854 2.213888 0
M  V30 7 C 1.310620 0.335984 1.949581 0
M  V30 8 N 1.205688 1.667915 2.066664 0
M  V30 9 C 2.388569 2.215608 1.756376 0
M  V30 10 C 3.229735 1.170968 1.442653 0
M  V30 11 O 2.520526 0.084662 1.579564 0
M  V30 12 N -0.994662 -0.108098 2.642243 0
M  V30 13 C -1.169983 1.313167 2.812790 0
M  V30 14 C -0.937137 2.046374 3.958525 0
M  V30 15 C -1.163973 3.398528 3.923987 0
M  V30 16 C -1.615520 4.054897 2.789663 0
M  V30 17 C -1.845837 3.298020 1.639707 0
M  V30 18 C -1.625328 1.922570 1.641704 0
M  V30 19 C -2.071149 -0.854216 2.933890 0
M  V30 20 C -3.253542 -0.287886 3.364950 0
M  V30 21 C -4.336889 -1.089242 3.655171 0
M  V30 22 Cl -5.855941 -0.414113 4.204621 0
M  V30 23 C -4.218246 -2.454470 3.508128 0
M  V30 24 C -3.031218 -3.014559 3.076002 0
M  V30 25 C -1.955051 -2.214407 2.788074 0
M  V30 26 C -0.732869 -2.731321 2.347847 0
M  V30 27 O -0.731707 -3.986686 2.249347 0
M  V30 28 C 1.404683 -2.625367 -2.328709 0
M  V30 29 C 2.541140 -1.991689 -2.782229 0
M  V30 30 C 2.859798 -1.792257 -4.106933 0
M  V30 31 C 1.984404 -2.256793 -5.064046 0
M  V30 32 C 0.840193 -2.893752 -4.665508 0
M  V30 33 C 0.575440 -3.063697 -3.322688 0
M  V30 34 O 0.143822 -3.256077 -5.833651 0
M  V30 35 C 0.672302 -2.535175 -6.929635 0
M  V30 36 O 1.986415 -2.230550 -6.464421 0
M  V30 37 H 2.748319 -1.949564 -0.168146 0
M  V30 38 H 1.547408 -3.675638 1.765923 0
M  V30 39 H 2.508660 -2.222031 2.167160 0
M  V30 40 H 2.788711 3.227547 1.704883 0
M  V30 41 H 4.271765 1.162594 1.137349 0
M  V30 42 H -0.588500 1.472681 4.799224 0
M  V30 43 H -0.980430 3.960863 4.819462 0
M  V30 44 H -1.776077 5.123042 2.823131 0
M  V30 45 H -2.194580 3.818975 0.770674 0
M  V30 46 H -1.826874 1.408669 0.712896 0
M  V30 47 H -3.328589 0.786446 3.474729 0
M  V30 48 H -5.034454 -3.136094 3.720696 0
M  V30 49 H -2.940580 -4.094599 2.960707 0
M  V30 50 H 3.259773 -1.608618 -2.083317 0
M  V30 51 H 3.755967 -1.293346 -4.416551 0
M  V30 52 H -0.356543 -3.581087 -3.080376 0
M  V30 53 H 0.678487 -3.218324 -7.801240 0
M  V30 54 H 0.092887 -1.612312 -7.140281 0
M  V30 END ATOM
M  V30 BEGIN BOND
M  V30 1 2 1 2
M  V30 2 1 2 3
M  V30 3 1 3 4
M  V30 4 1 4 5
M  V30 5 2 5 6
M  V30 6 1 6 7
M  V30 7 2 7 8
M  V30 8 1 8 9
M  V30 9 2 9 10
M  V30 10 1 10 11
M  V30 11 1 6 12
M  V30 12 1 12 13
M  V30 13 2 13 14
M  V30 14 1 14 15
M  V30 15 2 15 16
M  V30 16 1 16 17
M  V30 17 2 17 18
M  V30 18 1 12 19
M  V30 19 2 19 20
M  V30 20 1 20 21
M  V30 21 1 21 22
M  V30 22 2 21 23
M  V30 23 1 23 24
M  V30 24 2 24 25
M  V30 25 1 25 26
M  V30 26 2 26 27
M  V30 27 1 2 28
M  V30 28 2 28 29
M  V30 29 1 29 30
M  V30 30 2 30 31
M  V30 31 1 31 32
M  V30 32 2 32 33
M  V30 33 1 32 34
M  V30 34 1 34 35
M  V30 35 1 35 36
M  V30 36 1 26 5
M  V30 37 1 33 28
M  V30 38 1 11 7
M  V30 39 1 18 13
M  V30 40 1 25 19
M  V30 41 1 36 31
M  V30 42 1 3 37
M  V30 43 1 4 38
M  V30 44 1 4 39
M  V30 45 1 9 40
M  V30 46 1 10 41
M  V30 47 1 14 42
M  V30 48 1 15 43
M  V30 49 1 16 44
M  V30 50 1 17 45
M  V30 51 1 18 46
M  V30 52 1 20 47
M  V30 53 1 23 48
M  V30 54 1 24 49
M  V30 55 1 29 50
M  V30 56 1 30 51
M  V30 57 1 33 52
M  V30 58 1 35 53
M  V30 59 1 35 54
M  V30 END BOND
M  V30 END CTAB
M  END
>  <Dataset>  (514) 
ChEMBL_Kinases

>  <Ligand_Instance>  (514) 
nan

>  <PDB_ID>  (514) 
nan

>  <Standardized_SMILES>  (514) 
O=C(NCc1c(-c2ncco2)n(-c2ccccc2)c2cc(Cl)ccc2c1=O)c1ccc2c(c1)OCO2

>  <Name>  (514) 
nan

>  <Pocket>  (514) 
nan

>  <ATP_Site>  (514) 
nan

>  <Peripheral>  (514) 
nan

>  <Num_H_Atoms_ProtBoundConf>  (514) 
nan

>  <Num_Resolved_Atoms>  (514) 
nan

>  <Num_Not_Resolved_Atoms>  (514) 
nan

$$$$
CHEMBL3679427
     RDKit          3D

  0  0  0  0  0  0  0  0  0  0999 V3000
M  V30 BEGIN CTAB
M  V30 COUNTS 65 70 0 0 0
M  V30 BEGIN ATOM
M  V30 1 O 3.235002 -0.966473 2.042156 0
M  V30 2 C 2.030849 -0.563054 1.907992 0
M  V30 3 N 1.152372 -1.590890 1.457986 0
M  V30 4 C 1.583752 -2.937443 1.186423 0
M  V30 5 C 0.395075 -3.725801 0.734415 0
M  V30 6 C -0.112452 -3.576771 -0.538834 0
M  V30 7 C 0.478154 -2.650606 -1.497486 0
M  V30 8 N 0.053935 -2.441910 -2.756215 0
M  V30 9 C 0.808626 -1.524147 -3.389658 0
M  V30 10 C 1.747812 -1.159079 -2.446153 0
M  V30 11 O 1.502812 -1.842010 -1.382662 0
M  V30 12 N -1.182032 -4.310460 -0.893071 0
M  V30 13 C -1.704433 -4.148207 -2.223405 0
M  V30 14 C -1.289747 -4.957681 -3.272027 0
M  V30 15 C -1.810614 -4.779539 -4.548431 0
M  V30 16 C -2.748285 -3.801342 -4.812918 0
M  V30 17 C -3.145839 -3.006434 -3.749307 0
M  V30 18 C -2.649286 -3.155207 -2.467249 0
M  V30 19 C -1.780490 -5.183806 -0.062505 0
M  V30 20 C -2.887012 -5.911639 -0.497320 0
M  V30 21 C -3.535510 -6.813395 0.304414 0
M  V30 22 Cl -4.925313 -7.720111 -0.258040 0
M  V30 23 C -3.042283 -6.978341 1.586476 0
M  V30 24 C -1.938302 -6.274046 2.069161 0
M  V30 25 C -1.328246 -5.385960 1.226213 0
M  V30 26 C -0.215457 -4.626062 1.602363 0
M  V30 27 O 0.228316 -4.780795 2.769702 0
M  V30 28 C 1.609431 0.805678 2.187896 0
M  V30 29 C 0.332771 1.296026 2.067865 0
M  V30 30 C 0.032727 2.614081 2.357249 0
M  V30 31 C 1.054276 3.431715 2.772871 0
M  V30 32 N 0.810903 4.774539 3.079519 0
M  V30 33 C -0.430844 5.477699 3.035779 0
M  V30 34 C -0.408022 6.614336 2.013991 0
M  V30 35 C 0.986545 6.798892 1.444389 0
M  V30 36 C 2.034435 6.827433 2.536334 0
M  V30 37 C 1.867667 5.677128 3.507855 0
M  V30 38 N 2.303299 2.956494 2.891570 0
M  V30 39 C 2.594147 1.675969 2.610202 0
M  V30 40 H 0.138702 -1.296100 1.332965 0
M  V30 41 H 1.932880 -3.368674 2.155632 0
M  V30 42 H 2.354620 -3.044467 0.424869 0
M  V30 43 H 0.751184 -1.123808 -4.389566 0
M  V30 44 H 2.530040 -0.422788 -2.623365 0
M  V30 45 H -0.544927 -5.723546 -3.027103 0
M  V30 46 H -1.441745 -5.451981 -5.333165 0
M  V30 47 H -3.121448 -3.702981 -5.818023 0
M  V30 48 H -3.877488 -2.248854 -3.973209 0
M  V30 49 H -2.984449 -2.510155 -1.648029 0
M  V30 50 H -3.234438 -5.742994 -1.517183 0
M  V30 51 H -3.497518 -7.671165 2.282563 0
M  V30 52 H -1.563121 -6.413307 3.076119 0
M  V30 53 H -0.424244 0.619347 1.740849 0
M  V30 54 H -0.977142 2.920801 2.240696 0
M  V30 55 H -0.612177 5.973947 4.030876 0
M  V30 56 H -1.315376 4.819799 2.901067 0
M  V30 57 H -0.713892 7.573874 2.446834 0
M  V30 58 H -1.049107 6.273448 1.162194 0
M  V30 59 H 1.160359 5.995274 0.724247 0
M  V30 60 H 0.994785 7.745757 0.900097 0
M  V30 61 H 3.031369 6.703257 2.045456 0
M  V30 62 H 2.019885 7.815225 3.020892 0
M  V30 63 H 1.594205 6.072307 4.487015 0
M  V30 64 H 2.837239 5.120313 3.641816 0
M  V30 65 H 3.621999 1.340883 2.722709 0
M  V30 END ATOM
M  V30 BEGIN BOND
M  V30 1 2 1 2
M  V30 2 1 2 3
M  V30 3 1 3 4
M  V30 4 1 4 5
M  V30 5 2 5 6
M  V30 6 1 6 7
M  V30 7 2 7 8
M  V30 8 1 8 9
M  V30 9 2 9 10
M  V30 10 1 10 11
M  V30 11 1 6 12
M  V30 12 1 12 13
M  V30 13 2 13 14
M  V30 14 1 14 15
M  V30 15 2 15 16
M  V30 16 1 16 17
M  V30 17 2 17 18
M  V30 18 1 12 19
M  V30 19 2 19 20
M  V30 20 1 20 21
M  V30 21 1 21 22
M  V30 22 2 21 23
M  V30 23 1 23 24
M  V30 24 2 24 25
M  V30 25 1 25 26
M  V30 26 2 26 27
M  V30 27 1 2 28
M  V30 28 2 28 29
M  V30 29 1 29 30
M  V30 30 2 30 31
M  V30 31 1 31 32
M  V30 32 1 32 33
M  V30 33 1 33 34
M  V30 34 1 34 35
M  V30 35 1 35 36
M  V30 36 1 36 37
M  V30 37 1 31 38
M  V30 38 2 38 39
M  V30 39 1 26 5
M  V30 40 1 39 28
M  V30 41 1 11 7
M  V30 42 1 18 13
M  V30 43 1 25 19
M  V30 44 1 37 32
M  V30 45 1 3 40
M  V30 46 1 4 41
M  V30 47 1 4 42
M  V30 48 1 9 43
M  V30 49 1 10 44
M  V30 50 1 14 45
M  V30 51 1 15 46
M  V30 52 1 16 47
M  V30 53 1 17 48
M  V30 54 1 18 49
M  V30 55 1 20 50
M  V30 56 1 23 51
M  V30 57 1 24 52
M  V30 58 1 29 53
M  V30 59 1 30 54
M  V30 60 1 33 55
M  V30 61 1 33 56
M  V30 62 1 34 57
M  V30 63 1 34 58
M  V30 64 1 35 59
M  V30 65 1 35 60
M  V30 66 1 36 61
M  V30 67 1 36 62
M  V30 68 1 37 63
M  V30 69 1 37 64
M  V30 70 1 39 65
M  V30 END BOND
M  V30 END CTAB
M  END
>  <Dataset>  (515) 
ChEMBL_Kinases

>  <Ligand_Instance>  (515) 
nan

>  <PDB_ID>  (515) 
nan

>  <Standardized_SMILES>  (515) 
O=C(NCc1c(-c2ncco2)n(-c2ccccc2)c2cc(Cl)ccc2c1=O)c1ccc(N2CCCCC2)nc1

>  <Name>  (515) 
nan

>  <Pocket>  (515) 
nan

>  <ATP_Site>  (515) 
nan

>  <Peripheral>  (515) 
nan

>  <Num_H_Atoms_ProtBoundConf>  (515) 
nan

>  <Num_Resolved_Atoms>  (515) 
nan

>  <Num_Not_Resolved_Atoms>  (515) 
nan

$$$$
CHEMBL3679426
     RDKit          3D

  0  0  0  0  0  0  0  0  0  0999 V3000
M  V30 BEGIN CTAB
M  V30 COUNTS 50 54 0 0 0
M  V30 BEGIN ATOM
M  V30 1 O 0.955836 -0.770558 -1.830435 0
M  V30 2 C 0.820265 -2.005358 -2.025271 0
M  V30 3 N 1.115828 -2.779370 -0.908658 0
M  V30 4 C 1.544026 -2.753000 0.466878 0
M  V30 5 C 0.677245 -1.934292 1.338145 0
M  V30 6 C 0.727855 -0.595282 1.589217 0
M  V30 7 C 1.860252 0.168370 1.057257 0
M  V30 8 N 2.015016 1.488164 1.187091 0
M  V30 9 C 3.120444 1.938564 0.618272 0
M  V30 10 C 3.703719 0.813799 0.091331 0
M  V30 11 O 2.924106 -0.164135 0.382522 0
M  V30 12 N -0.181504 0.050250 2.358399 0
M  V30 13 C -0.054927 1.451852 2.564046 0
M  V30 14 C 0.623077 1.960650 3.674451 0
M  V30 15 C 0.715331 3.336829 3.823145 0
M  V30 16 C 0.142786 4.179175 2.882903 0
M  V30 17 C -0.537916 3.678383 1.767826 0
M  V30 18 C -0.615408 2.323323 1.643599 0
M  V30 19 C -1.216921 -0.560282 2.949492 0
M  V30 20 C -2.109177 0.134076 3.716074 0
M  V30 21 C -3.176473 -0.534897 4.317074 0
M  V30 22 Cl -4.311136 0.391608 5.300948 0
M  V30 23 C -3.310161 -1.890441 4.124659 0
M  V30 24 C -2.383458 -2.578087 3.335560 0
M  V30 25 C -1.327404 -1.919369 2.739913 0
M  V30 26 C -0.397508 -2.555033 1.956835 0
M  V30 27 O -0.583456 -3.799162 1.823347 0
M  V30 28 C 0.390251 -2.469061 -3.332544 0
M  V30 29 C 0.213141 -3.782841 -3.713813 0
M  V30 30 C -0.200653 -4.184640 -4.967867 0
M  V30 31 C -0.448184 -3.161465 -5.889727 0
M  V30 32 Cl -0.977263 -3.619628 -7.500934 0
M  V30 33 N -0.275233 -1.880947 -5.517205 0
M  V30 34 C 0.128215 -1.517913 -4.290448 0
M  V30 35 H 0.952500 -3.794524 -1.230103 0
M  V30 36 H 2.616101 -2.431459 0.534825 0
M  V30 37 H 1.488362 -3.787401 0.871106 0
M  V30 38 H 3.578619 2.914995 0.514402 0
M  V30 39 H 4.613425 0.610480 -0.472188 0
M  V30 40 H 1.062781 1.265156 4.396145 0
M  V30 41 H 1.240406 3.742449 4.682647 0
M  V30 42 H 0.200297 5.256179 2.975005 0
M  V30 43 H -0.996504 4.291433 1.014059 0
M  V30 44 H -1.141832 1.905274 0.780351 0
M  V30 45 H -1.973811 1.198341 3.846381 0
M  V30 46 H -4.152959 -2.381280 4.607127 0
M  V30 47 H -2.485808 -3.630273 3.185303 0
M  V30 48 H 0.404849 -4.551926 -3.003820 0
M  V30 49 H -0.314108 -5.245344 -5.181720 0
M  V30 50 H 0.238591 -0.462816 -4.082338 0
M  V30 END ATOM
M  V30 BEGIN BOND
M  V30 1 2 1 2
M  V30 2 1 2 3
M  V30 3 1 3 4
M  V30 4 1 4 5
M  V30 5 2 5 6
M  V30 6 1 6 7
M  V30 7 2 7 8
M  V30 8 1 8 9
M  V30 9 2 9 10
M  V30 10 1 10 11
M  V30 11 1 6 12
M  V30 12 1 12 13
M  V30 13 2 13 14
M  V30 14 1 14 15
M  V30 15 2 15 16
M  V30 16 1 16 17
M  V30 17 2 17 18
M  V30 18 1 12 19
M  V30 19 2 19 20
M  V30 20 1 20 21
M  V30 21 1 21 22
M  V30 22 2 21 23
M  V30 23 1 23 24
M  V30 24 2 24 25
M  V30 25 1 25 26
M  V30 26 2 26 27
M  V30 27 1 2 28
M  V30 28 2 28 29
M  V30 29 1 29 30
M  V30 30 2 30 31
M  V30 31 1 31 32
M  V30 32 1 31 33
M  V30 33 2 33 34
M  V30 34 1 26 5
M  V30 35 1 34 28
M  V30 36 1 11 7
M  V30 37 1 18 13
M  V30 38 1 25 19
M  V30 39 1 3 35
M  V30 40 1 4 36
M  V30 41 1 4 37
M  V30 42 1 9 38
M  V30 43 1 10 39
M  V30 44 1 14 40
M  V30 45 1 15 41
M  V30 46 1 16 42
M  V30 47 1 17 43
M  V30 48 1 18 44
M  V30 49 1 20 45
M  V30 50 1 23 46
M  V30 51 1 24 47
M  V30 52 1 29 48
M  V30 53 1 30 49
M  V30 54 1 34 50
M  V30 END BOND
M  V30 END CTAB
M  END
>  <Dataset>  (516) 
ChEMBL_Kinases

>  <Ligand_Instance>  (516) 
nan

>  <PDB_ID>  (516) 
nan

>  <Standardized_SMILES>  (516) 
O=C(NCc1c(-c2ncco2)n(-c2ccccc2)c2cc(Cl)ccc2c1=O)c1ccc(Cl)nc1

>  <Name>  (516) 
nan

>  <Pocket>  (516) 
nan

>  <ATP_Site>  (516) 
nan

>  <Peripheral>  (516) 
nan

>  <Num_H_Atoms_ProtBoundConf>  (516) 
nan

>  <Num_Resolved_Atoms>  (516) 
nan

>  <Num_Not_Resolved_Atoms>  (516) 
nan

$$$$
CHEMBL3679425
     RDKit          3D

  0  0  0  0  0  0  0  0  0  0999 V3000
M  V30 BEGIN CTAB
M  V30 COUNTS 56 60 0 0 0
M  V30 BEGIN ATOM
M  V30 1 C 5.948925 -2.768179 7.032646 0
M  V30 2 O 5.173522 -2.120040 6.038735 0
M  V30 3 C 5.354124 -2.234276 4.687730 0
M  V30 4 O 6.295836 -2.984868 4.324867 0
M  V30 5 C 4.499421 -1.523654 3.745077 0
M  V30 6 C 3.460647 -0.694224 4.113052 0
M  V30 7 C 2.667598 -0.034591 3.195926 0
M  V30 8 C 2.891978 -0.185466 1.830432 0
M  V30 9 C 2.138002 0.445593 0.753595 0
M  V30 10 O 2.473266 0.202937 -0.455879 0
M  V30 11 N 1.041388 1.324257 0.927827 0
M  V30 12 C 0.236160 1.994317 -0.042615 0
M  V30 13 C -0.472684 1.129167 -0.995547 0
M  V30 14 C -1.595146 0.384689 -0.706402 0
M  V30 15 C -2.176383 0.421066 0.628166 0
M  V30 16 N -3.264010 -0.290139 0.967338 0
M  V30 17 C -3.541213 -0.039552 2.249271 0
M  V30 18 C -2.598677 0.850423 2.712992 0
M  V30 19 O -1.820166 1.079673 1.695700 0
M  V30 20 N -2.134968 -0.360527 -1.684896 0
M  V30 21 C -3.307840 -1.135536 -1.371348 0
M  V30 22 C -2.991010 -2.409343 -0.954745 0
M  V30 23 C -4.000422 -3.293509 -0.611485 0
M  V30 24 C -5.317877 -2.900187 -0.686493 0
M  V30 25 C -5.614449 -1.616772 -1.107240 0
M  V30 26 C -4.624198 -0.721591 -1.453359 0
M  V30 27 C -1.692033 -0.462937 -2.944001 0
M  V30 28 C -2.329868 -1.263124 -3.868878 0
M  V30 29 C -1.876993 -1.370203 -5.164575 0
M  V30 30 Cl -2.709945 -2.399343 -6.326987 0
M  V30 31 C -0.753759 -0.638881 -5.495288 0
M  V30 32 C -0.109976 0.165461 -4.571405 0
M  V30 33 C -0.571019 0.266019 -3.277067 0
M  V30 34 C 0.014837 1.043657 -2.304521 0
M  V30 35 O 1.042546 1.668594 -2.738675 0
M  V30 36 C 3.939796 -1.023237 1.511500 0
M  V30 37 N 4.703172 -1.658703 2.417840 0
M  V30 38 H 5.348674 -2.961192 7.948112 0
M  V30 39 H 6.380581 -3.725623 6.673055 0
M  V30 40 H 6.760780 -2.068559 7.370848 0
M  V30 41 H 3.268173 -0.561936 5.157480 0
M  V30 42 H 1.861902 0.608869 3.484983 0
M  V30 43 H 0.853548 1.459658 1.967247 0
M  V30 44 H -0.537152 2.584747 0.487756 0
M  V30 45 H 0.836922 2.747697 -0.608695 0
M  V30 46 H -4.322376 -0.388133 2.941751 0
M  V30 47 H -2.370611 1.360058 3.639895 0
M  V30 48 H -1.980894 -2.809143 -0.864168 0
M  V30 49 H -3.785324 -4.305818 -0.278721 0
M  V30 50 H -6.122341 -3.584228 -0.419827 0
M  V30 51 H -6.620675 -1.239826 -1.190368 0
M  V30 52 H -4.752940 0.293726 -1.790815 0
M  V30 53 H -3.220136 -1.833204 -3.579334 0
M  V30 54 H -0.385354 -0.718641 -6.527788 0
M  V30 55 H 0.780048 0.740841 -4.845758 0
M  V30 56 H 4.252095 -1.252126 0.485906 0
M  V30 END ATOM
M  V30 BEGIN BOND
M  V30 1 1 1 2
M  V30 2 1 2 3
M  V30 3 2 3 4
M  V30 4 1 3 5
M  V30 5 2 5 6
M  V30 6 1 6 7
M  V30 7 2 7 8
M  V30 8 1 8 9
M  V30 9 2 9 10
M  V30 10 1 9 11
M  V30 11 1 11 12
M  V30 12 1 12 13
M  V30 13 2 13 14
M  V30 14 1 14 15
M  V30 15 2 15 16
M  V30 16 1 16 17
M  V30 17 2 17 18
M  V30 18 1 18 19
M  V30 19 1 14 20
M  V30 20 1 20 21
M  V30 21 2 21 22
M  V30 22 1 22 23
M  V30 23 2 23 24
M  V30 24 1 24 25
M  V30 25 2 25 26
M  V30 26 1 20 27
M  V30 27 2 27 28
M  V30 28 1 28 29
M  V30 29 1 29 30
M  V30 30 2 29 31
M  V30 31 1 31 32
M  V30 32 2 32 33
M  V30 33 1 33 34
M  V30 34 2 34 35
M  V30 35 1 8 36
M  V30 36 2 36 37
M  V30 37 1 37 5
M  V30 38 1 34 13
M  V30 39 1 19 15
M  V30 40 1 26 21
M  V30 41 1 33 27
M  V30 42 1 1 38
M  V30 43 1 1 39
M  V30 44 1 1 40
M  V30 45 1 6 41
M  V30 46 1 7 42
M  V30 47 1 11 43
M  V30 48 1 12 44
M  V30 49 1 12 45
M  V30 50 1 17 46
M  V30 51 1 18 47
M  V30 52 1 22 48
M  V30 53 1 23 49
M  V30 54 1 24 50
M  V30 55 1 25 51
M  V30 56 1 26 52
M  V30 57 1 28 53
M  V30 58 1 31 54
M  V30 59 1 32 55
M  V30 60 1 36 56
M  V30 END BOND
M  V30 END CTAB
M  END
>  <Dataset>  (517) 
ChEMBL_Kinases

>  <Ligand_Instance>  (517) 
nan

>  <PDB_ID>  (517) 
nan

>  <Standardized_SMILES>  (517) 
COC(=O)c1ccc(C(=O)NCc2c(-c3ncco3)n(-c3ccccc3)c3cc(Cl)ccc3c2=O)cn1

>  <Name>  (517) 
nan

>  <Pocket>  (517) 
nan

>  <ATP_Site>  (517) 
nan

>  <Peripheral>  (517) 
nan

>  <Num_H_Atoms_ProtBoundConf>  (517) 
nan

>  <Num_Resolved_Atoms>  (517) 
nan

>  <Num_Not_Resolved_Atoms>  (517) 
nan

$$$$
CHEMBL3679424
     RDKit          3D

  0  0  0  0  0  0  0  0  0  0999 V3000
M  V30 BEGIN CTAB
M  V30 COUNTS 55 59 0 0 0
M  V30 BEGIN ATOM
M  V30 1 N 7.563399 -0.917773 1.884995 0
M  V30 2 C 7.311662 0.172078 1.040886 0
M  V30 3 O 8.350926 0.865435 0.888003 0
M  V30 4 C 5.983010 0.331176 0.503746 0
M  V30 5 C 4.956536 -0.541873 0.786779 0
M  V30 6 C 3.716686 -0.301010 0.221088 0
M  V30 7 C 3.479298 0.774654 -0.608664 0
M  V30 8 C 2.177335 1.043847 -1.212932 0
M  V30 9 O 2.013556 2.051160 -1.978334 0
M  V30 10 N 1.031136 0.262490 -1.023653 0
M  V30 11 C -0.215584 0.612783 -1.667414 0
M  V30 12 C -1.228236 -0.385881 -1.280813 0
M  V30 13 C -1.786441 -0.319208 0.000040 0
M  V30 14 C -1.406152 0.698595 0.972963 0
M  V30 15 N -0.503575 1.685374 0.806456 0
M  V30 16 C -0.391249 2.446658 1.892508 0
M  V30 17 C -1.283292 1.883565 2.771567 0
M  V30 18 O -1.853657 0.860702 2.184467 0
M  V30 19 N -2.717624 -1.232567 0.362750 0
M  V30 20 C -3.345148 -1.254569 1.635373 0
M  V30 21 C -4.593181 -0.840591 1.962554 0
M  V30 22 C -5.064603 -0.928306 3.255978 0
M  V30 23 C -4.217085 -1.455061 4.211039 0
M  V30 24 C -2.915991 -1.905250 3.959171 0
M  V30 25 C -2.513648 -1.783338 2.629834 0
M  V30 26 C -3.130490 -2.208208 -0.464321 0
M  V30 27 C -4.082925 -3.152015 -0.109384 0
M  V30 28 C -4.505022 -4.158505 -0.970198 0
M  V30 29 Cl -5.714006 -5.321639 -0.459053 0
M  V30 30 C -3.944322 -4.209629 -2.229295 0
M  V30 31 C -2.993455 -3.302548 -2.644309 0
M  V30 32 C -2.612072 -2.318341 -1.737111 0
M  V30 33 C -1.662353 -1.395049 -2.121556 0
M  V30 34 O -1.142134 -1.428483 -3.265650 0
M  V30 35 C 4.527250 1.631248 -0.873326 0
M  V30 36 C 5.797986 1.434004 -0.328193 0
M  V30 37 H 7.219495 -1.867843 2.214049 0
M  V30 38 H 8.284568 -1.187290 2.569760 0
M  V30 39 H 5.111103 -1.394730 1.434403 0
M  V30 40 H 2.918221 -0.992751 0.450204 0
M  V30 41 H 1.117060 -0.577148 -0.402028 0
M  V30 42 H -0.513932 1.654149 -1.570776 0
M  V30 43 H -0.016934 0.445272 -2.767029 0
M  V30 44 H 0.216457 3.301018 2.109661 0
M  V30 45 H -1.559474 2.136605 3.784539 0
M  V30 46 H -5.177442 -0.446372 1.156734 0
M  V30 47 H -6.053933 -0.598561 3.507754 0
M  V30 48 H -4.578763 -1.527286 5.225865 0
M  V30 49 H -2.293614 -2.305528 4.725518 0
M  V30 50 H -1.487719 -2.141513 2.450047 0
M  V30 51 H -4.509280 -3.092226 0.883896 0
M  V30 52 H -4.243824 -4.985970 -2.946664 0
M  V30 53 H -2.576232 -3.375542 -3.641145 0
M  V30 54 H 4.385763 2.498399 -1.525484 0
M  V30 55 H 6.617029 2.122459 -0.548046 0
M  V30 END ATOM
M  V30 BEGIN BOND
M  V30 1 1 1 2
M  V30 2 2 2 3
M  V30 3 1 2 4
M  V30 4 2 4 5
M  V30 5 1 5 6
M  V30 6 2 6 7
M  V30 7 1 7 8
M  V30 8 2 8 9
M  V30 9 1 8 10
M  V30 10 1 10 11
M  V30 11 1 11 12
M  V30 12 2 12 13
M  V30 13 1 13 14
M  V30 14 2 14 15
M  V30 15 1 15 16
M  V30 16 2 16 17
M  V30 17 1 17 18
M  V30 18 1 13 19
M  V30 19 1 19 20
M  V30 20 2 20 21
M  V30 21 1 21 22
M  V30 22 2 22 23
M  V30 23 1 23 24
M  V30 24 2 24 25
M  V30 25 1 19 26
M  V30 26 2 26 27
M  V30 27 1 27 28
M  V30 28 1 28 29
M  V30 29 2 28 30
M  V30 30 1 30 31
M  V30 31 2 31 32
M  V30 32 1 32 33
M  V30 33 2 33 34
M  V30 34 1 7 35
M  V30 35 2 35 36
M  V30 36 1 36 4
M  V30 37 1 33 12
M  V30 38 1 18 14
M  V30 39 1 25 20
M  V30 40 1 32 26
M  V30 41 1 1 37
M  V30 42 1 1 38
M  V30 43 1 5 39
M  V30 44 1 6 40
M  V30 45 1 10 41
M  V30 46 1 11 42
M  V30 47 1 11 43
M  V30 48 1 16 44
M  V30 49 1 17 45
M  V30 50 1 21 46
M  V30 51 1 22 47
M  V30 52 1 23 48
M  V30 53 1 24 49
M  V30 54 1 25 50
M  V30 55 1 27 51
M  V30 56 1 30 52
M  V30 57 1 31 53
M  V30 58 1 35 54
M  V30 59 1 36 55
M  V30 END BOND
M  V30 END CTAB
M  END
>  <Dataset>  (518) 
ChEMBL_Kinases

>  <Ligand_Instance>  (518) 
nan

>  <PDB_ID>  (518) 
nan

>  <Standardized_SMILES>  (518) 
NC(=O)c1ccc(C(=O)NCc2c(-c3ncco3)n(-c3ccccc3)c3cc(Cl)ccc3c2=O)cc1

>  <Name>  (518) 
nan

>  <Pocket>  (518) 
nan

>  <ATP_Site>  (518) 
nan

>  <Peripheral>  (518) 
nan

>  <Num_H_Atoms_ProtBoundConf>  (518) 
nan

>  <Num_Resolved_Atoms>  (518) 
nan

>  <Num_Not_Resolved_Atoms>  (518) 
nan

$$$$
CHEMBL3679423
     RDKit          3D

  0  0  0  0  0  0  0  0  0  0999 V3000
M  V30 BEGIN CTAB
M  V30 COUNTS 63 68 0 0 0
M  V30 BEGIN ATOM
M  V30 1 O 2.821510 -1.404962 2.687213 0
M  V30 2 C 1.734501 -0.870513 2.315234 0
M  V30 3 N 0.803651 -1.702585 1.649186 0
M  V30 4 C 1.110176 -3.105554 1.419629 0
M  V30 5 C -0.050940 -3.695409 0.700370 0
M  V30 6 C -0.242223 -3.437953 -0.636995 0
M  V30 7 C 0.661796 -2.580404 -1.410056 0
M  V30 8 N 1.744327 -1.940692 -1.000353 0
M  V30 9 C 2.333514 -1.242943 -1.982560 0
M  V30 10 C 1.535612 -1.486005 -3.071946 0
M  V30 11 O 0.575374 -2.267456 -2.697445 0
M  V30 12 N -1.302129 -3.976992 -1.310939 0
M  V30 13 C -1.571774 -3.760578 -2.692376 0
M  V30 14 C -2.191876 -2.522775 -2.901464 0
M  V30 15 C -2.532085 -2.135743 -4.185573 0
M  V30 16 C -2.246707 -2.989085 -5.225473 0
M  V30 17 C -1.632899 -4.217815 -5.032242 0
M  V30 18 C -1.303835 -4.580340 -3.743267 0
M  V30 19 C -2.176979 -4.771557 -0.668066 0
M  V30 20 C -3.263359 -5.341072 -1.303294 0
M  V30 21 C -4.170477 -6.160158 -0.655638 0
M  V30 22 Cl -5.549548 -6.879432 -1.474587 0
M  V30 23 C -3.995970 -6.432999 0.695790 0
M  V30 24 C -2.908089 -5.863810 1.335780 0
M  V30 25 C -2.010989 -5.047054 0.672101 0
M  V30 26 C -0.951993 -4.520652 1.386771 0
M  V30 27 O -0.782831 -4.757600 2.602002 0
M  V30 28 C 1.493384 0.543881 2.581275 0
M  V30 29 C 0.332738 1.218551 2.260535 0
M  V30 30 C 0.191387 2.560342 2.548994 0
M  V30 31 C 1.190698 3.282613 3.163830 0
M  V30 32 N 1.072364 4.659286 3.476393 0
M  V30 33 C -0.092444 5.469577 3.267522 0
M  V30 34 C 0.291929 6.760577 2.555743 0
M  V30 35 O 1.328875 7.381319 3.249330 0
M  V30 36 C 2.476725 6.595301 3.244945 0
M  V30 37 C 2.203384 5.353691 4.060135 0
M  V30 38 N 2.310112 2.605697 3.466145 0
M  V30 39 C 2.471763 1.299323 3.195712 0
M  V30 40 H -0.095934 -1.265472 1.337855 0
M  V30 41 H 1.201804 -3.649356 2.404247 0
M  V30 42 H 2.065868 -3.286406 0.916690 0
M  V30 43 H 3.208698 -0.614351 -2.035730 0
M  V30 44 H 1.556564 -1.172795 -4.101191 0
M  V30 45 H -2.445160 -1.800237 -2.116787 0
M  V30 46 H -3.018418 -1.181496 -4.418067 0
M  V30 47 H -2.495496 -2.729027 -6.258480 0
M  V30 48 H -1.419372 -4.869642 -5.863363 0
M  V30 49 H -0.828676 -5.506755 -3.495012 0
M  V30 50 H -3.428470 -5.146052 -2.367068 0
M  V30 51 H -4.657940 -7.067385 1.293091 0
M  V30 52 H -2.761829 -6.072160 2.399863 0
M  V30 53 H -0.455032 0.685593 1.785079 0
M  V30 54 H -0.740675 3.029242 2.272449 0
M  V30 55 H -0.511560 5.796072 4.255345 0
M  V30 56 H -0.919267 4.997782 2.738807 0
M  V30 57 H -0.593522 7.444519 2.622686 0
M  V30 58 H 0.605433 6.618714 1.522853 0
M  V30 59 H 2.684563 6.326791 2.188832 0
M  V30 60 H 3.277620 7.218467 3.681242 0
M  V30 61 H 1.873681 5.697591 5.077507 0
M  V30 62 H 3.095787 4.699669 4.138139 0
M  V30 63 H 3.439198 0.876103 3.498943 0
M  V30 END ATOM
M  V30 BEGIN BOND
M  V30 1 2 1 2
M  V30 2 1 2 3
M  V30 3 1 3 4
M  V30 4 1 4 5
M  V30 5 2 5 6
M  V30 6 1 6 7
M  V30 7 2 7 8
M  V30 8 1 8 9
M  V30 9 2 9 10
M  V30 10 1 10 11
M  V30 11 1 6 12
M  V30 12 1 12 13
M  V30 13 2 13 14
M  V30 14 1 14 15
M  V30 15 2 15 16
M  V30 16 1 16 17
M  V30 17 2 17 18
M  V30 18 1 12 19
M  V30 19 2 19 20
M  V30 20 1 20 21
M  V30 21 1 21 22
M  V30 22 2 21 23
M  V30 23 1 23 24
M  V30 24 2 24 25
M  V30 25 1 25 26
M  V30 26 2 26 27
M  V30 27 1 2 28
M  V30 28 2 28 29
M  V30 29 1 29 30
M  V30 30 2 30 31
M  V30 31 1 31 32
M  V30 32 1 32 33
M  V30 33 1 33 34
M  V30 34 1 34 35
M  V30 35 1 35 36
M  V30 36 1 36 37
M  V30 37 1 31 38
M  V30 38 2 38 39
M  V30 39 1 26 5
M  V30 40 1 39 28
M  V30 41 1 11 7
M  V30 42 1 18 13
M  V30 43 1 25 19
M  V30 44 1 37 32
M  V30 45 1 3 40
M  V30 46 1 4 41
M  V30 47 1 4 42
M  V30 48 1 9 43
M  V30 49 1 10 44
M  V30 50 1 14 45
M  V30 51 1 15 46
M  V30 52 1 16 47
M  V30 53 1 17 48
M  V30 54 1 18 49
M  V30 55 1 20 50
M  V30 56 1 23 51
M  V30 57 1 24 52
M  V30 58 1 29 53
M  V30 59 1 30 54
M  V30 60 1 33 55
M  V30 61 1 33 56
M  V30 62 1 34 57
M  V30 63 1 34 58
M  V30 64 1 36 59
M  V30 65 1 36 60
M  V30 66 1 37 61
M  V30 67 1 37 62
M  V30 68 1 39 63
M  V30 END BOND
M  V30 END CTAB
M  END
>  <Dataset>  (519) 
ChEMBL_Kinases

>  <Ligand_Instance>  (519) 
nan

>  <PDB_ID>  (519) 
nan

>  <Standardized_SMILES>  (519) 
O=C(NCc1c(-c2ncco2)n(-c2ccccc2)c2cc(Cl)ccc2c1=O)c1ccc(N2CCOCC2)nc1

>  <Name>  (519) 
nan

>  <Pocket>  (519) 
nan

>  <ATP_Site>  (519) 
nan

>  <Peripheral>  (519) 
nan

>  <Num_H_Atoms_ProtBoundConf>  (519) 
nan

>  <Num_Resolved_Atoms>  (519) 
nan

>  <Num_Not_Resolved_Atoms>  (519) 
nan

$$$$
CHEMBL3679422
     RDKit          3D

  0  0  0  0  0  0  0  0  0  0999 V3000
M  V30 BEGIN CTAB
M  V30 COUNTS 63 68 0 0 0
M  V30 BEGIN ATOM
M  V30 1 O 1.270777 -1.403224 1.828592 0
M  V30 2 C 1.864948 -0.683558 0.984939 0
M  V30 3 N 2.222892 -1.307339 -0.231426 0
M  V30 4 C 2.020840 -2.662717 -0.685438 0
M  V30 5 C 0.601413 -3.080694 -0.716981 0
M  V30 6 C -0.323397 -2.706792 -1.667453 0
M  V30 7 C 0.083263 -1.851494 -2.769159 0
M  V30 8 N 1.271697 -1.325906 -3.091193 0
M  V30 9 C 1.160988 -0.600806 -4.199794 0
M  V30 10 C -0.155145 -0.674571 -4.590825 0
M  V30 11 O -0.709076 -1.419662 -3.705070 0
M  V30 12 N -1.607200 -3.139540 -1.607353 0
M  V30 13 C -2.548152 -2.728114 -2.617442 0
M  V30 14 C -3.144865 -1.524773 -2.251998 0
M  V30 15 C -4.091660 -0.943740 -3.088556 0
M  V30 16 C -4.431835 -1.553713 -4.261974 0
M  V30 17 C -3.825494 -2.752915 -4.608147 0
M  V30 18 C -2.881942 -3.341840 -3.785125 0
M  V30 19 C -2.097814 -3.946928 -0.655056 0
M  V30 20 C -3.414487 -4.351409 -0.651779 0
M  V30 21 C -3.914184 -5.182750 0.328962 0
M  V30 22 Cl -5.592162 -5.712436 0.353212 0
M  V30 23 C -3.026614 -5.585795 1.303471 0
M  V30 24 C -1.708076 -5.181994 1.302190 0
M  V30 25 C -1.218152 -4.358127 0.327802 0
M  V30 26 C 0.091673 -3.915963 0.265992 0
M  V30 27 O 0.791708 -4.361889 1.216954 0
M  V30 28 C 2.134707 0.699522 1.309406 0
M  V30 29 C 2.782760 1.609840 0.502567 0
M  V30 30 C 3.031795 2.925221 0.828353 0
M  V30 31 N 2.593750 3.335676 2.049374 0
M  V30 32 C 1.951243 2.525104 2.910080 0
M  V30 33 N 1.530302 3.038352 4.162251 0
M  V30 34 C 1.844163 4.440853 4.422420 0
M  V30 35 C 1.766491 4.790510 5.869306 0
M  V30 36 O 1.891904 3.667729 6.685012 0
M  V30 37 C 0.843147 2.776289 6.504794 0
M  V30 38 C 0.827035 2.186713 5.110746 0
M  V30 39 C 1.734700 1.219574 2.520037 0
M  V30 40 H 2.726946 -0.632994 -0.879127 0
M  V30 41 H 2.536639 -3.306185 0.082771 0
M  V30 42 H 2.534320 -2.839832 -1.651201 0
M  V30 43 H 1.981174 -0.069646 -4.669807 0
M  V30 44 H -0.572471 -0.189732 -5.462464 0
M  V30 45 H -2.973206 -0.932426 -1.356196 0
M  V30 46 H -4.598021 -0.001419 -2.863160 0
M  V30 47 H -5.175231 -1.099999 -4.920575 0
M  V30 48 H -4.067795 -3.253729 -5.515179 0
M  V30 49 H -2.361160 -4.254350 -3.957239 0
M  V30 50 H -4.098102 -4.032180 -1.415300 0
M  V30 51 H -3.346033 -6.234870 2.100470 0
M  V30 52 H -1.034836 -5.510759 2.074361 0
M  V30 53 H 3.132799 1.291149 -0.467681 0
M  V30 54 H 3.543137 3.591893 0.157607 0
M  V30 55 H 1.123408 5.044940 3.832038 0
M  V30 56 H 2.863506 4.633225 3.985320 0
M  V30 57 H 0.802706 5.315068 6.067020 0
M  V30 58 H 2.638521 5.446339 6.100481 0
M  V30 59 H 0.976764 1.993729 7.299154 0
M  V30 60 H -0.125800 3.275974 6.757872 0
M  V30 61 H -0.249013 2.202096 4.772310 0
M  V30 62 H 1.252515 1.172739 5.140501 0
M  V30 63 H 1.211827 0.541706 3.206627 0
M  V30 END ATOM
M  V30 BEGIN BOND
M  V30 1 2 1 2
M  V30 2 1 2 3
M  V30 3 1 3 4
M  V30 4 1 4 5
M  V30 5 2 5 6
M  V30 6 1 6 7
M  V30 7 2 7 8
M  V30 8 1 8 9
M  V30 9 2 9 10
M  V30 10 1 10 11
M  V30 11 1 6 12
M  V30 12 1 12 13
M  V30 13 2 13 14
M  V30 14 1 14 15
M  V30 15 2 15 16
M  V30 16 1 16 17
M  V30 17 2 17 18
M  V30 18 1 12 19
M  V30 19 2 19 20
M  V30 20 1 20 21
M  V30 21 1 21 22
M  V30 22 2 21 23
M  V30 23 1 23 24
M  V30 24 2 24 25
M  V30 25 1 25 26
M  V30 26 2 26 27
M  V30 27 1 2 28
M  V30 28 2 28 29
M  V30 29 1 29 30
M  V30 30 2 30 31
M  V30 31 1 31 32
M  V30 32 1 32 33
M  V30 33 1 33 34
M  V30 34 1 34 35
M  V30 35 1 35 36
M  V30 36 1 36 37
M  V30 37 1 37 38
M  V30 38 2 32 39
M  V30 39 1 26 5
M  V30 40 1 39 28
M  V30 41 1 11 7
M  V30 42 1 18 13
M  V30 43 1 25 19
M  V30 44 1 38 33
M  V30 45 1 3 40
M  V30 46 1 4 41
M  V30 47 1 4 42
M  V30 48 1 9 43
M  V30 49 1 10 44
M  V30 50 1 14 45
M  V30 51 1 15 46
M  V30 52 1 16 47
M  V30 53 1 17 48
M  V30 54 1 18 49
M  V30 55 1 20 50
M  V30 56 1 23 51
M  V30 57 1 24 52
M  V30 58 1 29 53
M  V30 59 1 30 54
M  V30 60 1 34 55
M  V30 61 1 34 56
M  V30 62 1 35 57
M  V30 63 1 35 58
M  V30 64 1 37 59
M  V30 65 1 37 60
M  V30 66 1 38 61
M  V30 67 1 38 62
M  V30 68 1 39 63
M  V30 END BOND
M  V30 END CTAB
M  END
>  <Dataset>  (520) 
ChEMBL_Kinases

>  <Ligand_Instance>  (520) 
nan

>  <PDB_ID>  (520) 
nan

>  <Standardized_SMILES>  (520) 
O=C(NCc1c(-c2ncco2)n(-c2ccccc2)c2cc(Cl)ccc2c1=O)c1ccnc(N2CCOCC2)c1

>  <Name>  (520) 
nan

>  <Pocket>  (520) 
nan

>  <ATP_Site>  (520) 
nan

>  <Peripheral>  (520) 
nan

>  <Num_H_Atoms_ProtBoundConf>  (520) 
nan

>  <Num_Resolved_Atoms>  (520) 
nan

>  <Num_Not_Resolved_Atoms>  (520) 
nan

$$$$
CHEMBL3679437
     RDKit          3D

  0  0  0  0  0  0  0  0  0  0999 V3000
M  V30 BEGIN CTAB
M  V30 COUNTS 68 72 0 0 0
M  V30 BEGIN ATOM
M  V30 1 C 4.658796 -0.631700 0.175332 0
M  V30 2 N 3.707022 -1.669074 0.495550 0
M  V30 3 C 4.391774 -2.946148 0.631216 0
M  V30 4 C 2.291107 -1.442601 0.653212 0
M  V30 5 O 1.963841 -0.246670 0.485610 0
M  V30 6 C 1.561022 -2.662784 0.973370 0
M  V30 7 C 0.809760 -3.370406 0.074666 0
M  V30 8 C 0.795712 -2.754717 -1.300576 0
M  V30 9 N -0.103821 -1.607844 -1.214858 0
M  V30 10 C -0.404254 -0.740981 -2.296660 0
M  V30 11 O 0.161005 -1.013159 -3.397341 0
M  V30 12 C -1.297854 0.403909 -2.205693 0
M  V30 13 C -1.939700 0.839896 -1.067285 0
M  V30 14 C -2.782075 1.925380 -0.995932 0
M  V30 15 C -3.025250 2.658059 -2.137124 0
M  V30 16 N -3.869547 3.802657 -2.162164 0
M  V30 17 C -4.378858 4.536904 -3.303340 0
M  V30 18 C -5.793409 4.963390 -2.979904 0
M  V30 19 O -6.442946 4.106345 -2.119868 0
M  V30 20 C -5.850582 4.071973 -0.855094 0
M  V30 21 C -4.367616 4.451376 -0.966001 0
M  V30 22 C -2.399905 2.251386 -3.296879 0
M  V30 23 C -1.556986 1.157911 -3.347692 0
M  V30 24 C 0.114330 -4.526858 0.345361 0
M  V30 25 O -0.548521 -5.102405 -0.556241 0
M  V30 26 C 0.191987 -5.003653 1.648369 0
M  V30 27 C -0.478279 -6.156839 1.996553 0
M  V30 28 C -0.397634 -6.627897 3.298211 0
M  V30 29 C 0.356507 -5.926066 4.220020 0
M  V30 30 Cl 0.506795 -6.458061 5.885241 0
M  V30 31 C 1.023854 -4.768404 3.852273 0
M  V30 32 C 0.955400 -4.284079 2.560567 0
M  V30 33 N 1.618463 -3.155171 2.244435 0
M  V30 34 C 2.389120 -2.448039 3.226847 0
M  V30 35 C 1.790400 -1.199674 3.430767 0
M  V30 36 C 2.337592 -0.297602 4.344815 0
M  V30 37 C 3.487497 -0.682180 5.037424 0
M  V30 38 C 4.063057 -1.927180 4.816791 0
M  V30 39 C 3.509599 -2.803436 3.911836 0
M  V30 40 H 5.346168 -0.471453 1.023517 0
M  V30 41 H 4.187834 0.343726 -0.075851 0
M  V30 42 H 5.289639 -0.980077 -0.687006 0
M  V30 43 H 3.678679 -3.783700 0.839981 0
M  V30 44 H 5.197261 -2.911335 1.393672 0
M  V30 45 H 4.906901 -3.229559 -0.314515 0
M  V30 46 H 1.816215 -2.488020 -1.587806 0
M  V30 47 H 0.403649 -3.428626 -2.060657 0
M  V30 48 H -0.597691 -1.350171 -0.318088 0
M  V30 49 H -1.768598 0.287863 -0.158770 0
M  V30 50 H -3.228574 2.174868 -0.066146 0
M  V30 51 H -3.771676 5.461919 -3.464927 0
M  V30 52 H -4.413400 3.923744 -4.230374 0
M  V30 53 H -6.429302 5.040458 -3.888945 0
M  V30 54 H -5.742577 5.993299 -2.564121 0
M  V30 55 H -5.848172 3.041061 -0.449633 0
M  V30 56 H -6.357441 4.720770 -0.112881 0
M  V30 57 H -3.886953 4.067749 -0.043907 0
M  V30 58 H -4.256347 5.558695 -0.983241 0
M  V30 59 H -2.562148 2.801286 -4.225223 0
M  V30 60 H -1.084756 0.868844 -4.271220 0
M  V30 61 H -1.036226 -6.634463 1.224762 0
M  V30 62 H -0.909740 -7.517300 3.581530 0
M  V30 63 H 1.604717 -4.243042 4.592959 0
M  V30 64 H 0.907862 -0.776991 2.968704 0
M  V30 65 H 1.942741 0.684281 4.564600 0
M  V30 66 H 3.935525 -0.002595 5.755353 0
M  V30 67 H 4.960359 -2.267296 5.335391 0
M  V30 68 H 3.851426 -3.780356 3.651796 0
M  V30 END ATOM
M  V30 BEGIN BOND
M  V30 1 1 1 2
M  V30 2 1 2 3
M  V30 3 1 2 4
M  V30 4 2 4 5
M  V30 5 1 4 6
M  V30 6 2 6 7
M  V30 7 1 7 8
M  V30 8 1 8 9
M  V30 9 1 9 10
M  V30 10 2 10 11
M  V30 11 1 10 12
M  V30 12 2 12 13
M  V30 13 1 13 14
M  V30 14 2 14 15
M  V30 15 1 15 16
M  V30 16 1 16 17
M  V30 17 1 17 18
M  V30 18 1 18 19
M  V30 19 1 19 20
M  V30 20 1 20 21
M  V30 21 1 15 22
M  V30 22 2 22 23
M  V30 23 1 7 24
M  V30 24 2 24 25
M  V30 25 1 24 26
M  V30 26 2 26 27
M  V30 27 1 27 28
M  V30 28 2 28 29
M  V30 29 1 29 30
M  V30 30 1 29 31
M  V30 31 2 31 32
M  V30 32 1 32 33
M  V30 33 1 33 34
M  V30 34 2 34 35
M  V30 35 1 35 36
M  V30 36 2 36 37
M  V30 37 1 37 38
M  V30 38 2 38 39
M  V30 39 1 33 6
M  V30 40 1 39 34
M  V30 41 1 23 12
M  V30 42 1 32 26
M  V30 43 1 21 16
M  V30 44 1 1 40
M  V30 45 1 1 41
M  V30 46 1 1 42
M  V30 47 1 3 43
M  V30 48 1 3 44
M  V30 49 1 3 45
M  V30 50 1 8 46
M  V30 51 1 8 47
M  V30 52 1 9 48
M  V30 53 1 13 49
M  V30 54 1 14 50
M  V30 55 1 17 51
M  V30 56 1 17 52
M  V30 57 1 18 53
M  V30 58 1 18 54
M  V30 59 1 20 55
M  V30 60 1 20 56
M  V30 61 1 21 57
M  V30 62 1 21 58
M  V30 63 1 22 59
M  V30 64 1 23 60
M  V30 65 1 27 61
M  V30 66 1 28 62
M  V30 67 1 31 63
M  V30 68 1 35 64
M  V30 69 1 36 65
M  V30 70 1 37 66
M  V30 71 1 38 67
M  V30 72 1 39 68
M  V30 END BOND
M  V30 END CTAB
M  END
>  <Dataset>  (521) 
ChEMBL_Kinases

>  <Ligand_Instance>  (521) 
nan

>  <PDB_ID>  (521) 
nan

>  <Standardized_SMILES>  (521) 
CN(C)C(=O)c1c(CNC(=O)c2ccc(N3CCOCC3)cc2)c(=O)c2ccc(Cl)cc2n1-c1ccccc1

>  <Name>  (521) 
nan

>  <Pocket>  (521) 
nan

>  <ATP_Site>  (521) 
nan

>  <Peripheral>  (521) 
nan

>  <Num_H_Atoms_ProtBoundConf>  (521) 
nan

>  <Num_Resolved_Atoms>  (521) 
nan

>  <Num_Not_Resolved_Atoms>  (521) 
nan

$$$$
CHEMBL3679485
     RDKit          3D

  0  0  0  0  0  0  0  0  0  0999 V3000
M  V30 BEGIN CTAB
M  V30 COUNTS 59 63 0 0 0
M  V30 BEGIN ATOM
M  V30 1 O -1.912106 -1.503713 2.531404 0
M  V30 2 C -0.848359 -2.039222 2.133112 0
M  V30 3 N 0.275120 -1.641144 2.869650 0
M  V30 4 C 0.747686 -0.828229 3.954545 0
M  V30 5 C 0.431147 0.592669 3.675257 0
M  V30 6 C 1.424098 1.348281 3.040018 0
M  V30 7 N 1.295945 2.619816 2.682280 0
M  V30 8 C 2.309319 3.377218 2.034633 0
M  V30 9 C 3.041229 4.445215 2.492919 0
M  V30 10 C 3.989181 5.028232 1.657972 0
M  V30 11 C 4.193305 4.540165 0.382835 0
M  V30 12 C 3.471057 3.474349 -0.090755 0
M  V30 13 C 2.525945 2.892871 0.741412 0
M  V30 14 C 0.161770 3.302717 2.911711 0
M  V30 15 C -0.072958 4.618622 2.582045 0
M  V30 16 C -1.251715 5.285585 2.834745 0
M  V30 17 Cl -1.467383 6.962113 2.382257 0
M  V30 18 C -2.243291 4.548763 3.463531 0
M  V30 19 C -2.092766 3.227934 3.828175 0
M  V30 20 C -0.875554 2.641954 3.534849 0
M  V30 21 C -0.713278 1.324469 3.894287 0
M  V30 22 O -1.647264 0.720644 4.463651 0
M  V30 23 C -0.914330 -2.948459 1.023676 0
M  V30 24 C -2.149155 -3.061902 0.429920 0
M  V30 25 C -2.273342 -3.935615 -0.656676 0
M  V30 26 C -1.224240 -4.673203 -1.145116 0
M  V30 27 N -1.274770 -5.568777 -2.245037 0
M  V30 28 C -0.179189 -6.404227 -2.658935 0
M  V30 29 C 0.304251 -6.022536 -4.062398 0
M  V30 30 C -0.877556 -6.177985 -4.965583 0
M  V30 31 C -1.965083 -5.244337 -4.487593 0
M  V30 32 C -2.410580 -5.779982 -3.120901 0
M  V30 33 N -0.040696 -4.525700 -0.529356 0
M  V30 34 C 0.128640 -3.700165 0.516334 0
M  V30 35 H 1.089769 -2.172200 2.420893 0
M  V30 36 H 1.832579 -0.920710 4.065684 0
M  V30 37 H 0.220068 -1.123306 4.907867 0
M  V30 38 H 2.408554 0.939548 2.782526 0
M  V30 39 H 2.776180 4.714847 3.500189 0
M  V30 40 H 4.516589 5.860337 2.099719 0
M  V30 41 H 4.958876 5.099998 -0.134565 0
M  V30 42 H 3.712575 3.182653 -1.090765 0
M  V30 43 H 2.012360 2.056473 0.265065 0
M  V30 44 H 0.715571 5.154502 2.097014 0
M  V30 45 H -3.180959 5.059215 3.671208 0
M  V30 46 H -2.901412 2.690205 4.321263 0
M  V30 47 H -3.036788 -2.541191 0.719332 0
M  V30 48 H -3.229861 -4.040870 -1.138338 0
M  V30 49 H 0.667231 -6.353087 -1.945948 0
M  V30 50 H -0.515179 -7.476832 -2.769690 0
M  V30 51 H 1.082820 -6.735648 -4.342079 0
M  V30 52 H 0.725985 -5.000581 -4.044734 0
M  V30 53 H -1.250963 -7.211693 -4.854522 0
M  V30 54 H -0.638192 -6.030395 -6.036209 0
M  V30 55 H -1.521764 -4.219213 -4.339385 0
M  V30 56 H -2.801129 -5.129524 -5.188167 0
M  V30 57 H -3.323911 -5.249461 -2.774071 0
M  V30 58 H -2.607387 -6.860631 -3.271272 0
M  V30 59 H 1.092179 -3.603790 0.989666 0
M  V30 END ATOM
M  V30 BEGIN BOND
M  V30 1 2 1 2
M  V30 2 1 2 3
M  V30 3 1 3 4
M  V30 4 1 4 5
M  V30 5 2 5 6
M  V30 6 1 6 7
M  V30 7 1 7 8
M  V30 8 2 8 9
M  V30 9 1 9 10
M  V30 10 2 10 11
M  V30 11 1 11 12
M  V30 12 2 12 13
M  V30 13 1 7 14
M  V30 14 2 14 15
M  V30 15 1 15 16
M  V30 16 1 16 17
M  V30 17 2 16 18
M  V30 18 1 18 19
M  V30 19 2 19 20
M  V30 20 1 20 21
M  V30 21 2 21 22
M  V30 22 1 2 23
M  V30 23 2 23 24
M  V30 24 1 24 25
M  V30 25 2 25 26
M  V30 26 1 26 27
M  V30 27 1 27 28
M  V30 28 1 28 29
M  V30 29 1 29 30
M  V30 30 1 30 31
M  V30 31 1 31 32
M  V30 32 1 26 33
M  V30 33 2 33 34
M  V30 34 1 21 5
M  V30 35 1 34 23
M  V30 36 1 13 8
M  V30 37 1 20 14
M  V30 38 1 32 27
M  V30 39 1 3 35
M  V30 40 1 4 36
M  V30 41 1 4 37
M  V30 42 1 6 38
M  V30 43 1 9 39
M  V30 44 1 10 40
M  V30 45 1 11 41
M  V30 46 1 12 42
M  V30 47 1 13 43
M  V30 48 1 15 44
M  V30 49 1 18 45
M  V30 50 1 19 46
M  V30 51 1 24 47
M  V30 52 1 25 48
M  V30 53 1 28 49
M  V30 54 1 28 50
M  V30 55 1 29 51
M  V30 56 1 29 52
M  V30 57 1 30 53
M  V30 58 1 30 54
M  V30 59 1 31 55
M  V30 60 1 31 56
M  V30 61 1 32 57
M  V30 62 1 32 58
M  V30 63 1 34 59
M  V30 END BOND
M  V30 END CTAB
M  END
>  <Dataset>  (522) 
ChEMBL_Kinases

>  <Ligand_Instance>  (522) 
nan

>  <PDB_ID>  (522) 
nan

>  <Standardized_SMILES>  (522) 
O=C(NCc1cn(-c2ccccc2)c2cc(Cl)ccc2c1=O)c1ccc(N2CCCCC2)nc1

>  <Name>  (522) 
nan

>  <Pocket>  (522) 
nan

>  <ATP_Site>  (522) 
nan

>  <Peripheral>  (522) 
nan

>  <Num_H_Atoms_ProtBoundConf>  (522) 
nan

>  <Num_Resolved_Atoms>  (522) 
nan

>  <Num_Not_Resolved_Atoms>  (522) 
nan

$$$$
CHEMBL3679484
     RDKit          3D

  0  0  0  0  0  0  0  0  0  0999 V3000
M  V30 BEGIN CTAB
M  V30 COUNTS 60 63 0 0 0
M  V30 BEGIN ATOM
M  V30 1 O 0.744874 -3.900092 1.924189 0
M  V30 2 C 0.249437 -3.044951 1.142595 0
M  V30 3 N 0.229414 -1.686079 1.543297 0
M  V30 4 C 0.775405 -1.287799 2.848894 0
M  V30 5 C 0.634117 0.185142 3.020243 0
M  V30 6 C 1.625235 1.143680 2.911577 0
M  V30 7 N 1.318583 2.438372 3.098530 0
M  V30 8 C 2.380491 3.389610 2.974454 0
M  V30 9 C 3.010039 3.674840 1.760599 0
M  V30 10 C 4.022846 4.614357 1.771968 0
M  V30 11 C 4.438126 5.275962 2.905380 0
M  V30 12 C 3.771255 4.944110 4.068925 0
M  V30 13 C 2.752269 4.019288 4.140705 0
M  V30 14 C 0.078852 2.855686 3.390068 0
M  V30 15 C -0.220077 4.187980 3.578890 0
M  V30 16 C -1.488922 4.641508 3.879768 0
M  V30 17 Cl -1.829220 6.348267 4.112265 0
M  V30 18 C -2.506340 3.723422 3.997663 0
M  V30 19 C -2.242252 2.380277 3.814855 0
M  V30 20 C -0.965470 1.945601 3.514117 0
M  V30 21 C -0.663465 0.606513 3.323937 0
M  V30 22 O -1.619380 -0.193743 3.440663 0
M  V30 23 C -0.279026 -3.508505 -0.140456 0
M  V30 24 C -0.145941 -4.856416 -0.409095 0
M  V30 25 C -0.628415 -5.371418 -1.610998 0
M  V30 26 C -1.228247 -4.499356 -2.495525 0
M  V30 27 N -1.795616 -4.748998 -3.779766 0
M  V30 28 C -3.120534 -5.172353 -4.192782 0
M  V30 29 C -4.039715 -5.411673 -2.988946 0
M  V30 30 O -3.470691 -6.422430 -2.179956 0
M  V30 31 C -1.009124 -4.576306 -4.982773 0
M  V30 32 C 0.400329 -4.127260 -4.681355 0
M  V30 33 O 1.074245 -5.055992 -3.880804 0
M  V30 34 N -1.347634 -3.185227 -2.211901 0
M  V30 35 C -0.883409 -2.652646 -1.041068 0
M  V30 36 H -0.167678 -0.956561 0.927019 0
M  V30 37 H 0.186856 -1.786992 3.647900 0
M  V30 38 H 1.844749 -1.527046 2.880472 0
M  V30 39 H 2.603933 0.749634 2.674763 0
M  V30 40 H 2.671338 3.145570 0.877138 0
M  V30 41 H 4.516072 4.837864 0.820356 0
M  V30 42 H 5.235998 6.011155 2.895735 0
M  V30 43 H 4.109876 5.475983 4.964690 0
M  V30 44 H 2.291840 3.829267 5.103970 0
M  V30 45 H 0.542601 4.939573 3.496297 0
M  V30 46 H -3.520824 4.063875 4.236549 0
M  V30 47 H -3.047225 1.677182 3.910598 0
M  V30 48 H 0.306604 -5.586017 0.230522 0
M  V30 49 H -0.607746 -6.388312 -1.978391 0
M  V30 50 H -3.623848 -4.322584 -4.742195 0
M  V30 51 H -3.133939 -6.021618 -4.879363 0
M  V30 52 H -4.178421 -4.497811 -2.403929 0
M  V30 53 H -5.009597 -5.745780 -3.414315 0
M  V30 54 H -3.074990 -7.074844 -2.815308 0
M  V30 55 H -0.960570 -5.504729 -5.575280 0
M  V30 56 H -1.479399 -3.786241 -5.605075 0
M  V30 57 H 0.440561 -3.101499 -4.287627 0
M  V30 58 H 0.953112 -4.130859 -5.647565 0
M  V30 59 H 2.016949 -4.726721 -3.804092 0
M  V30 60 H -0.981618 -1.590825 -0.816155 0
M  V30 END ATOM
M  V30 BEGIN BOND
M  V30 1 2 1 2
M  V30 2 1 2 3
M  V30 3 1 3 4
M  V30 4 1 4 5
M  V30 5 2 5 6
M  V30 6 1 6 7
M  V30 7 1 7 8
M  V30 8 2 8 9
M  V30 9 1 9 10
M  V30 10 2 10 11
M  V30 11 1 11 12
M  V30 12 2 12 13
M  V30 13 1 7 14
M  V30 14 2 14 15
M  V30 15 1 15 16
M  V30 16 1 16 17
M  V30 17 2 16 18
M  V30 18 1 18 19
M  V30 19 2 19 20
M  V30 20 1 20 21
M  V30 21 2 21 22
M  V30 22 1 2 23
M  V30 23 2 23 24
M  V30 24 1 24 25
M  V30 25 2 25 26
M  V30 26 1 26 27
M  V30 27 1 27 28
M  V30 28 1 28 29
M  V30 29 1 29 30
M  V30 30 1 27 31
M  V30 31 1 31 32
M  V30 32 1 32 33
M  V30 33 1 26 34
M  V30 34 2 34 35
M  V30 35 1 21 5
M  V30 36 1 35 23
M  V30 37 1 13 8
M  V30 38 1 20 14
M  V30 39 1 3 36
M  V30 40 1 4 37
M  V30 41 1 4 38
M  V30 42 1 6 39
M  V30 43 1 9 40
M  V30 44 1 10 41
M  V30 45 1 11 42
M  V30 46 1 12 43
M  V30 47 1 13 44
M  V30 48 1 15 45
M  V30 49 1 18 46
M  V30 50 1 19 47
M  V30 51 1 24 48
M  V30 52 1 25 49
M  V30 53 1 28 50
M  V30 54 1 28 51
M  V30 55 1 29 52
M  V30 56 1 29 53
M  V30 57 1 30 54
M  V30 58 1 31 55
M  V30 59 1 31 56
M  V30 60 1 32 57
M  V30 61 1 32 58
M  V30 62 1 33 59
M  V30 63 1 35 60
M  V30 END BOND
M  V30 END CTAB
M  END
>  <Dataset>  (523) 
ChEMBL_Kinases

>  <Ligand_Instance>  (523) 
nan

>  <PDB_ID>  (523) 
nan

>  <Standardized_SMILES>  (523) 
O=C(NCc1cn(-c2ccccc2)c2cc(Cl)ccc2c1=O)c1ccc(N(CCO)CCO)nc1

>  <Name>  (523) 
nan

>  <Pocket>  (523) 
nan

>  <ATP_Site>  (523) 
nan

>  <Peripheral>  (523) 
nan

>  <Num_H_Atoms_ProtBoundConf>  (523) 
nan

>  <Num_Resolved_Atoms>  (523) 
nan

>  <Num_Not_Resolved_Atoms>  (523) 
nan

$$$$
CHEMBL3679483
     RDKit          3D

  0  0  0  0  0  0  0  0  0  0999 V3000
M  V30 BEGIN CTAB
M  V30 COUNTS 66 70 0 0 0
M  V30 BEGIN ATOM
M  V30 1 O 1.834571 -3.277373 2.478812 0
M  V30 2 C 1.288593 -2.359054 1.782001 0
M  V30 3 N 1.240970 -1.031337 2.240120 0
M  V30 4 C 1.822885 -0.667090 3.540367 0
M  V30 5 C 1.615509 0.791184 3.740867 0
M  V30 6 C 2.528878 1.817739 3.619906 0
M  V30 7 N 2.140036 3.085829 3.844638 0
M  V30 8 C 3.108375 4.098183 3.706347 0
M  V30 9 C 3.799604 4.686110 4.757775 0
M  V30 10 C 4.744374 5.682333 4.558577 0
M  V30 11 C 4.950121 6.047305 3.258576 0
M  V30 12 C 4.317753 5.526613 2.150153 0
M  V30 13 C 3.389964 4.539700 2.418814 0
M  V30 14 C 0.869513 3.387825 4.188610 0
M  V30 15 C 0.495847 4.698200 4.413983 0
M  V30 16 C -0.795248 5.020787 4.765244 0
M  V30 17 Cl -1.280342 6.695086 5.054384 0
M  V30 18 C -1.766463 4.024028 4.903588 0
M  V30 19 C -1.416137 2.707213 4.683271 0
M  V30 20 C -0.101051 2.391518 4.326762 0
M  V30 21 C 0.296657 1.081154 4.095605 0
M  V30 22 O -0.635552 0.226382 4.238701 0
M  V30 23 C 0.736949 -2.802769 0.507659 0
M  V30 24 C 0.822514 -4.131900 0.153587 0
M  V30 25 C 0.291731 -4.554619 -1.071669 0
M  V30 26 C -0.314056 -3.661931 -1.927225 0
M  V30 27 N -0.864444 -4.041099 -3.170740 0
M  V30 28 C -0.881007 -5.407729 -3.649792 0
M  V30 29 C -1.806140 -5.544269 -4.828942 0
M  V30 30 C -3.140367 -4.852418 -4.629948 0
M  V30 31 C -3.996288 -5.610884 -3.655914 0
M  V30 32 C -5.328952 -4.920818 -3.457881 0
M  V30 33 O -6.020428 -4.827309 -4.653455 0
M  V30 34 C -2.941537 -3.417523 -4.246714 0
M  V30 35 C -1.458426 -3.069576 -4.065929 0
M  V30 36 N -0.389080 -2.355882 -1.561238 0
M  V30 37 C 0.122168 -1.943465 -0.379051 0
M  V30 38 H 0.785180 -0.310141 1.640560 0
M  V30 39 H 2.900877 -0.909660 3.473873 0
M  V30 40 H 1.375290 -1.249760 4.360566 0
M  V30 41 H 3.515410 1.481303 3.341957 0
M  V30 42 H 3.552910 4.316303 5.744037 0
M  V30 43 H 5.272255 6.127552 5.390856 0
M  V30 44 H 5.687983 6.831489 3.059470 0
M  V30 45 H 4.512125 5.845486 1.138894 0
M  V30 46 H 2.865902 4.098646 1.578753 0
M  V30 47 H 1.199007 5.523375 4.324793 0
M  V30 48 H -2.766822 4.332459 5.181278 0
M  V30 49 H -2.149328 1.924005 4.784762 0
M  V30 50 H 1.286809 -4.898704 0.776988 0
M  V30 51 H 0.364079 -5.585236 -1.334337 0
M  V30 52 H 0.144195 -5.666542 -4.046579 0
M  V30 53 H -1.157533 -6.112343 -2.835156 0
M  V30 54 H -1.956439 -6.630646 -4.984019 0
M  V30 55 H -1.285316 -5.107199 -5.710321 0
M  V30 56 H -3.654956 -4.953157 -5.627529 0
M  V30 57 H -4.231731 -6.604963 -4.119939 0
M  V30 58 H -3.513072 -5.830542 -2.691579 0
M  V30 59 H -5.943408 -5.538184 -2.750842 0
M  V30 60 H -5.265068 -3.932223 -2.998439 0
M  V30 61 H -6.216235 -3.874886 -4.824095 0
M  V30 62 H -3.404909 -3.152935 -3.264687 0
M  V30 63 H -3.300139 -2.764387 -5.078936 0
M  V30 64 H -0.931185 -2.988317 -5.037382 0
M  V30 65 H -1.438241 -2.076588 -3.550434 0
M  V30 66 H 0.027647 -0.898651 -0.155123 0
M  V30 END ATOM
M  V30 BEGIN BOND
M  V30 1 2 1 2
M  V30 2 1 2 3
M  V30 3 1 3 4
M  V30 4 1 4 5
M  V30 5 2 5 6
M  V30 6 1 6 7
M  V30 7 1 7 8
M  V30 8 2 8 9
M  V30 9 1 9 10
M  V30 10 2 10 11
M  V30 11 1 11 12
M  V30 12 2 12 13
M  V30 13 1 7 14
M  V30 14 2 14 15
M  V30 15 1 15 16
M  V30 16 1 16 17
M  V30 17 2 16 18
M  V30 18 1 18 19
M  V30 19 2 19 20
M  V30 20 1 20 21
M  V30 21 2 21 22
M  V30 22 1 2 23
M  V30 23 2 23 24
M  V30 24 1 24 25
M  V30 25 2 25 26
M  V30 26 1 26 27
M  V30 27 1 27 28
M  V30 28 1 28 29
M  V30 29 1 29 30
M  V30 30 1 30 31
M  V30 31 1 31 32
M  V30 32 1 32 33
M  V30 33 1 30 34
M  V30 34 1 34 35
M  V30 35 1 26 36
M  V30 36 2 36 37
M  V30 37 1 21 5
M  V30 38 1 37 23
M  V30 39 1 13 8
M  V30 40 1 20 14
M  V30 41 1 35 27
M  V30 42 1 3 38
M  V30 43 1 4 39
M  V30 44 1 4 40
M  V30 45 1 6 41
M  V30 46 1 9 42
M  V30 47 1 10 43
M  V30 48 1 11 44
M  V30 49 1 12 45
M  V30 50 1 13 46
M  V30 51 1 15 47
M  V30 52 1 18 48
M  V30 53 1 19 49
M  V30 54 1 24 50
M  V30 55 1 25 51
M  V30 56 1 28 52
M  V30 57 1 28 53
M  V30 58 1 29 54
M  V30 59 1 29 55
M  V30 60 1 30 56
M  V30 61 1 31 57
M  V30 62 1 31 58
M  V30 63 1 32 59
M  V30 64 1 32 60
M  V30 65 1 33 61
M  V30 66 1 34 62
M  V30 67 1 34 63
M  V30 68 1 35 64
M  V30 69 1 35 65
M  V30 70 1 37 66
M  V30 END BOND
M  V30 END CTAB
M  END
>  <Dataset>  (524) 
ChEMBL_Kinases

>  <Ligand_Instance>  (524) 
nan

>  <PDB_ID>  (524) 
nan

>  <Standardized_SMILES>  (524) 
O=C(NCc1cn(-c2ccccc2)c2cc(Cl)ccc2c1=O)c1ccc(N2CCC(CCO)CC2)nc1

>  <Name>  (524) 
nan

>  <Pocket>  (524) 
nan

>  <ATP_Site>  (524) 
nan

>  <Peripheral>  (524) 
nan

>  <Num_H_Atoms_ProtBoundConf>  (524) 
nan

>  <Num_Resolved_Atoms>  (524) 
nan

>  <Num_Not_Resolved_Atoms>  (524) 
nan

$$$$
CHEMBL3679482
     RDKit          3D

  0  0  0  0  0  0  0  0  0  0999 V3000
M  V30 BEGIN CTAB
M  V30 COUNTS 74 79 0 0 0
M  V30 BEGIN ATOM
M  V30 1 C 5.941106 -0.930670 4.047607 0
M  V30 2 C 6.645871 -0.782820 2.721148 0
M  V30 3 C 6.935308 -2.176004 2.209969 0
M  V30 4 C 7.959120 -0.067102 2.919876 0
M  V30 5 O 5.878587 -0.042016 1.780566 0
M  V30 6 C 5.517194 1.254715 2.076939 0
M  V30 7 O 5.956246 1.587735 3.206697 0
M  V30 8 N 4.740564 2.004156 1.124340 0
M  V30 9 C 4.185276 1.716565 -0.209236 0
M  V30 10 C 3.284036 2.917663 -0.365763 0
M  V30 11 C 4.202622 4.005099 0.157070 0
M  V30 12 C 4.393770 3.358633 1.517098 0
M  V30 13 C 2.946326 3.312041 1.953389 0
M  V30 14 N 2.321998 2.812046 0.735704 0
M  V30 15 C 1.011764 2.282701 0.528097 0
M  V30 16 C 0.531142 1.882692 -0.709008 0
M  V30 17 C -0.763877 1.370744 -0.830956 0
M  V30 18 C -1.602880 1.248209 0.277879 0
M  V30 19 C -2.927449 0.706823 0.050377 0
M  V30 20 O -3.238144 0.412541 -1.133661 0
M  V30 21 N -3.880775 0.493711 1.081901 0
M  V30 22 C -5.212967 -0.045668 0.883098 0
M  V30 23 C -5.091555 -1.414127 0.282507 0
M  V30 24 C -5.353315 -1.643096 -1.073775 0
M  V30 25 N -5.236631 -2.899970 -1.595434 0
M  V30 26 C -5.536187 -2.967577 -2.983891 0
M  V30 27 C -6.836290 -3.291081 -3.309460 0
M  V30 28 C -7.306914 -3.400917 -4.598866 0
M  V30 29 C -6.412817 -3.170507 -5.639664 0
M  V30 30 C -5.084386 -2.839879 -5.348733 0
M  V30 31 C -4.664547 -2.742887 -4.035925 0
M  V30 32 C -4.863573 -3.934679 -0.789407 0
M  V30 33 C -4.777013 -5.158162 -1.413888 0
M  V30 34 C -4.400807 -6.251359 -0.639111 0
M  V30 35 Cl -4.242691 -7.869300 -1.272734 0
M  V30 36 C -4.139874 -6.045679 0.695138 0
M  V30 37 C -4.227683 -4.819306 1.315481 0
M  V30 38 C -4.606149 -3.718236 0.537133 0
M  V30 39 C -4.708856 -2.454750 1.126182 0
M  V30 40 O -4.463547 -2.299270 2.349051 0
M  V30 41 C -1.068966 1.658055 1.456564 0
M  V30 42 N 0.172135 2.152832 1.595577 0
M  V30 43 H 6.303710 -1.868068 4.519743 0
M  V30 44 H 6.207663 -0.128910 4.767997 0
M  V30 45 H 4.845584 -1.025961 3.918519 0
M  V30 46 H 6.930799 -2.910666 3.068183 0
M  V30 47 H 6.151420 -2.539653 1.510480 0
M  V30 48 H 7.938802 -2.267482 1.745954 0
M  V30 49 H 8.808332 -0.763861 2.785108 0
M  V30 50 H 8.134930 0.745018 2.173072 0
M  V30 51 H 7.986216 0.379510 3.947991 0
M  V30 52 H 4.936413 1.738250 -0.999610 0
M  V30 53 H 3.539295 0.812894 -0.202646 0
M  V30 54 H 2.876116 3.080126 -1.333941 0
M  V30 55 H 3.696673 4.986463 0.210046 0
M  V30 56 H 5.141546 4.001665 -0.429940 0
M  V30 57 H 5.071928 3.865265 2.167877 0
M  V30 58 H 2.639290 4.381731 2.134944 0
M  V30 59 H 2.807668 2.672179 2.825109 0
M  V30 60 H 1.179278 1.976635 -1.572875 0
M  V30 61 H -1.049071 1.084064 -1.843442 0
M  V30 62 H -3.547974 0.764227 2.054686 0
M  V30 63 H -5.716687 -0.097583 1.865080 0
M  V30 64 H -5.779291 0.622963 0.180650 0
M  V30 65 H -5.650041 -0.779388 -1.677992 0
M  V30 66 H -7.585279 -3.483436 -2.536809 0
M  V30 67 H -8.342430 -3.658567 -4.817268 0
M  V30 68 H -6.714136 -3.239590 -6.681330 0
M  V30 69 H -4.356520 -2.652918 -6.141019 0
M  V30 70 H -3.650885 -2.491725 -3.752921 0
M  V30 71 H -4.983086 -5.308518 -2.455586 0
M  V30 72 H -3.838071 -6.848291 1.378781 0
M  V30 73 H -4.022162 -4.647887 2.370644 0
M  V30 74 H -1.698988 1.574412 2.332102 0
M  V30 END ATOM
M  V30 BEGIN BOND
M  V30 1 1 1 2
M  V30 2 1 2 3
M  V30 3 1 2 4
M  V30 4 1 2 5
M  V30 5 1 5 6
M  V30 6 2 6 7
M  V30 7 1 6 8
M  V30 8 1 8 9
M  V30 9 1 9 10
M  V30 10 1 10 11
M  V30 11 1 11 12
M  V30 12 1 12 13
M  V30 13 1 13 14
M  V30 14 1 14 15
M  V30 15 2 15 16
M  V30 16 1 16 17
M  V30 17 2 17 18
M  V30 18 1 18 19
M  V30 19 2 19 20
M  V30 20 1 19 21
M  V30 21 1 21 22
M  V30 22 1 22 23
M  V30 23 2 23 24
M  V30 24 1 24 25
M  V30 25 1 25 26
M  V30 26 2 26 27
M  V30 27 1 27 28
M  V30 28 2 28 29
M  V30 29 1 29 30
M  V30 30 2 30 31
M  V30 31 1 25 32
M  V30 32 2 32 33
M  V30 33 1 33 34
M  V30 34 1 34 35
M  V30 35 2 34 36
M  V30 36 1 36 37
M  V30 37 2 37 38
M  V30 38 1 38 39
M  V30 39 2 39 40
M  V30 40 1 18 41
M  V30 41 2 41 42
M  V30 42 1 12 8
M  V30 43 1 42 15
M  V30 44 1 14 10
M  V30 45 1 39 23
M  V30 46 1 31 26
M  V30 47 1 38 32
M  V30 48 1 1 43
M  V30 49 1 1 44
M  V30 50 1 1 45
M  V30 51 1 3 46
M  V30 52 1 3 47
M  V30 53 1 3 48
M  V30 54 1 4 49
M  V30 55 1 4 50
M  V30 56 1 4 51
M  V30 57 1 9 52
M  V30 58 1 9 53
M  V30 59 1 10 54
M  V30 60 1 11 55
M  V30 61 1 11 56
M  V30 62 1 12 57
M  V30 63 1 13 58
M  V30 64 1 13 59
M  V30 65 1 16 60
M  V30 66 1 17 61
M  V30 67 1 21 62
M  V30 68 1 22 63
M  V30 69 1 22 64
M  V30 70 1 24 65
M  V30 71 1 27 66
M  V30 72 1 28 67
M  V30 73 1 29 68
M  V30 74 1 30 69
M  V30 75 1 31 70
M  V30 76 1 33 71
M  V30 77 1 36 72
M  V30 78 1 37 73
M  V30 79 1 41 74
M  V30 END BOND
M  V30 END CTAB
M  END
>  <Dataset>  (525) 
ChEMBL_Kinases

>  <Ligand_Instance>  (525) 
nan

>  <PDB_ID>  (525) 
nan

>  <Standardized_SMILES>  (525) 
CC(C)(C)OC(=O)N1CC2CC1CN2c1ccc(C(=O)NCc2cn(-c3ccccc3)c3cc(Cl)ccc3c2=O)cn1

>  <Name>  (525) 
nan

>  <Pocket>  (525) 
nan

>  <ATP_Site>  (525) 
nan

>  <Peripheral>  (525) 
nan

>  <Num_H_Atoms_ProtBoundConf>  (525) 
nan

>  <Num_Resolved_Atoms>  (525) 
nan

>  <Num_Not_Resolved_Atoms>  (525) 
nan

$$$$
CHEMBL3679481
     RDKit          3D

  0  0  0  0  0  0  0  0  0  0999 V3000
M  V30 BEGIN CTAB
M  V30 COUNTS 44 47 0 0 0
M  V30 BEGIN ATOM
M  V30 1 O -0.847282 -1.628959 -1.005622 0
M  V30 2 C -1.329728 -2.552724 -0.312783 0
M  V30 3 N -2.182564 -2.144494 0.738346 0
M  V30 4 C -2.516871 -0.781532 1.048184 0
M  V30 5 C -1.275342 -0.040039 1.386152 0
M  V30 6 C -0.598516 0.854072 0.585224 0
M  V30 7 N 0.523924 1.478687 0.980849 0
M  V30 8 C 1.177228 2.387855 0.102182 0
M  V30 9 C 2.159784 1.697152 -0.617439 0
M  V30 10 C 2.960175 2.352834 -1.560584 0
M  V30 11 C 2.750722 3.700294 -1.758651 0
M  V30 12 C 1.781013 4.377875 -1.047229 0
M  V30 13 C 0.996497 3.724720 -0.119759 0
M  V30 14 C 1.056508 1.255670 2.212953 0
M  V30 15 C 2.221292 1.909225 2.616216 0
M  V30 16 C 2.711860 1.634718 3.893190 0
M  V30 17 Cl 4.165778 2.424940 4.447730 0
M  V30 18 C 2.099017 0.753868 4.762815 0
M  V30 19 C 0.951395 0.137226 4.310068 0
M  V30 20 C 0.405286 0.356637 3.062020 0
M  V30 21 C -0.757234 -0.295073 2.660911 0
M  V30 22 O -1.263697 -1.090650 3.513999 0
M  V30 23 C -1.007885 -3.941868 -0.605494 0
M  V30 24 C -1.451832 -5.060226 0.099061 0
M  V30 25 C -1.073714 -6.316417 -0.287561 0
M  V30 26 C -0.255564 -6.544628 -1.365044 0
M  V30 27 Cl 0.250673 -8.136710 -1.892188 0
M  V30 28 N 0.169665 -5.470627 -2.039994 0
M  V30 29 C -0.188712 -4.228135 -1.678474 0
M  V30 30 H -2.597690 -2.921010 1.332460 0
M  V30 31 H -3.000040 -0.326708 0.151549 0
M  V30 32 H -3.256134 -0.733655 1.854590 0
M  V30 33 H -1.026434 1.031532 -0.392777 0
M  V30 34 H 2.422582 0.631738 -0.551804 0
M  V30 35 H 3.728672 1.865971 -2.138940 0
M  V30 36 H 3.352432 4.252022 -2.485339 0
M  V30 37 H 1.577929 5.433618 -1.167302 0
M  V30 38 H 0.212679 4.125794 0.498909 0
M  V30 39 H 2.710134 2.601301 1.941913 0
M  V30 40 H 2.485115 0.544747 5.751330 0
M  V30 41 H 0.482940 -0.556399 5.014414 0
M  V30 42 H -2.095609 -4.856083 0.944812 0
M  V30 43 H -1.419706 -7.181856 0.261009 0
M  V30 44 H 0.189136 -3.395522 -2.266317 0
M  V30 END ATOM
M  V30 BEGIN BOND
M  V30 1 2 1 2
M  V30 2 1 2 3
M  V30 3 1 3 4
M  V30 4 1 4 5
M  V30 5 2 5 6
M  V30 6 1 6 7
M  V30 7 1 7 8
M  V30 8 2 8 9
M  V30 9 1 9 10
M  V30 10 2 10 11
M  V30 11 1 11 12
M  V30 12 2 12 13
M  V30 13 1 7 14
M  V30 14 2 14 15
M  V30 15 1 15 16
M  V30 16 1 16 17
M  V30 17 2 16 18
M  V30 18 1 18 19
M  V30 19 2 19 20
M  V30 20 1 20 21
M  V30 21 2 21 22
M  V30 22 1 2 23
M  V30 23 2 23 24
M  V30 24 1 24 25
M  V30 25 2 25 26
M  V30 26 1 26 27
M  V30 27 1 26 28
M  V30 28 2 28 29
M  V30 29 1 21 5
M  V30 30 1 29 23
M  V30 31 1 13 8
M  V30 32 1 20 14
M  V30 33 1 3 30
M  V30 34 1 4 31
M  V30 35 1 4 32
M  V30 36 1 6 33
M  V30 37 1 9 34
M  V30 38 1 10 35
M  V30 39 1 11 36
M  V30 40 1 12 37
M  V30 41 1 13 38
M  V30 42 1 15 39
M  V30 43 1 18 40
M  V30 44 1 19 41
M  V30 45 1 24 42
M  V30 46 1 25 43
M  V30 47 1 29 44
M  V30 END BOND
M  V30 END CTAB
M  END
>  <Dataset>  (526) 
ChEMBL_Kinases

>  <Ligand_Instance>  (526) 
nan

>  <PDB_ID>  (526) 
nan

>  <Standardized_SMILES>  (526) 
O=C(NCc1cn(-c2ccccc2)c2cc(Cl)ccc2c1=O)c1ccc(Cl)nc1

>  <Name>  (526) 
nan

>  <Pocket>  (526) 
nan

>  <ATP_Site>  (526) 
nan

>  <Peripheral>  (526) 
nan

>  <Num_H_Atoms_ProtBoundConf>  (526) 
nan

>  <Num_Resolved_Atoms>  (526) 
nan

>  <Num_Not_Resolved_Atoms>  (526) 
nan

$$$$
CHEMBL3679480
     RDKit          3D

  0  0  0  0  0  0  0  0  0  0999 V3000
M  V30 BEGIN CTAB
M  V30 COUNTS 45 48 0 0 0
M  V30 BEGIN ATOM
M  V30 1 O -2.621573 -2.190769 3.464836 0
M  V30 2 C -2.427530 -2.603702 2.270979 0
M  V30 3 N -1.287566 -1.911881 1.781994 0
M  V30 4 C -0.593824 -0.950415 2.617286 0
M  V30 5 C 0.569733 -0.359092 1.868315 0
M  V30 6 C 0.544269 0.912382 1.332839 0
M  V30 7 N 1.663745 1.308137 0.688010 0
M  V30 8 C 1.671519 2.606432 0.126342 0
M  V30 9 C 2.353927 3.669171 0.682957 0
M  V30 10 C 2.345800 4.940540 0.108520 0
M  V30 11 C 1.607790 5.096249 -1.070513 0
M  V30 12 C 0.908022 4.036666 -1.654483 0
M  V30 13 C 0.951725 2.795887 -1.040034 0
M  V30 14 C 2.766698 0.557192 0.542834 0
M  V30 15 C 3.872943 1.047585 -0.136990 0
M  V30 16 C 4.968695 0.204776 -0.239876 0
M  V30 17 Cl 6.373849 0.817173 -1.097702 0
M  V30 18 C 5.006443 -1.068939 0.291286 0
M  V30 19 C 3.894175 -1.550083 0.969725 0
M  V30 20 C 2.797289 -0.720901 1.078897 0
M  V30 21 C 1.683575 -1.180420 1.748632 0
M  V30 22 O 1.700548 -2.338086 2.238908 0
M  V30 23 C -3.216318 -3.588760 1.551262 0
M  V30 24 C -4.259401 -4.072659 2.316187 0
M  V30 25 C -5.157662 -5.011674 1.882757 0
M  V30 26 F -6.181026 -5.494459 2.613240 0
M  V30 27 C -5.007811 -5.509773 0.586278 0
M  V30 28 C -3.975616 -5.040689 -0.191119 0
M  V30 29 C -3.093480 -4.096324 0.280700 0
M  V30 30 F -2.072228 -3.594140 -0.415650 0
M  V30 31 H -0.963584 -2.112515 0.812685 0
M  V30 32 H -1.304944 -0.164982 2.932419 0
M  V30 33 H -0.178196 -1.448230 3.516987 0
M  V30 34 H -0.333555 1.518556 1.444274 0
M  V30 35 H 2.915832 3.538641 1.585749 0
M  V30 36 H 2.873636 5.786265 0.528400 0
M  V30 37 H 1.596203 6.087640 -1.526282 0
M  V30 38 H 0.379051 4.296493 -2.566278 0
M  V30 39 H 0.391857 1.999448 -1.529184 0
M  V30 40 H 3.834645 2.038794 -0.546896 0
M  V30 41 H 5.864737 -1.712362 0.203473 0
M  V30 42 H 3.866751 -2.537469 1.405637 0
M  V30 43 H -4.485268 -3.764322 3.341547 0
M  V30 44 H -5.655508 -6.258269 0.126584 0
M  V30 45 H -3.759534 -5.350119 -1.205385 0
M  V30 END ATOM
M  V30 BEGIN BOND
M  V30 1 2 1 2
M  V30 2 1 2 3
M  V30 3 1 3 4
M  V30 4 1 4 5
M  V30 5 2 5 6
M  V30 6 1 6 7
M  V30 7 1 7 8
M  V30 8 2 8 9
M  V30 9 1 9 10
M  V30 10 2 10 11
M  V30 11 1 11 12
M  V30 12 2 12 13
M  V30 13 1 7 14
M  V30 14 2 14 15
M  V30 15 1 15 16
M  V30 16 1 16 17
M  V30 17 2 16 18
M  V30 18 1 18 19
M  V30 19 2 19 20
M  V30 20 1 20 21
M  V30 21 2 21 22
M  V30 22 1 2 23
M  V30 23 2 23 24
M  V30 24 1 24 25
M  V30 25 1 25 26
M  V30 26 2 25 27
M  V30 27 1 27 28
M  V30 28 2 28 29
M  V30 29 1 29 30
M  V30 30 1 21 5
M  V30 31 1 29 23
M  V30 32 1 13 8
M  V30 33 1 20 14
M  V30 34 1 3 31
M  V30 35 1 4 32
M  V30 36 1 4 33
M  V30 37 1 6 34
M  V30 38 1 9 35
M  V30 39 1 10 36
M  V30 40 1 11 37
M  V30 41 1 12 38
M  V30 42 1 13 39
M  V30 43 1 15 40
M  V30 44 1 18 41
M  V30 45 1 19 42
M  V30 46 1 24 43
M  V30 47 1 27 44
M  V30 48 1 28 45
M  V30 END BOND
M  V30 END CTAB
M  END
>  <Dataset>  (527) 
ChEMBL_Kinases

>  <Ligand_Instance>  (527) 
nan

>  <PDB_ID>  (527) 
nan

>  <Standardized_SMILES>  (527) 
O=C(NCc1cn(-c2ccccc2)c2cc(Cl)ccc2c1=O)c1cc(F)ccc1F

>  <Name>  (527) 
nan

>  <Pocket>  (527) 
nan

>  <ATP_Site>  (527) 
nan

>  <Peripheral>  (527) 
nan

>  <Num_H_Atoms_ProtBoundConf>  (527) 
nan

>  <Num_Resolved_Atoms>  (527) 
nan

>  <Num_Not_Resolved_Atoms>  (527) 
nan

$$$$
CHEMBL3679479
     RDKit          3D

  0  0  0  0  0  0  0  0  0  0999 V3000
M  V30 BEGIN CTAB
M  V30 COUNTS 45 48 0 0 0
M  V30 BEGIN ATOM
M  V30 1 O -3.469011 -1.800372 2.699276 0
M  V30 2 C -2.763299 -2.489706 1.887629 0
M  V30 3 N -1.575764 -1.763693 1.615195 0
M  V30 4 C -1.274327 -0.488804 2.177815 0
M  V30 5 C 0.035361 0.042323 1.723236 0
M  V30 6 C 0.192503 1.027796 0.792886 0
M  V30 7 N 1.448816 1.399061 0.487627 0
M  V30 8 C 1.644735 2.423307 -0.478748 0
M  V30 9 C 1.855976 2.229603 -1.824913 0
M  V30 10 C 2.034187 3.311999 -2.665215 0
M  V30 11 C 1.996868 4.600465 -2.130014 0
M  V30 12 C 1.783429 4.790967 -0.770397 0
M  V30 13 C 1.606733 3.704558 0.059226 0
M  V30 14 C 2.552158 0.864224 1.037556 0
M  V30 15 C 3.818478 1.275118 0.694504 0
M  V30 16 C 4.958942 0.709954 1.273885 0
M  V30 17 Cl 6.559365 1.225258 0.844417 0
M  V30 18 C 4.795665 -0.285882 2.213805 0
M  V30 19 C 3.539958 -0.718188 2.577742 0
M  V30 20 C 2.441216 -0.148955 1.995940 0
M  V30 21 C 1.140156 -0.534066 2.312674 0
M  V30 22 O 1.067791 -1.450105 3.180299 0
M  V30 23 C -3.138778 -3.788461 1.354045 0
M  V30 24 C -4.371604 -4.236409 1.814581 0
M  V30 25 C -4.905816 -5.445449 1.425811 0
M  V30 26 C -4.238146 -6.278206 0.552813 0
M  V30 27 C -3.016305 -5.839290 0.093405 0
M  V30 28 F -2.221865 -6.534202 -0.774027 0
M  V30 29 C -2.484650 -4.631499 0.483013 0
M  V30 30 F -1.293359 -4.166978 0.056377 0
M  V30 31 H -0.875400 -2.180420 0.965760 0
M  V30 32 H -1.223379 -0.568898 3.277927 0
M  V30 33 H -2.026630 0.265164 1.942468 0
M  V30 34 H -0.687532 1.463986 0.345655 0
M  V30 35 H 1.871425 1.187637 -2.166552 0
M  V30 36 H 2.198993 3.144300 -3.720224 0
M  V30 37 H 2.142156 5.431935 -2.826915 0
M  V30 38 H 1.764293 5.828385 -0.409130 0
M  V30 39 H 1.449580 3.962170 1.090454 0
M  V30 40 H 3.952194 2.052585 -0.038480 0
M  V30 41 H 5.621126 -0.780065 2.713787 0
M  V30 42 H 3.385732 -1.505397 3.320292 0
M  V30 43 H -5.000597 -3.664372 2.514022 0
M  V30 44 H -5.861663 -5.778594 1.791189 0
M  V30 45 H -4.600880 -7.235791 0.209449 0
M  V30 END ATOM
M  V30 BEGIN BOND
M  V30 1 2 1 2
M  V30 2 1 2 3
M  V30 3 1 3 4
M  V30 4 1 4 5
M  V30 5 2 5 6
M  V30 6 1 6 7
M  V30 7 1 7 8
M  V30 8 2 8 9
M  V30 9 1 9 10
M  V30 10 2 10 11
M  V30 11 1 11 12
M  V30 12 2 12 13
M  V30 13 1 7 14
M  V30 14 2 14 15
M  V30 15 1 15 16
M  V30 16 1 16 17
M  V30 17 2 16 18
M  V30 18 1 18 19
M  V30 19 2 19 20
M  V30 20 1 20 21
M  V30 21 2 21 22
M  V30 22 1 2 23
M  V30 23 2 23 24
M  V30 24 1 24 25
M  V30 25 2 25 26
M  V30 26 1 26 27
M  V30 27 1 27 28
M  V30 28 2 27 29
M  V30 29 1 29 30
M  V30 30 1 21 5
M  V30 31 1 29 23
M  V30 32 1 13 8
M  V30 33 1 20 14
M  V30 34 1 3 31
M  V30 35 1 4 32
M  V30 36 1 4 33
M  V30 37 1 6 34
M  V30 38 1 9 35
M  V30 39 1 10 36
M  V30 40 1 11 37
M  V30 41 1 12 38
M  V30 42 1 13 39
M  V30 43 1 15 40
M  V30 44 1 18 41
M  V30 45 1 19 42
M  V30 46 1 24 43
M  V30 47 1 25 44
M  V30 48 1 26 45
M  V30 END BOND
M  V30 END CTAB
M  END
>  <Dataset>  (528) 
ChEMBL_Kinases

>  <Ligand_Instance>  (528) 
nan

>  <PDB_ID>  (528) 
nan

>  <Standardized_SMILES>  (528) 
O=C(NCc1cn(-c2ccccc2)c2cc(Cl)ccc2c1=O)c1cccc(F)c1F

>  <Name>  (528) 
nan

>  <Pocket>  (528) 
nan

>  <ATP_Site>  (528) 
nan

>  <Peripheral>  (528) 
nan

>  <Num_H_Atoms_ProtBoundConf>  (528) 
nan

>  <Num_Resolved_Atoms>  (528) 
nan

>  <Num_Not_Resolved_Atoms>  (528) 
nan

$$$$
CHEMBL3679478
     RDKit          3D

  0  0  0  0  0  0  0  0  0  0999 V3000
M  V30 BEGIN CTAB
M  V30 COUNTS 45 48 0 0 0
M  V30 BEGIN ATOM
M  V30 1 O -1.419738 -3.204960 2.318527 0
M  V30 2 C -2.191446 -2.555402 1.571877 0
M  V30 3 N -2.171323 -1.174552 1.812667 0
M  V30 4 C -1.572820 -0.153505 2.627885 0
M  V30 5 C -0.107035 -0.067049 2.426208 0
M  V30 6 C 0.264486 0.916479 1.501684 0
M  V30 7 N 1.530041 1.171533 1.125881 0
M  V30 8 C 1.864664 2.181712 0.180474 0
M  V30 9 C 2.468877 3.417196 0.416901 0
M  V30 10 C 2.700386 4.245932 -0.662603 0
M  V30 11 C 2.354301 3.887300 -1.947874 0
M  V30 12 C 1.753217 2.659908 -2.188927 0
M  V30 13 C 1.519823 1.830050 -1.118886 0
M  V30 14 C 2.565934 0.477688 1.627034 0
M  V30 15 C 3.887072 0.680084 1.291299 0
M  V30 16 C 4.893737 -0.099089 1.872605 0
M  V30 17 Cl 6.579453 0.182540 1.424056 0
M  V30 18 C 4.544843 -1.068657 2.782923 0
M  V30 19 C 3.219105 -1.287809 3.134080 0
M  V30 20 C 2.246240 -0.501626 2.542501 0
M  V30 21 C 0.954934 -0.770610 2.934497 0
M  V30 22 O 0.662202 -1.648889 3.761807 0
M  V30 23 C -2.966400 -3.273764 0.605181 0
M  V30 24 C -2.787273 -4.637652 0.579566 0
M  V30 25 C -3.534551 -5.362050 -0.356519 0
M  V30 26 F -3.369566 -6.709197 -0.394559 0
M  V30 27 C -4.427055 -4.804143 -1.243379 0
M  V30 28 C -4.603084 -3.432395 -1.213104 0
M  V30 29 F -5.459003 -2.823052 -2.052129 0
M  V30 30 C -3.855705 -2.708669 -0.276870 0
M  V30 31 H -2.869838 -0.748160 1.112826 0
M  V30 32 H -2.061541 0.809976 2.463127 0
M  V30 33 H -1.710334 -0.487184 3.698372 0
M  V30 34 H -0.457656 1.564147 1.005325 0
M  V30 35 H 2.696365 3.594342 1.455886 0
M  V30 36 H 3.171212 5.179457 -0.379297 0
M  V30 37 H 2.573178 4.600386 -2.737597 0
M  V30 38 H 1.490840 2.404962 -3.220134 0
M  V30 39 H 1.046966 0.893881 -1.407533 0
M  V30 40 H 4.114099 1.457600 0.567442 0
M  V30 41 H 5.346090 -1.660307 3.219621 0
M  V30 42 H 3.049413 -2.072575 3.857507 0
M  V30 43 H -2.117987 -5.194673 1.222095 0
M  V30 44 H -4.970215 -5.432757 -1.940358 0
M  V30 45 H -4.016079 -1.649451 -0.279937 0
M  V30 END ATOM
M  V30 BEGIN BOND
M  V30 1 2 1 2
M  V30 2 1 2 3
M  V30 3 1 3 4
M  V30 4 1 4 5
M  V30 5 2 5 6
M  V30 6 1 6 7
M  V30 7 1 7 8
M  V30 8 2 8 9
M  V30 9 1 9 10
M  V30 10 2 10 11
M  V30 11 1 11 12
M  V30 12 2 12 13
M  V30 13 1 7 14
M  V30 14 2 14 15
M  V30 15 1 15 16
M  V30 16 1 16 17
M  V30 17 2 16 18
M  V30 18 1 18 19
M  V30 19 2 19 20
M  V30 20 1 20 21
M  V30 21 2 21 22
M  V30 22 1 2 23
M  V30 23 2 23 24
M  V30 24 1 24 25
M  V30 25 1 25 26
M  V30 26 2 25 27
M  V30 27 1 27 28
M  V30 28 1 28 29
M  V30 29 2 28 30
M  V30 30 1 21 5
M  V30 31 1 30 23
M  V30 32 1 13 8
M  V30 33 1 20 14
M  V30 34 1 3 31
M  V30 35 1 4 32
M  V30 36 1 4 33
M  V30 37 1 6 34
M  V30 38 1 9 35
M  V30 39 1 10 36
M  V30 40 1 11 37
M  V30 41 1 12 38
M  V30 42 1 13 39
M  V30 43 1 15 40
M  V30 44 1 18 41
M  V30 45 1 19 42
M  V30 46 1 24 43
M  V30 47 1 27 44
M  V30 48 1 30 45
M  V30 END BOND
M  V30 END CTAB
M  END
>  <Dataset>  (529) 
ChEMBL_Kinases

>  <Ligand_Instance>  (529) 
nan

>  <PDB_ID>  (529) 
nan

>  <Standardized_SMILES>  (529) 
O=C(NCc1cn(-c2ccccc2)c2cc(Cl)ccc2c1=O)c1cc(F)cc(F)c1

>  <Name>  (529) 
nan

>  <Pocket>  (529) 
nan

>  <ATP_Site>  (529) 
nan

>  <Peripheral>  (529) 
nan

>  <Num_H_Atoms_ProtBoundConf>  (529) 
nan

>  <Num_Resolved_Atoms>  (529) 
nan

>  <Num_Not_Resolved_Atoms>  (529) 
nan

$$$$
CHEMBL3679477
     RDKit          3D

  0  0  0  0  0  0  0  0  0  0999 V3000
M  V30 BEGIN CTAB
M  V30 COUNTS 53 56 0 0 0
M  V30 BEGIN ATOM
M  V30 1 C 1.099358 0.402295 7.968243 0
M  V30 2 O 0.422534 -0.640019 7.320958 0
M  V30 3 C 0.681882 -0.927266 5.996545 0
M  V30 4 C 1.553461 -0.336482 5.110136 0
M  V30 5 C 1.669666 -0.774240 3.810707 0
M  V30 6 C 0.933003 -1.821022 3.308232 0
M  V30 7 C 1.030788 -2.304876 1.943170 0
M  V30 8 O 0.321225 -3.278595 1.585250 0
M  V30 9 N 1.848195 -1.806934 0.927900 0
M  V30 10 C 2.222908 -1.970482 -0.449603 0
M  V30 11 C 1.039814 -1.722952 -1.307628 0
M  V30 12 C 0.947519 -0.414040 -1.786746 0
M  V30 13 N -0.051616 0.064013 -2.557033 0
M  V30 14 C -0.080261 1.412144 -3.008691 0
M  V30 15 C -1.056973 2.248191 -2.506566 0
M  V30 16 C -1.185560 3.576446 -2.868998 0
M  V30 17 C -0.274571 4.063288 -3.782882 0
M  V30 18 C 0.706086 3.238157 -4.292049 0
M  V30 19 C 0.836428 1.899081 -3.927286 0
M  V30 20 C -1.063893 -0.724850 -2.926808 0
M  V30 21 C -2.123906 -0.322339 -3.709421 0
M  V30 22 C -3.154721 -1.196900 -4.062546 0
M  V30 23 Cl -4.460846 -0.582941 -5.064654 0
M  V30 24 C -3.093219 -2.503785 -3.603912 0
M  V30 25 C -2.029561 -2.886229 -2.825834 0
M  V30 26 C -1.024689 -2.021987 -2.485140 0
M  V30 27 C -0.008114 -2.482173 -1.710570 0
M  V30 28 O 0.000737 -3.663421 -1.330685 0
M  V30 29 C 0.064880 -2.425842 4.153631 0
M  V30 30 C -0.052254 -1.986119 5.459752 0
M  V30 31 O -0.976469 -2.676945 6.253171 0
M  V30 32 C -1.743213 -3.739723 5.792571 0
M  V30 33 H 2.162261 0.073781 8.091807 0
M  V30 34 H 1.006551 1.384157 7.503001 0
M  V30 35 H 0.686687 0.466353 9.002282 0
M  V30 36 H 2.116744 0.486223 5.545774 0
M  V30 37 H 2.378807 -0.244424 3.201655 0
M  V30 38 H 2.393146 -0.996636 1.354745 0
M  V30 39 H 3.037148 -1.302786 -0.717937 0
M  V30 40 H 2.548200 -3.047413 -0.632431 0
M  V30 41 H 1.710726 0.340200 -1.559269 0
M  V30 42 H -1.766131 1.842033 -1.785866 0
M  V30 43 H -1.982182 4.157797 -2.424504 0
M  V30 44 H -0.381623 5.102566 -4.061754 0
M  V30 45 H 1.419604 3.620997 -5.007970 0
M  V30 46 H 1.607367 1.261687 -4.331052 0
M  V30 47 H -2.164092 0.685719 -4.058702 0
M  V30 48 H -3.903106 -3.163525 -3.890324 0
M  V30 49 H -2.001061 -3.906408 -2.479935 0
M  V30 50 H -0.543438 -3.263557 3.801417 0
M  V30 51 H -2.241928 -4.201660 6.669219 0
M  V30 52 H -1.016728 -4.521462 5.422170 0
M  V30 53 H -2.479504 -3.481076 5.002065 0
M  V30 END ATOM
M  V30 BEGIN BOND
M  V30 1 1 1 2
M  V30 2 1 2 3
M  V30 3 2 3 4
M  V30 4 1 4 5
M  V30 5 2 5 6
M  V30 6 1 6 7
M  V30 7 2 7 8
M  V30 8 1 7 9
M  V30 9 1 9 10
M  V30 10 1 10 11
M  V30 11 2 11 12
M  V30 12 1 12 13
M  V30 13 1 13 14
M  V30 14 2 14 15
M  V30 15 1 15 16
M  V30 16 2 16 17
M  V30 17 1 17 18
M  V30 18 2 18 19
M  V30 19 1 13 20
M  V30 20 2 20 21
M  V30 21 1 21 22
M  V30 22 1 22 23
M  V30 23 2 22 24
M  V30 24 1 24 25
M  V30 25 2 25 26
M  V30 26 1 26 27
M  V30 27 2 27 28
M  V30 28 1 6 29
M  V30 29 2 29 30
M  V30 30 1 30 31
M  V30 31 1 31 32
M  V30 32 1 30 3
M  V30 33 1 27 11
M  V30 34 1 19 14
M  V30 35 1 26 20
M  V30 36 1 1 33
M  V30 37 1 1 34
M  V30 38 1 1 35
M  V30 39 1 4 36
M  V30 40 1 5 37
M  V30 41 1 9 38
M  V30 42 1 10 39
M  V30 43 1 10 40
M  V30 44 1 12 41
M  V30 45 1 15 42
M  V30 46 1 16 43
M  V30 47 1 17 44
M  V30 48 1 18 45
M  V30 49 1 19 46
M  V30 50 1 21 47
M  V30 51 1 24 48
M  V30 52 1 25 49
M  V30 53 1 29 50
M  V30 54 1 32 51
M  V30 55 1 32 52
M  V30 56 1 32 53
M  V30 END BOND
M  V30 END CTAB
M  END
>  <Dataset>  (530) 
ChEMBL_Kinases

>  <Ligand_Instance>  (530) 
nan

>  <PDB_ID>  (530) 
nan

>  <Standardized_SMILES>  (530) 
COc1ccc(C(=O)NCc2cn(-c3ccccc3)c3cc(Cl)ccc3c2=O)cc1OC

>  <Name>  (530) 
nan

>  <Pocket>  (530) 
nan

>  <ATP_Site>  (530) 
nan

>  <Peripheral>  (530) 
nan

>  <Num_H_Atoms_ProtBoundConf>  (530) 
nan

>  <Num_Resolved_Atoms>  (530) 
nan

>  <Num_Not_Resolved_Atoms>  (530) 
nan

$$$$
CHEMBL3679476
     RDKit          3D

  0  0  0  0  0  0  0  0  0  0999 V3000
M  V30 BEGIN CTAB
M  V30 COUNTS 56 60 0 0 0
M  V30 BEGIN ATOM
M  V30 1 O 0.929123 -3.632290 1.058159 0
M  V30 2 C 0.056359 -2.903993 0.488170 0
M  V30 3 N -0.091549 -1.663399 1.123291 0
M  V30 4 C 0.819782 -1.573070 2.275351 0
M  V30 5 C 0.652458 -0.253991 2.940122 0
M  V30 6 C 1.596357 0.735531 2.755227 0
M  V30 7 N 1.594491 1.985262 3.284578 0
M  V30 8 C 2.661012 2.877100 2.979611 0
M  V30 9 C 3.595969 3.197631 3.945755 0
M  V30 10 C 4.660477 4.041084 3.765392 0
M  V30 11 C 4.782883 4.602683 2.501314 0
M  V30 12 C 3.881036 4.319793 1.498998 0
M  V30 13 C 2.809630 3.455999 1.720414 0
M  V30 14 C 0.549120 2.282504 4.078138 0
M  V30 15 C 0.545003 3.548229 4.615979 0
M  V30 16 C -0.500195 3.931271 5.445998 0
M  V30 17 Cl -0.528147 5.531654 6.140569 0
M  V30 18 C -1.493742 2.974404 5.676398 0
M  V30 19 C -1.474471 1.719064 5.133248 0
M  V30 20 C -0.435378 1.347715 4.312084 0
M  V30 21 C -0.407666 0.079133 3.758203 0
M  V30 22 O -1.292536 -0.774906 3.962542 0
M  V30 23 C -0.700410 -3.316496 -0.689995 0
M  V30 24 C -1.652968 -2.542111 -1.325269 0
M  V30 25 N -2.309555 -3.005529 -2.417699 0
M  V30 26 C -2.053675 -4.231866 -2.915419 0
M  V30 27 N -2.714660 -4.763716 -4.059529 0
M  V30 28 C -2.453523 -6.084135 -4.606890 0
M  V30 29 C -1.969605 -5.836564 -6.033493 0
M  V30 30 O -1.972023 -4.511870 -6.393419 0
M  V30 31 C -3.157124 -3.844207 -6.194548 0
M  V30 32 C -3.724153 -4.012802 -4.787623 0
M  V30 33 N -1.130308 -5.004581 -2.313974 0
M  V30 34 C -0.448504 -4.575913 -1.214151 0
M  V30 35 H -0.792932 -0.961070 0.742221 0
M  V30 36 H 1.847297 -1.665801 1.931811 0
M  V30 37 H 0.635733 -2.398577 2.985921 0
M  V30 38 H 2.438399 0.486979 2.112049 0
M  V30 39 H 3.503751 2.759463 4.938104 0
M  V30 40 H 5.366762 4.258027 4.563098 0
M  V30 41 H 5.629729 5.276248 2.350686 0
M  V30 42 H 4.019379 4.787663 0.517343 0
M  V30 43 H 2.099656 3.231928 0.935049 0
M  V30 44 H 1.313233 4.283645 4.435821 0
M  V30 45 H -2.316665 3.242622 6.315951 0
M  V30 46 H -2.259536 1.013992 5.336878 0
M  V30 47 H -1.855655 -1.558932 -0.922977 0
M  V30 48 H -3.373685 -6.698937 -4.616587 0
M  V30 49 H -1.672804 -6.554771 -3.973447 0
M  V30 50 H -0.915261 -6.178817 -6.070520 0
M  V30 51 H -2.535448 -6.488965 -6.711760 0
M  V30 52 H -2.937735 -2.762886 -6.315095 0
M  V30 53 H -3.934255 -4.056410 -6.974325 0
M  V30 54 H -3.936941 -3.041852 -4.306800 0
M  V30 55 H -4.616627 -4.658832 -4.913096 0
M  V30 56 H 0.293600 -5.218200 -0.745010 0
M  V30 END ATOM
M  V30 BEGIN BOND
M  V30 1 2 1 2
M  V30 2 1 2 3
M  V30 3 1 3 4
M  V30 4 1 4 5
M  V30 5 2 5 6
M  V30 6 1 6 7
M  V30 7 1 7 8
M  V30 8 2 8 9
M  V30 9 1 9 10
M  V30 10 2 10 11
M  V30 11 1 11 12
M  V30 12 2 12 13
M  V30 13 1 7 14
M  V30 14 2 14 15
M  V30 15 1 15 16
M  V30 16 1 16 17
M  V30 17 2 16 18
M  V30 18 1 18 19
M  V30 19 2 19 20
M  V30 20 1 20 21
M  V30 21 2 21 22
M  V30 22 1 2 23
M  V30 23 2 23 24
M  V30 24 1 24 25
M  V30 25 2 25 26
M  V30 26 1 26 27
M  V30 27 1 27 28
M  V30 28 1 28 29
M  V30 29 1 29 30
M  V30 30 1 30 31
M  V30 31 1 31 32
M  V30 32 1 26 33
M  V30 33 2 33 34
M  V30 34 1 21 5
M  V30 35 1 34 23
M  V30 36 1 13 8
M  V30 37 1 20 14
M  V30 38 1 32 27
M  V30 39 1 3 35
M  V30 40 1 4 36
M  V30 41 1 4 37
M  V30 42 1 6 38
M  V30 43 1 9 39
M  V30 44 1 10 40
M  V30 45 1 11 41
M  V30 46 1 12 42
M  V30 47 1 13 43
M  V30 48 1 15 44
M  V30 49 1 18 45
M  V30 50 1 19 46
M  V30 51 1 24 47
M  V30 52 1 28 48
M  V30 53 1 28 49
M  V30 54 1 29 50
M  V30 55 1 29 51
M  V30 56 1 31 52
M  V30 57 1 31 53
M  V30 58 1 32 54
M  V30 59 1 32 55
M  V30 60 1 34 56
M  V30 END BOND
M  V30 END CTAB
M  END
>  <Dataset>  (531) 
ChEMBL_Kinases

>  <Ligand_Instance>  (531) 
nan

>  <PDB_ID>  (531) 
nan

>  <Standardized_SMILES>  (531) 
O=C(NCc1cn(-c2ccccc2)c2cc(Cl)ccc2c1=O)c1cnc(N2CCOCC2)nc1

>  <Name>  (531) 
nan

>  <Pocket>  (531) 
nan

>  <ATP_Site>  (531) 
nan

>  <Peripheral>  (531) 
nan

>  <Num_H_Atoms_ProtBoundConf>  (531) 
nan

>  <Num_Resolved_Atoms>  (531) 
nan

>  <Num_Not_Resolved_Atoms>  (531) 
nan

$$$$
CHEMBL3679475
     RDKit          3D

  0  0  0  0  0  0  0  0  0  0999 V3000
M  V30 BEGIN CTAB
M  V30 COUNTS 54 58 0 0 0
M  V30 BEGIN ATOM
M  V30 1 O -0.419665 -3.742225 4.092368 0
M  V30 2 C -0.560857 -3.432726 2.887012 0
M  V30 3 N -0.064395 -2.148065 2.466357 0
M  V30 4 C 0.587731 -1.175950 3.318896 0
M  V30 5 C 0.974974 0.046017 2.561872 0
M  V30 6 C 2.243170 0.375320 2.146272 0
M  V30 7 N 2.464810 1.529074 1.457211 0
M  V30 8 C 3.800160 1.823894 1.048114 0
M  V30 9 C 4.750366 2.571648 1.712453 0
M  V30 10 C 5.993673 2.733541 1.131739 0
M  V30 11 C 6.281881 2.158098 -0.091415 0
M  V30 12 C 5.356532 1.398348 -0.794382 0
M  V30 13 C 4.111867 1.254405 -0.180805 0
M  V30 14 C 1.438774 2.366735 1.172512 0
M  V30 15 C 1.682878 3.537074 0.470226 0
M  V30 16 C 0.611128 4.361400 0.201609 0
M  V30 17 Cl 0.886562 5.848410 -0.684187 0
M  V30 18 C -0.697211 4.110015 0.580694 0
M  V30 19 C -0.913259 2.935766 1.279875 0
M  V30 20 C 0.143259 2.093416 1.561540 0
M  V30 21 C -0.068930 0.922558 2.258608 0
M  V30 22 O -1.255583 0.676228 2.612705 0
M  V30 23 C -1.198041 -4.284307 1.861852 0
M  V30 24 C -1.378800 -3.982118 0.524423 0
M  V30 25 N -2.002560 -5.039600 -0.051076 0
M  V30 26 C -2.351589 -5.065872 -1.460691 0
M  V30 27 C -3.718815 -4.505716 -1.670547 0
M  V30 28 C -3.789239 -3.128980 -1.892578 0
M  V30 29 C -4.963798 -2.445790 -2.105336 0
M  V30 30 C -6.140760 -3.192176 -2.094188 0
M  V30 31 C -6.105422 -4.563179 -1.876132 0
M  V30 32 C -4.905150 -5.210837 -1.666737 0
M  V30 33 N -2.196587 -5.951453 0.890929 0
M  V30 34 N -1.713459 -5.509423 2.061610 0
M  V30 35 H -0.182612 -1.891577 1.461619 0
M  V30 36 H -0.160294 -0.861311 4.076529 0
M  V30 37 H 1.446812 -1.570413 3.877213 0
M  V30 38 H 3.016467 -0.338377 2.407204 0
M  V30 39 H 4.414480 2.972356 2.658882 0
M  V30 40 H 6.714450 3.331910 1.690213 0
M  V30 41 H 7.268900 2.309544 -0.511641 0
M  V30 42 H 5.608277 0.966344 -1.737661 0
M  V30 43 H 3.420211 0.643123 -0.783237 0
M  V30 44 H 2.677787 3.804834 0.139261 0
M  V30 45 H -1.498940 4.790947 0.343464 0
M  V30 46 H -1.917417 2.677046 1.607794 0
M  V30 47 H -1.070303 -3.060238 0.043732 0
M  V30 48 H -1.622244 -4.472632 -2.028236 0
M  V30 49 H -2.359793 -6.131920 -1.780746 0
M  V30 50 H -2.879996 -2.515909 -1.906880 0
M  V30 51 H -4.988812 -1.378612 -2.274690 0
M  V30 52 H -7.093861 -2.695543 -2.257729 0
M  V30 53 H -6.984147 -5.174127 -1.859291 0
M  V30 54 H -4.801654 -6.292427 -1.487909 0
M  V30 END ATOM
M  V30 BEGIN BOND
M  V30 1 2 1 2
M  V30 2 1 2 3
M  V30 3 1 3 4
M  V30 4 1 4 5
M  V30 5 2 5 6
M  V30 6 1 6 7
M  V30 7 1 7 8
M  V30 8 2 8 9
M  V30 9 1 9 10
M  V30 10 2 10 11
M  V30 11 1 11 12
M  V30 12 2 12 13
M  V30 13 1 7 14
M  V30 14 2 14 15
M  V30 15 1 15 16
M  V30 16 1 16 17
M  V30 17 2 16 18
M  V30 18 1 18 19
M  V30 19 2 19 20
M  V30 20 1 20 21
M  V30 21 2 21 22
M  V30 22 1 2 23
M  V30 23 2 23 24
M  V30 24 1 24 25
M  V30 25 1 25 26
M  V30 26 1 26 27
M  V30 27 2 27 28
M  V30 28 1 28 29
M  V30 29 2 29 30
M  V30 30 1 30 31
M  V30 31 2 31 32
M  V30 32 1 25 33
M  V30 33 2 33 34
M  V30 34 1 21 5
M  V30 35 1 34 23
M  V30 36 1 13 8
M  V30 37 1 20 14
M  V30 38 1 32 27
M  V30 39 1 3 35
M  V30 40 1 4 36
M  V30 41 1 4 37
M  V30 42 1 6 38
M  V30 43 1 9 39
M  V30 44 1 10 40
M  V30 45 1 11 41
M  V30 46 1 12 42
M  V30 47 1 13 43
M  V30 48 1 15 44
M  V30 49 1 18 45
M  V30 50 1 19 46
M  V30 51 1 24 47
M  V30 52 1 26 48
M  V30 53 1 26 49
M  V30 54 1 28 50
M  V30 55 1 29 51
M  V30 56 1 30 52
M  V30 57 1 31 53
M  V30 58 1 32 54
M  V30 END BOND
M  V30 END CTAB
M  END
>  <Dataset>  (532) 
ChEMBL_Kinases

>  <Ligand_Instance>  (532) 
nan

>  <PDB_ID>  (532) 
nan

>  <Standardized_SMILES>  (532) 
O=C(NCc1cn(-c2ccccc2)c2cc(Cl)ccc2c1=O)c1cn(Cc2ccccc2)nn1

>  <Name>  (532) 
nan

>  <Pocket>  (532) 
nan

>  <ATP_Site>  (532) 
nan

>  <Peripheral>  (532) 
nan

>  <Num_H_Atoms_ProtBoundConf>  (532) 
nan

>  <Num_Resolved_Atoms>  (532) 
nan

>  <Num_Not_Resolved_Atoms>  (532) 
nan

$$$$
CHEMBL3679474
     RDKit          3D

  0  0  0  0  0  0  0  0  0  0999 V3000
M  V30 BEGIN CTAB
M  V30 COUNTS 48 51 0 0 0
M  V30 BEGIN ATOM
M  V30 1 C 1.624979 -5.398567 6.488471 0
M  V30 2 N 1.779039 -4.865008 5.147890 0
M  V30 3 C 0.950624 -3.872440 4.738266 0
M  V30 4 C 0.956433 -3.256265 3.508242 0
M  V30 5 C 1.887664 -3.678439 2.596324 0
M  V30 6 C 2.007254 -3.124701 1.267683 0
M  V30 7 O 2.881281 -3.556912 0.453318 0
M  V30 8 N 1.205514 -2.085970 0.739309 0
M  V30 9 C 1.458245 -1.641269 -0.637167 0
M  V30 10 C 0.445611 -0.580162 -0.882476 0
M  V30 11 C 0.586463 0.782723 -0.910568 0
M  V30 12 N -0.494259 1.537186 -1.157045 0
M  V30 13 C -0.320243 2.950730 -1.179417 0
M  V30 14 C -0.178785 3.793224 -2.255097 0
M  V30 15 C -0.023042 5.147133 -2.055996 0
M  V30 16 C 0.001054 5.730548 -0.805520 0
M  V30 17 C -0.140830 4.884618 0.272440 0
M  V30 18 C -0.298462 3.522801 0.097172 0
M  V30 19 C -1.717412 1.031760 -1.380510 0
M  V30 20 C -2.791848 1.878844 -1.630386 0
M  V30 21 C -4.050002 1.345840 -1.860233 0
M  V30 22 Cl -5.436751 2.400336 -2.181830 0
M  V30 23 C -4.270027 -0.018608 -1.848120 0
M  V30 24 C -3.190768 -0.868111 -1.597233 0
M  V30 25 C -1.934355 -0.338924 -1.367664 0
M  V30 26 C -0.815708 -1.147019 -1.110863 0
M  V30 27 O -1.088887 -2.370211 -1.114961 0
M  V30 28 C 2.747337 -4.687716 2.981035 0
M  V30 29 C 2.676304 -5.256060 4.238862 0
M  V30 30 O 3.465099 -6.173580 4.574039 0
M  V30 31 H 0.566722 -5.233604 6.836283 0
M  V30 32 H 1.857330 -6.492695 6.518720 0
M  V30 33 H 2.322489 -4.943468 7.216949 0
M  V30 34 H 0.204523 -3.518553 5.435988 0
M  V30 35 H 0.268545 -2.472905 3.253674 0
M  V30 36 H 0.461378 -1.687058 1.377143 0
M  V30 37 H 1.347615 -2.473014 -1.327027 0
M  V30 38 H 2.466139 -1.176627 -0.655608 0
M  V30 39 H 1.593359 1.116261 -0.722512 0
M  V30 40 H -0.204526 3.285566 -3.203710 0
M  V30 41 H 0.083340 5.755033 -2.969036 0
M  V30 42 H 0.127415 6.807508 -0.717563 0
M  V30 43 H -0.128711 5.301803 1.290054 0
M  V30 44 H -0.404153 2.932227 1.019723 0
M  V30 45 H -2.646777 2.970509 -1.646199 0
M  V30 46 H -5.253367 -0.448739 -2.028414 0
M  V30 47 H -3.320676 -1.952758 -1.578618 0
M  V30 48 H 3.481860 -5.022478 2.266913 0
M  V30 END ATOM
M  V30 BEGIN BOND
M  V30 1 1 1 2
M  V30 2 1 2 3
M  V30 3 2 3 4
M  V30 4 1 4 5
M  V30 5 1 5 6
M  V30 6 2 6 7
M  V30 7 1 6 8
M  V30 8 1 8 9
M  V30 9 1 9 10
M  V30 10 2 10 11
M  V30 11 1 11 12
M  V30 12 1 12 13
M  V30 13 2 13 14
M  V30 14 1 14 15
M  V30 15 2 15 16
M  V30 16 1 16 17
M  V30 17 2 17 18
M  V30 18 1 12 19
M  V30 19 2 19 20
M  V30 20 1 20 21
M  V30 21 1 21 22
M  V30 22 2 21 23
M  V30 23 1 23 24
M  V30 24 2 24 25
M  V30 25 1 25 26
M  V30 26 2 26 27
M  V30 27 2 5 28
M  V30 28 1 28 29
M  V30 29 2 29 30
M  V30 30 1 29 2
M  V30 31 1 26 10
M  V30 32 1 18 13
M  V30 33 1 25 19
M  V30 34 1 1 31
M  V30 35 1 1 32
M  V30 36 1 1 33
M  V30 37 1 3 34
M  V30 38 1 4 35
M  V30 39 1 8 36
M  V30 40 1 9 37
M  V30 41 1 9 38
M  V30 42 1 11 39
M  V30 43 1 14 40
M  V30 44 1 15 41
M  V30 45 1 16 42
M  V30 46 1 17 43
M  V30 47 1 18 44
M  V30 48 1 20 45
M  V30 49 1 23 46
M  V30 50 1 24 47
M  V30 51 1 28 48
M  V30 END BOND
M  V30 END CTAB
M  END
>  <Dataset>  (533) 
ChEMBL_Kinases

>  <Ligand_Instance>  (533) 
nan

>  <PDB_ID>  (533) 
nan

>  <Standardized_SMILES>  (533) 
Cn1ccc(C(=O)NCc2cn(-c3ccccc3)c3cc(Cl)ccc3c2=O)cc1=O

>  <Name>  (533) 
nan

>  <Pocket>  (533) 
nan

>  <ATP_Site>  (533) 
nan

>  <Peripheral>  (533) 
nan

>  <Num_H_Atoms_ProtBoundConf>  (533) 
nan

>  <Num_Resolved_Atoms>  (533) 
nan

>  <Num_Not_Resolved_Atoms>  (533) 
nan

$$$$
CHEMBL3679473
     RDKit          3D

  0  0  0  0  0  0  0  0  0  0999 V3000
M  V30 BEGIN CTAB
M  V30 COUNTS 44 47 0 0 0
M  V30 BEGIN ATOM
M  V30 1 C 0.861087 -6.838654 2.089208 0
M  V30 2 N 1.754184 -6.331761 1.052647 0
M  V30 3 C 1.574558 -5.012508 0.743605 0
M  V30 4 C 2.490333 -4.659486 -0.256156 0
M  V30 5 C 2.697071 -3.375043 -0.919279 0
M  V30 6 O 3.565615 -3.167548 -1.804042 0
M  V30 7 N 1.851960 -2.296717 -0.527349 0
M  V30 8 C 2.072599 -1.015094 -1.197566 0
M  V30 9 C 1.066660 -0.074516 -0.632711 0
M  V30 10 C 1.230682 0.923112 0.303207 0
M  V30 11 N 0.167111 1.660018 0.677674 0
M  V30 12 C 0.397461 2.673252 1.653213 0
M  V30 13 C 0.343528 4.063463 1.508831 0
M  V30 14 C 0.614209 4.809401 2.634057 0
M  V30 15 C 0.925023 4.295333 3.854212 0
M  V30 16 C 0.981443 2.921589 4.009319 0
M  V30 17 C 0.717042 2.142586 2.908133 0
M  V30 18 C -1.073142 1.483501 0.187724 0
M  V30 19 C -2.112297 2.301120 0.638868 0
M  V30 20 C -3.324323 2.029786 0.070406 0
M  V30 21 Cl -4.671795 3.041581 0.611059 0
M  V30 22 C -3.641436 1.075463 -0.867818 0
M  V30 23 C -2.565938 0.287107 -1.283021 0
M  V30 24 C -1.283206 0.482823 -0.763172 0
M  V30 25 C -0.204998 -0.277296 -1.154378 0
M  V30 26 O -0.487448 -1.152625 -2.013044 0
M  V30 27 N 3.176463 -5.819102 -0.487429 0
M  V30 28 N 2.720202 -6.781461 0.296751 0
M  V30 29 H 0.972479 -6.274738 3.042851 0
M  V30 30 H 1.064121 -7.917907 2.185096 0
M  V30 31 H -0.218676 -6.733233 1.795622 0
M  V30 32 H 0.887496 -4.237931 1.115692 0
M  V30 33 H 1.121041 -2.439536 0.202419 0
M  V30 34 H 1.953863 -1.107986 -2.298784 0
M  V30 35 H 3.106629 -0.699944 -0.988341 0
M  V30 36 H 2.240586 1.011862 0.653489 0
M  V30 37 H 0.090248 4.368204 0.509122 0
M  V30 38 H 0.555931 5.889951 2.455664 0
M  V30 39 H 1.123602 4.950783 4.684618 0
M  V30 40 H 1.227356 2.527467 4.977275 0
M  V30 41 H 0.783156 1.074369 3.119290 0
M  V30 42 H -1.978818 3.077574 1.368960 0
M  V30 43 H -4.643230 0.947919 -1.251076 0
M  V30 44 H -2.730546 -0.496003 -2.027256 0
M  V30 END ATOM
M  V30 BEGIN BOND
M  V30 1 1 1 2
M  V30 2 1 2 3
M  V30 3 2 3 4
M  V30 4 1 4 5
M  V30 5 2 5 6
M  V30 6 1 5 7
M  V30 7 1 7 8
M  V30 8 1 8 9
M  V30 9 2 9 10
M  V30 10 1 10 11
M  V30 11 1 11 12
M  V30 12 2 12 13
M  V30 13 1 13 14
M  V30 14 2 14 15
M  V30 15 1 15 16
M  V30 16 2 16 17
M  V30 17 1 11 18
M  V30 18 2 18 19
M  V30 19 1 19 20
M  V30 20 1 20 21
M  V30 21 2 20 22
M  V30 22 1 22 23
M  V30 23 2 23 24
M  V30 24 1 24 25
M  V30 25 2 25 26
M  V30 26 1 4 27
M  V30 27 2 27 28
M  V30 28 1 28 2
M  V30 29 1 25 9
M  V30 30 1 17 12
M  V30 31 1 24 18
M  V30 32 1 1 29
M  V30 33 1 1 30
M  V30 34 1 1 31
M  V30 35 1 3 32
M  V30 36 1 7 33
M  V30 37 1 8 34
M  V30 38 1 8 35
M  V30 39 1 10 36
M  V30 40 1 13 37
M  V30 41 1 14 38
M  V30 42 1 15 39
M  V30 43 1 16 40
M  V30 44 1 17 41
M  V30 45 1 19 42
M  V30 46 1 22 43
M  V30 47 1 23 44
M  V30 END BOND
M  V30 END CTAB
M  END
>  <Dataset>  (534) 
ChEMBL_Kinases

>  <Ligand_Instance>  (534) 
nan

>  <PDB_ID>  (534) 
nan

>  <Standardized_SMILES>  (534) 
Cn1cc(C(=O)NCc2cn(-c3ccccc3)c3cc(Cl)ccc3c2=O)nn1

>  <Name>  (534) 
nan

>  <Pocket>  (534) 
nan

>  <ATP_Site>  (534) 
nan

>  <Peripheral>  (534) 
nan

>  <Num_H_Atoms_ProtBoundConf>  (534) 
nan

>  <Num_Resolved_Atoms>  (534) 
nan

>  <Num_Not_Resolved_Atoms>  (534) 
nan

$$$$
CHEMBL3679472
     RDKit          3D

  0  0  0  0  0  0  0  0  0  0999 V3000
M  V30 BEGIN CTAB
M  V30 COUNTS 58 62 0 0 0
M  V30 BEGIN ATOM
M  V30 1 O 2.018986 -3.101031 3.545753 0
M  V30 2 C 1.236550 -3.003179 2.561087 0
M  V30 3 N 0.610396 -1.734749 2.391316 0
M  V30 4 C 0.889094 -0.637591 3.330286 0
M  V30 5 C 0.056735 0.516322 2.831175 0
M  V30 6 C 0.608849 1.577491 2.142528 0
M  V30 7 N -0.164187 2.595944 1.707100 0
M  V30 8 C 0.452935 3.669298 0.999756 0
M  V30 9 C 0.966091 3.493731 -0.282040 0
M  V30 10 C 1.557023 4.559597 -0.935094 0
M  V30 11 C 1.649329 5.803216 -0.337695 0
M  V30 12 C 1.128612 5.948290 0.941508 0
M  V30 13 C 0.528182 4.879369 1.614114 0
M  V30 14 C -1.487631 2.544563 1.964780 0
M  V30 15 C -2.265512 3.590742 1.514232 0
M  V30 16 C -3.625889 3.611069 1.737830 0
M  V30 17 Cl -4.732800 4.875462 1.222181 0
M  V30 18 C -4.232851 2.557311 2.431733 0
M  V30 19 C -3.442513 1.517984 2.876381 0
M  V30 20 C -2.076170 1.501122 2.649833 0
M  V30 21 C -1.293683 0.440054 3.107434 0
M  V30 22 O -1.794263 -0.518054 3.729313 0
M  V30 23 C 1.041680 -4.158538 1.702990 0
M  V30 24 C 1.742066 -5.297601 2.034724 0
M  V30 25 C 1.563817 -6.413574 1.217775 0
M  V30 26 C 0.720145 -6.381617 0.120412 0
M  V30 27 O 0.559806 -7.399336 -0.621247 0
M  V30 28 N 0.041500 -5.259736 -0.191152 0
M  V30 29 C -0.855096 -5.135405 -1.311033 0
M  V30 30 C -0.209084 -4.677455 -2.556660 0
M  V30 31 C -0.098635 -3.328853 -2.876786 0
M  V30 32 C 0.501368 -2.847747 -4.040553 0
M  V30 33 C 1.017828 -3.796724 -4.927846 0
M  V30 34 C 0.913566 -5.139936 -4.619922 0
M  V30 35 C 0.307646 -5.563301 -3.449709 0
M  V30 36 C 0.224962 -4.175482 0.615825 0
M  V30 37 H -0.037190 -1.658413 1.574151 0
M  V30 38 H 0.522520 -0.891714 4.334869 0
M  V30 39 H 1.950724 -0.372059 3.305865 0
M  V30 40 H 1.688153 1.578685 1.955369 0
M  V30 41 H 0.883461 2.508533 -0.733456 0
M  V30 42 H 1.961369 4.433035 -1.937999 0
M  V30 43 H 2.115480 6.643850 -0.853509 0
M  V30 44 H 1.189397 6.900537 1.420345 0
M  V30 45 H 0.150293 5.092250 2.612045 0
M  V30 46 H -1.875832 4.448887 0.966571 0
M  V30 47 H -5.284433 2.449060 2.673732 0
M  V30 48 H -3.826946 0.661226 3.421535 0
M  V30 49 H 2.420357 -5.401723 2.876589 0
M  V30 50 H 2.107341 -7.320629 1.463212 0
M  V30 51 H -1.304427 -6.143523 -1.550526 0
M  V30 52 H -1.752463 -4.500501 -1.082285 0
M  V30 53 H -0.519435 -2.620013 -2.147995 0
M  V30 54 H 0.530022 -1.771735 -4.184037 0
M  V30 55 H 1.480229 -3.405420 -5.826382 0
M  V30 56 H 1.319758 -5.867530 -5.320098 0
M  V30 57 H 0.275088 -6.629229 -3.298684 0
M  V30 58 H -0.307706 -3.283083 0.377625 0
M  V30 END ATOM
M  V30 BEGIN BOND
M  V30 1 2 1 2
M  V30 2 1 2 3
M  V30 3 1 3 4
M  V30 4 1 4 5
M  V30 5 2 5 6
M  V30 6 1 6 7
M  V30 7 1 7 8
M  V30 8 2 8 9
M  V30 9 1 9 10
M  V30 10 2 10 11
M  V30 11 1 11 12
M  V30 12 2 12 13
M  V30 13 1 7 14
M  V30 14 2 14 15
M  V30 15 1 15 16
M  V30 16 1 16 17
M  V30 17 2 16 18
M  V30 18 1 18 19
M  V30 19 2 19 20
M  V30 20 1 20 21
M  V30 21 2 21 22
M  V30 22 1 2 23
M  V30 23 1 23 24
M  V30 24 2 24 25
M  V30 25 1 25 26
M  V30 26 2 26 27
M  V30 27 1 26 28
M  V30 28 1 28 29
M  V30 29 1 29 30
M  V30 30 2 30 31
M  V30 31 1 31 32
M  V30 32 2 32 33
M  V30 33 1 33 34
M  V30 34 2 34 35
M  V30 35 1 28 36
M  V30 36 1 21 5
M  V30 37 2 36 23
M  V30 38 1 13 8
M  V30 39 1 20 14
M  V30 40 1 35 30
M  V30 41 1 3 37
M  V30 42 1 4 38
M  V30 43 1 4 39
M  V30 44 1 6 40
M  V30 45 1 9 41
M  V30 46 1 10 42
M  V30 47 1 11 43
M  V30 48 1 12 44
M  V30 49 1 13 45
M  V30 50 1 15 46
M  V30 51 1 18 47
M  V30 52 1 19 48
M  V30 53 1 24 49
M  V30 54 1 25 50
M  V30 55 1 29 51
M  V30 56 1 29 52
M  V30 57 1 31 53
M  V30 58 1 32 54
M  V30 59 1 33 55
M  V30 60 1 34 56
M  V30 61 1 35 57
M  V30 62 1 36 58
M  V30 END BOND
M  V30 END CTAB
M  END
>  <Dataset>  (535) 
ChEMBL_Kinases

>  <Ligand_Instance>  (535) 
nan

>  <PDB_ID>  (535) 
nan

>  <Standardized_SMILES>  (535) 
O=C(NCc1cn(-c2ccccc2)c2cc(Cl)ccc2c1=O)c1ccc(=O)n(Cc2ccccc2)c1

>  <Name>  (535) 
nan

>  <Pocket>  (535) 
nan

>  <ATP_Site>  (535) 
nan

>  <Peripheral>  (535) 
nan

>  <Num_H_Atoms_ProtBoundConf>  (535) 
nan

>  <Num_Resolved_Atoms>  (535) 
nan

>  <Num_Not_Resolved_Atoms>  (535) 
nan

$$$$
CHEMBL3679471
     RDKit          3D

  0  0  0  0  0  0  0  0  0  0999 V3000
M  V30 BEGIN CTAB
M  V30 COUNTS 62 65 0 0 0
M  V30 BEGIN ATOM
M  V30 1 C 3.609265 0.634538 4.654150 0
M  V30 2 C 2.799953 -0.103758 3.610135 0
M  V30 3 C 2.358475 -1.434147 4.181539 0
M  V30 4 C 3.707872 -0.372557 2.419832 0
M  V30 5 O 1.658250 0.618828 3.248089 0
M  V30 6 C 1.621308 1.876756 2.696601 0
M  V30 7 O 2.701204 2.491921 2.470970 0
M  V30 8 N 0.415347 2.545251 2.356081 0
M  V30 9 C 0.350784 3.865750 1.775740 0
M  V30 10 C -1.098126 4.119909 1.476034 0
M  V30 11 C -1.824399 2.844955 1.756851 0
M  V30 12 C -2.166125 2.206701 0.470257 0
M  V30 13 O -3.380630 2.023598 0.232527 0
M  V30 14 N -1.243469 1.789249 -0.505945 0
M  V30 15 C -1.223996 1.165800 -1.796170 0
M  V30 16 C -1.774751 -0.204260 -1.837620 0
M  V30 17 C -0.856015 -1.260789 -1.737619 0
M  V30 18 N -1.107713 -2.580259 -1.722589 0
M  V30 19 C -0.068789 -3.541428 -1.615611 0
M  V30 20 C 0.222312 -4.276766 -2.763861 0
M  V30 21 C 1.230848 -5.227620 -2.705155 0
M  V30 22 C 1.902233 -5.400018 -1.501223 0
M  V30 23 C 1.618377 -4.677568 -0.367806 0
M  V30 24 C 0.611450 -3.722754 -0.412957 0
M  V30 25 C -2.384697 -2.990080 -1.812230 0
M  V30 26 C -2.741063 -4.316866 -1.804661 0
M  V30 27 C -4.088478 -4.657232 -1.901874 0
M  V30 28 Cl -4.531859 -6.367623 -1.891168 0
M  V30 29 C -5.070941 -3.672567 -2.005706 0
M  V30 30 C -4.716910 -2.340827 -2.013519 0
M  V30 31 C -3.362430 -2.024844 -1.915196 0
M  V30 32 C -3.061425 -0.682509 -1.927360 0
M  V30 33 O -3.961513 0.185360 -2.025768 0
M  V30 34 C -0.881640 1.980742 2.551979 0
M  V30 35 H 3.866674 1.653305 4.315015 0
M  V30 36 H 4.567793 0.088472 4.813885 0
M  V30 37 H 3.070017 0.635227 5.644081 0
M  V30 38 H 1.496312 -1.286421 4.844615 0
M  V30 39 H 3.202276 -1.933102 4.702947 0
M  V30 40 H 2.019531 -2.073190 3.327995 0
M  V30 41 H 3.634349 -1.428453 2.100904 0
M  V30 42 H 4.775866 -0.199528 2.704242 0
M  V30 43 H 3.449625 0.283116 1.564303 0
M  V30 44 H 0.942242 3.862811 0.840181 0
M  V30 45 H 0.695542 4.633341 2.484612 0
M  V30 46 H -1.549623 4.908078 2.138479 0
M  V30 47 H -1.240404 4.442305 0.412518 0
M  V30 48 H -2.721670 2.982158 2.391926 0
M  V30 49 H -0.270004 2.032810 -0.120562 0
M  V30 50 H -0.183193 1.112884 -2.138981 0
M  V30 51 H -1.732702 1.818769 -2.565653 0
M  V30 52 H 0.212265 -1.016327 -1.660102 0
M  V30 53 H -0.337743 -4.099045 -3.682520 0
M  V30 54 H 1.467562 -5.807092 -3.592416 0
M  V30 55 H 2.701533 -6.145699 -1.434139 0
M  V30 56 H 2.172359 -4.851927 0.544358 0
M  V30 57 H 0.375815 -3.148851 0.462639 0
M  V30 58 H -1.977539 -5.092824 -1.723653 0
M  V30 59 H -6.119455 -3.951686 -2.080637 0
M  V30 60 H -5.501131 -1.601142 -2.095505 0
M  V30 61 H -0.928639 0.912281 2.209549 0
M  V30 62 H -1.151550 1.952606 3.638880 0
M  V30 END ATOM
M  V30 BEGIN BOND
M  V30 1 1 1 2
M  V30 2 1 2 3
M  V30 3 1 2 4
M  V30 4 1 2 5
M  V30 5 1 5 6
M  V30 6 2 6 7
M  V30 7 1 6 8
M  V30 8 1 8 9
M  V30 9 1 9 10
M  V30 10 1 10 11
M  V30 11 1 11 12
M  V30 12 2 12 13
M  V30 13 1 12 14
M  V30 14 1 14 15
M  V30 15 1 15 16
M  V30 16 2 16 17
M  V30 17 1 17 18
M  V30 18 1 18 19
M  V30 19 2 19 20
M  V30 20 1 20 21
M  V30 21 2 21 22
M  V30 22 1 22 23
M  V30 23 2 23 24
M  V30 24 1 18 25
M  V30 25 2 25 26
M  V30 26 1 26 27
M  V30 27 1 27 28
M  V30 28 2 27 29
M  V30 29 1 29 30
M  V30 30 2 30 31
M  V30 31 1 31 32
M  V30 32 2 32 33
M  V30 33 1 11 34
M  V30 34 1 34 8
M  V30 35 1 32 16
M  V30 36 1 24 19
M  V30 37 1 31 25
M  V30 38 1 1 35
M  V30 39 1 1 36
M  V30 40 1 1 37
M  V30 41 1 3 38
M  V30 42 1 3 39
M  V30 43 1 3 40
M  V30 44 1 4 41
M  V30 45 1 4 42
M  V30 46 1 4 43
M  V30 47 1 9 44
M  V30 48 1 9 45
M  V30 49 1 10 46
M  V30 50 1 10 47
M  V30 51 1 11 48
M  V30 52 1 14 49
M  V30 53 1 15 50
M  V30 54 1 15 51
M  V30 55 1 17 52
M  V30 56 1 20 53
M  V30 57 1 21 54
M  V30 58 1 22 55
M  V30 59 1 23 56
M  V30 60 1 24 57
M  V30 61 1 26 58
M  V30 62 1 29 59
M  V30 63 1 30 60
M  V30 64 1 34 61
M  V30 65 1 34 62
M  V30 END BOND
M  V30 END CTAB
M  END
>  <Dataset>  (536) 
ChEMBL_Kinases

>  <Ligand_Instance>  (536) 
nan

>  <PDB_ID>  (536) 
nan

>  <Standardized_SMILES>  (536) 
CC(C)(C)OC(=O)N1CCC(C(=O)NCc2cn(-c3ccccc3)c3cc(Cl)ccc3c2=O)C1

>  <Name>  (536) 
nan

>  <Pocket>  (536) 
nan

>  <ATP_Site>  (536) 
nan

>  <Peripheral>  (536) 
nan

>  <Num_H_Atoms_ProtBoundConf>  (536) 
nan

>  <Num_Resolved_Atoms>  (536) 
nan

>  <Num_Not_Resolved_Atoms>  (536) 
nan

$$$$
CHEMBL3679453
     RDKit          3D

  0  0  0  0  0  0  0  0  0  0999 V3000
M  V30 BEGIN CTAB
M  V30 COUNTS 48 52 0 0 0
M  V30 BEGIN ATOM
M  V30 1 O -1.066063 -1.167144 -0.714154 0
M  V30 2 C -2.049332 -1.704732 -0.105212 0
M  V30 3 N -2.803792 -0.797013 0.681535 0
M  V30 4 C -2.522797 0.602255 0.808250 0
M  V30 5 C -1.188349 0.908035 1.375489 0
M  V30 6 C -0.126961 1.346826 0.637689 0
M  V30 7 N 1.114485 1.652162 1.056694 0
M  V30 8 C 2.114177 2.101004 0.144039 0
M  V30 9 C 2.728788 1.332775 -0.825082 0
M  V30 10 C 3.686512 1.960329 -1.626591 0
M  V30 11 C 3.986932 3.296880 -1.434798 0
M  V30 12 C 3.365406 4.061193 -0.459479 0
M  V30 13 C 2.403588 3.437329 0.347590 0
M  V30 14 C 1.336756 1.501784 2.394305 0
M  V30 15 C 2.590530 1.801338 2.867581 0
M  V30 16 C 2.864837 1.665119 4.212595 0
M  V30 17 Cl 4.417206 2.013170 4.942220 0
M  V30 18 C 1.891058 1.228172 5.102738 0
M  V30 19 C 0.628396 0.929651 4.606165 0
M  V30 20 C 0.344652 1.065326 3.247038 0
M  V30 21 C -0.918701 0.769573 2.729682 0
M  V30 22 O -1.824910 0.370041 3.514659 0
M  V30 23 C -2.367212 -3.137854 -0.213542 0
M  V30 24 C -3.423181 -3.752072 0.446838 0
M  V30 25 C -3.643726 -5.112320 0.279488 0
M  V30 26 C -2.806412 -5.810377 -0.537723 0
M  V30 27 N -2.883391 -7.137071 -0.806548 0
M  V30 28 C -1.870905 -7.409374 -1.652659 0
M  V30 29 N -1.192138 -6.276795 -1.894652 0
M  V30 30 C -1.747832 -5.243414 -1.211664 0
M  V30 31 C -1.541764 -3.887124 -1.034279 0
M  V30 32 H -3.625192 -1.154212 1.213777 0
M  V30 33 H -2.496826 0.998579 -0.251796 0
M  V30 34 H -3.324337 1.166214 1.294714 0
M  V30 35 H -0.286651 1.472576 -0.442430 0
M  V30 36 H 2.424634 0.303360 -0.892829 0
M  V30 37 H 4.162952 1.347604 -2.384037 0
M  V30 38 H 4.731727 3.783611 -2.057656 0
M  V30 39 H 3.632543 5.099408 -0.346997 0
M  V30 40 H 1.976605 4.094005 1.068832 0
M  V30 41 H 3.394057 2.145713 2.229025 0
M  V30 42 H 2.074767 1.111325 6.163890 0
M  V30 43 H -0.164396 0.583048 5.269283 0
M  V30 44 H -4.047974 -3.138221 1.080548 0
M  V30 45 H -4.480395 -5.548447 0.814763 0
M  V30 46 H -1.674038 -8.395188 -2.047186 0
M  V30 47 H -0.358414 -6.145763 -2.504195 0
M  V30 48 H -0.690895 -3.498499 -1.591187 0
M  V30 END ATOM
M  V30 BEGIN BOND
M  V30 1 2 1 2
M  V30 2 1 2 3
M  V30 3 1 3 4
M  V30 4 1 4 5
M  V30 5 2 5 6
M  V30 6 1 6 7
M  V30 7 1 7 8
M  V30 8 2 8 9
M  V30 9 1 9 10
M  V30 10 2 10 11
M  V30 11 1 11 12
M  V30 12 2 12 13
M  V30 13 1 7 14
M  V30 14 2 14 15
M  V30 15 1 15 16
M  V30 16 1 16 17
M  V30 17 2 16 18
M  V30 18 1 18 19
M  V30 19 2 19 20
M  V30 20 1 20 21
M  V30 21 2 21 22
M  V30 22 1 2 23
M  V30 23 2 23 24
M  V30 24 1 24 25
M  V30 25 2 25 26
M  V30 26 1 26 27
M  V30 27 2 27 28
M  V30 28 1 28 29
M  V30 29 1 29 30
M  V30 30 2 30 31
M  V30 31 1 21 5
M  V30 32 1 31 23
M  V30 33 1 13 8
M  V30 34 1 20 14
M  V30 35 1 30 26
M  V30 36 1 3 32
M  V30 37 1 4 33
M  V30 38 1 4 34
M  V30 39 1 6 35
M  V30 40 1 9 36
M  V30 41 1 10 37
M  V30 42 1 11 38
M  V30 43 1 12 39
M  V30 44 1 13 40
M  V30 45 1 15 41
M  V30 46 1 18 42
M  V30 47 1 19 43
M  V30 48 1 24 44
M  V30 49 1 25 45
M  V30 50 1 28 46
M  V30 51 1 29 47
M  V30 52 1 31 48
M  V30 END BOND
M  V30 END CTAB
M  END
>  <Dataset>  (537) 
ChEMBL_Kinases

>  <Ligand_Instance>  (537) 
nan

>  <PDB_ID>  (537) 
nan

>  <Standardized_SMILES>  (537) 
O=C(NCc1cn(-c2ccccc2)c2cc(Cl)ccc2c1=O)c1ccc2nc[nH]c2c1

>  <Name>  (537) 
nan

>  <Pocket>  (537) 
nan

>  <ATP_Site>  (537) 
nan

>  <Peripheral>  (537) 
nan

>  <Num_H_Atoms_ProtBoundConf>  (537) 
nan

>  <Num_Resolved_Atoms>  (537) 
nan

>  <Num_Not_Resolved_Atoms>  (537) 
nan

$$$$
CHEMBL3679454
     RDKit          3D

  0  0  0  0  0  0  0  0  0  0999 V3000
M  V30 BEGIN CTAB
M  V30 COUNTS 58 62 0 0 0
M  V30 BEGIN ATOM
M  V30 1 O 1.954553 -2.700088 2.813229 0
M  V30 2 C 1.195203 -2.567262 1.814839 0
M  V30 3 N 0.174961 -1.576209 1.921657 0
M  V30 4 C 0.160866 -0.851536 3.192526 0
M  V30 5 C -0.956496 0.128160 3.118580 0
M  V30 6 C -0.601764 1.429633 2.904720 0
M  V30 7 N -1.601531 2.357281 2.831680 0
M  V30 8 C -1.373092 3.756470 2.612142 0
M  V30 9 C -0.894298 4.101450 1.354314 0
M  V30 10 C -0.657509 5.427752 1.089261 0
M  V30 11 C -0.872111 6.443773 2.014417 0
M  V30 12 C -1.347743 6.066913 3.253334 0
M  V30 13 C -1.594090 4.740892 3.545777 0
M  V30 14 C -2.898842 1.978568 2.969467 0
M  V30 15 C -3.947467 2.868325 2.904909 0
M  V30 16 C -5.270452 2.522883 3.039380 0
M  V30 17 Cl -6.551192 3.739634 2.940863 0
M  V30 18 C -5.579738 1.180524 3.256344 0
M  V30 19 C -4.544584 0.263230 3.325818 0
M  V30 20 C -3.223012 0.637239 3.187180 0
M  V30 21 C -2.245348 -0.333030 3.267946 0
M  V30 22 O -2.517400 -1.547410 3.463577 0
M  V30 23 C 1.326481 -3.369001 0.599394 0
M  V30 24 C 0.546319 -3.297434 -0.529623 0
M  V30 25 C 0.796645 -4.127640 -1.604658 0
M  V30 26 N 1.795376 -5.037435 -1.616223 0
M  V30 27 C 1.871594 -5.792063 -2.842567 0
M  V30 28 C 2.737156 -5.156812 -3.852067 0
M  V30 29 C 2.142327 -4.259164 -4.717941 0
M  V30 30 C 2.784758 -3.563896 -5.729847 0
M  V30 31 C 4.146806 -3.794650 -5.881143 0
M  V30 32 Cl 5.038575 -2.953067 -7.141828 0
M  V30 33 C 4.790219 -4.690993 -5.031776 0
M  V30 34 C 4.100975 -5.349706 -4.048154 0
M  V30 35 C 2.570164 -5.123024 -0.520875 0
M  V30 36 O 3.478041 -5.988757 -0.600637 0
M  V30 37 C 2.351581 -4.311842 0.571537 0
M  V30 38 H -0.498682 -1.389702 1.156323 0
M  V30 39 H 1.134015 -0.375709 3.376136 0
M  V30 40 H 0.000406 -1.579250 4.021166 0
M  V30 41 H 0.400625 1.774473 2.790588 0
M  V30 42 H -0.691073 3.391273 0.556068 0
M  V30 43 H -0.278422 5.763984 0.112276 0
M  V30 44 H -0.673361 7.494811 1.773174 0
M  V30 45 H -1.541564 6.812545 4.035778 0
M  V30 46 H -1.965815 4.415218 4.504955 0
M  V30 47 H -3.767478 3.902161 2.741311 0
M  V30 48 H -6.623898 0.882375 3.366219 0
M  V30 49 H -4.819325 -0.771163 3.495167 0
M  V30 50 H -0.245625 -2.565053 -0.500325 0
M  V30 51 H 0.093894 -3.954345 -2.426780 0
M  V30 52 H 2.330487 -6.802326 -2.639776 0
M  V30 53 H 0.868622 -5.983288 -3.263351 0
M  V30 54 H 1.072555 -4.048899 -4.632755 0
M  V30 55 H 2.241811 -2.875077 -6.367679 0
M  V30 56 H 5.859588 -4.878371 -5.142223 0
M  V30 57 H 4.553656 -6.065799 -3.350901 0
M  V30 58 H 3.008259 -4.437419 1.406339 0
M  V30 END ATOM
M  V30 BEGIN BOND
M  V30 1 2 1 2
M  V30 2 1 2 3
M  V30 3 1 3 4
M  V30 4 1 4 5
M  V30 5 2 5 6
M  V30 6 1 6 7
M  V30 7 1 7 8
M  V30 8 2 8 9
M  V30 9 1 9 10
M  V30 10 2 10 11
M  V30 11 1 11 12
M  V30 12 2 12 13
M  V30 13 1 7 14
M  V30 14 2 14 15
M  V30 15 1 15 16
M  V30 16 1 16 17
M  V30 17 2 16 18
M  V30 18 1 18 19
M  V30 19 2 19 20
M  V30 20 1 20 21
M  V30 21 2 21 22
M  V30 22 1 2 23
M  V30 23 1 23 24
M  V30 24 2 24 25
M  V30 25 1 25 26
M  V30 26 1 26 27
M  V30 27 1 27 28
M  V30 28 2 28 29
M  V30 29 1 29 30
M  V30 30 2 30 31
M  V30 31 1 31 32
M  V30 32 1 31 33
M  V30 33 2 33 34
M  V30 34 1 26 35
M  V30 35 2 35 36
M  V30 36 1 35 37
M  V30 37 1 21 5
M  V30 38 2 37 23
M  V30 39 1 13 8
M  V30 40 1 20 14
M  V30 41 1 34 28
M  V30 42 1 3 38
M  V30 43 1 4 39
M  V30 44 1 4 40
M  V30 45 1 6 41
M  V30 46 1 9 42
M  V30 47 1 10 43
M  V30 48 1 11 44
M  V30 49 1 12 45
M  V30 50 1 13 46
M  V30 51 1 15 47
M  V30 52 1 18 48
M  V30 53 1 19 49
M  V30 54 1 24 50
M  V30 55 1 25 51
M  V30 56 1 27 52
M  V30 57 1 27 53
M  V30 58 1 29 54
M  V30 59 1 30 55
M  V30 60 1 33 56
M  V30 61 1 34 57
M  V30 62 1 37 58
M  V30 END BOND
M  V30 END CTAB
M  END
>  <Dataset>  (538) 
ChEMBL_Kinases

>  <Ligand_Instance>  (538) 
nan

>  <PDB_ID>  (538) 
nan

>  <Standardized_SMILES>  (538) 
O=C(NCc1cn(-c2ccccc2)c2cc(Cl)ccc2c1=O)c1ccn(Cc2ccc(Cl)cc2)c(=O)c1

>  <Name>  (538) 
nan

>  <Pocket>  (538) 
nan

>  <ATP_Site>  (538) 
nan

>  <Peripheral>  (538) 
nan

>  <Num_H_Atoms_ProtBoundConf>  (538) 
nan

>  <Num_Resolved_Atoms>  (538) 
nan

>  <Num_Not_Resolved_Atoms>  (538) 
nan

$$$$
CHEMBL3679455
     RDKit          3D

  0  0  0  0  0  0  0  0  0  0999 V3000
M  V30 BEGIN CTAB
M  V30 COUNTS 48 51 0 0 0
M  V30 BEGIN ATOM
M  V30 1 C 1.348665 -6.946854 5.074555 0
M  V30 2 O 1.724269 -5.592882 5.202332 0
M  V30 3 C 1.750263 -4.685180 4.178068 0
M  V30 4 C 2.110154 -3.356235 4.259653 0
M  V30 5 C 2.087433 -2.554395 3.131341 0
M  V30 6 C 1.711877 -3.041122 1.905032 0
M  V30 7 C 1.705578 -2.157866 0.764933 0
M  V30 8 O 2.060458 -0.961656 0.963168 0
M  V30 9 N 1.327189 -2.557221 -0.543381 0
M  V30 10 C 1.314782 -1.677737 -1.697911 0
M  V30 11 C 0.359234 -0.584584 -1.368646 0
M  V30 12 C 0.590306 0.714130 -1.001552 0
M  V30 13 N -0.456758 1.521916 -0.754197 0
M  V30 14 C -0.159637 2.862687 -0.377554 0
M  V30 15 C -0.077847 3.957823 -1.243086 0
M  V30 16 C 0.215697 5.204962 -0.767224 0
M  V30 17 C 0.440531 5.416808 0.589425 0
M  V30 18 C 0.360363 4.338584 1.445242 0
M  V30 19 C 0.063928 3.069708 0.976950 0
M  V30 20 C -1.740772 1.168544 -0.834607 0
M  V30 21 C -2.742551 2.082570 -0.557390 0
M  V30 22 C -4.077151 1.671451 -0.652983 0
M  V30 23 Cl -5.366085 2.796048 -0.311174 0
M  V30 24 C -4.332351 0.365032 -1.021753 0
M  V30 25 C -3.330348 -0.541196 -1.296876 0
M  V30 26 C -2.004862 -0.148898 -1.206447 0
M  V30 27 C -0.964331 -1.028601 -1.474211 0
M  V30 28 O -1.328853 -2.198139 -1.802107 0
M  V30 29 C 1.360069 -4.371489 1.864759 0
M  V30 30 N 1.384484 -5.148708 2.970019 0
M  V30 31 H 0.279512 -7.011123 4.737201 0
M  V30 32 H 1.987451 -7.499478 4.356158 0
M  V30 33 H 1.458490 -7.443597 6.065922 0
M  V30 34 H 2.398628 -3.025144 5.253699 0
M  V30 35 H 2.390902 -1.522354 3.313660 0
M  V30 36 H 1.038326 -3.551957 -0.680278 0
M  V30 37 H 2.311843 -1.202403 -1.806420 0
M  V30 38 H 1.030949 -2.213076 -2.601681 0
M  V30 39 H 1.625205 0.953977 -0.950394 0
M  V30 40 H -0.270399 3.685791 -2.280306 0
M  V30 41 H 0.262881 6.001448 -1.487584 0
M  V30 42 H 0.673976 6.427800 0.940626 0
M  V30 43 H 0.544161 4.550885 2.504849 0
M  V30 44 H 0.032241 2.316731 1.752034 0
M  V30 45 H -2.467784 3.077728 -0.277605 0
M  V30 46 H -5.368301 0.036144 -1.098833 0
M  V30 47 H -3.573850 -1.559815 -1.583653 0
M  V30 48 H 1.056058 -4.806270 0.922950 0
M  V30 END ATOM
M  V30 BEGIN BOND
M  V30 1 1 1 2
M  V30 2 1 2 3
M  V30 3 2 3 4
M  V30 4 1 4 5
M  V30 5 2 5 6
M  V30 6 1 6 7
M  V30 7 2 7 8
M  V30 8 1 7 9
M  V30 9 1 9 10
M  V30 10 1 10 11
M  V30 11 2 11 12
M  V30 12 1 12 13
M  V30 13 1 13 14
M  V30 14 2 14 15
M  V30 15 1 15 16
M  V30 16 2 16 17
M  V30 17 1 17 18
M  V30 18 2 18 19
M  V30 19 1 13 20
M  V30 20 2 20 21
M  V30 21 1 21 22
M  V30 22 1 22 23
M  V30 23 2 22 24
M  V30 24 1 24 25
M  V30 25 2 25 26
M  V30 26 1 26 27
M  V30 27 2 27 28
M  V30 28 1 6 29
M  V30 29 2 29 30
M  V30 30 1 30 3
M  V30 31 1 27 11
M  V30 32 1 19 14
M  V30 33 1 26 20
M  V30 34 1 1 31
M  V30 35 1 1 32
M  V30 36 1 1 33
M  V30 37 1 4 34
M  V30 38 1 5 35
M  V30 39 1 9 36
M  V30 40 1 10 37
M  V30 41 1 10 38
M  V30 42 1 12 39
M  V30 43 1 15 40
M  V30 44 1 16 41
M  V30 45 1 17 42
M  V30 46 1 18 43
M  V30 47 1 19 44
M  V30 48 1 21 45
M  V30 49 1 24 46
M  V30 50 1 25 47
M  V30 51 1 29 48
M  V30 END BOND
M  V30 END CTAB
M  END
>  <Dataset>  (539) 
ChEMBL_Kinases

>  <Ligand_Instance>  (539) 
nan

>  <PDB_ID>  (539) 
nan

>  <Standardized_SMILES>  (539) 
COc1ccc(C(=O)NCc2cn(-c3ccccc3)c3cc(Cl)ccc3c2=O)cn1

>  <Name>  (539) 
nan

>  <Pocket>  (539) 
nan

>  <ATP_Site>  (539) 
nan

>  <Peripheral>  (539) 
nan

>  <Num_H_Atoms_ProtBoundConf>  (539) 
nan

>  <Num_Resolved_Atoms>  (539) 
nan

>  <Num_Not_Resolved_Atoms>  (539) 
nan

$$$$
CHEMBL3679456
     RDKit          3D

  0  0  0  0  0  0  0  0  0  0999 V3000
M  V30 BEGIN CTAB
M  V30 COUNTS 49 52 0 0 0
M  V30 BEGIN ATOM
M  V30 1 N 4.557558 -3.702298 6.343170 0
M  V30 2 S 5.803186 -3.197934 5.259863 0
M  V30 3 O 6.666235 -2.205007 5.974626 0
M  V30 4 O 6.674534 -4.366029 4.893022 0
M  V30 5 C 5.184396 -2.487164 3.796505 0
M  V30 6 C 3.811043 -2.422026 3.685049 0
M  V30 7 C 3.108104 -1.893870 2.599353 0
M  V30 8 C 3.916942 -1.407956 1.575186 0
M  V30 9 C 3.348218 -0.826261 0.371451 0
M  V30 10 O 4.085265 -0.373414 -0.559354 0
M  V30 11 N 1.957062 -0.714763 0.134527 0
M  V30 12 C 1.410721 -0.123489 -1.087409 0
M  V30 13 C -0.066033 -0.135711 -1.080724 0
M  V30 14 C -0.971387 0.882317 -0.856829 0
M  V30 15 N -2.291573 0.623116 -0.905493 0
M  V30 16 C -3.138555 1.727582 -0.662456 0
M  V30 17 C -4.005614 2.389048 -1.508808 0
M  V30 18 C -4.737928 3.457449 -1.032852 0
M  V30 19 C -4.621437 3.879728 0.274720 0
M  V30 20 C -3.767273 3.240338 1.137361 0
M  V30 21 C -3.023027 2.159102 0.664535 0
M  V30 22 C -2.776335 -0.604319 -1.166737 0
M  V30 23 C -4.137313 -0.826091 -1.208172 0
M  V30 24 C -4.669727 -2.090257 -1.477813 0
M  V30 25 Cl -6.389491 -2.346288 -1.523408 0
M  V30 26 C -3.812429 -3.145249 -1.709050 0
M  V30 27 C -2.457889 -2.906724 -1.664228 0
M  V30 28 C -1.921056 -1.673702 -1.401335 0
M  V30 29 C -0.550167 -1.418416 -1.353920 0
M  V30 30 O 0.139266 -2.450171 -1.579547 0
M  V30 31 C 5.289479 -1.472628 1.685741 0
M  V30 32 N 5.930851 -1.996353 2.763256 0
M  V30 33 H 3.818961 -4.251664 5.866473 0
M  V30 34 H 4.172338 -2.892721 6.882586 0
M  V30 35 H 3.141926 -2.795242 4.474310 0
M  V30 36 H 2.050153 -1.859235 2.546159 0
M  V30 37 H 1.276195 -1.061031 0.841773 0
M  V30 38 H 1.861218 -0.565910 -1.995221 0
M  V30 39 H 1.733998 0.940096 -1.077700 0
M  V30 40 H -0.481897 1.815886 -0.659129 0
M  V30 41 H -4.010278 1.969027 -2.505647 0
M  V30 42 H -5.393621 3.910191 -1.784426 0
M  V30 43 H -5.219705 4.725067 0.595629 0
M  V30 44 H -3.709963 3.606417 2.150640 0
M  V30 45 H -2.387792 1.734676 1.428136 0
M  V30 46 H -4.774134 0.028722 -1.020179 0
M  V30 47 H -4.176785 -4.159810 -1.925633 0
M  V30 48 H -1.779521 -3.728159 -1.844353 0
M  V30 49 H 5.926185 -1.096319 0.891952 0
M  V30 END ATOM
M  V30 BEGIN BOND
M  V30 1 1 1 2
M  V30 2 2 2 3
M  V30 3 2 2 4
M  V30 4 1 2 5
M  V30 5 2 5 6
M  V30 6 1 6 7
M  V30 7 2 7 8
M  V30 8 1 8 9
M  V30 9 2 9 10
M  V30 10 1 9 11
M  V30 11 1 11 12
M  V30 12 1 12 13
M  V30 13 2 13 14
M  V30 14 1 14 15
M  V30 15 1 15 16
M  V30 16 2 16 17
M  V30 17 1 17 18
M  V30 18 2 18 19
M  V30 19 1 19 20
M  V30 20 2 20 21
M  V30 21 1 15 22
M  V30 22 2 22 23
M  V30 23 1 23 24
M  V30 24 1 24 25
M  V30 25 2 24 26
M  V30 26 1 26 27
M  V30 27 2 27 28
M  V30 28 1 28 29
M  V30 29 2 29 30
M  V30 30 1 8 31
M  V30 31 2 31 32
M  V30 32 1 32 5
M  V30 33 1 29 13
M  V30 34 1 21 16
M  V30 35 1 28 22
M  V30 36 1 1 33
M  V30 37 1 1 34
M  V30 38 1 6 35
M  V30 39 1 7 36
M  V30 40 1 11 37
M  V30 41 1 12 38
M  V30 42 1 12 39
M  V30 43 1 14 40
M  V30 44 1 17 41
M  V30 45 1 18 42
M  V30 46 1 19 43
M  V30 47 1 20 44
M  V30 48 1 21 45
M  V30 49 1 23 46
M  V30 50 1 26 47
M  V30 51 1 27 48
M  V30 52 1 31 49
M  V30 END BOND
M  V30 END CTAB
M  END
>  <Dataset>  (540) 
ChEMBL_Kinases

>  <Ligand_Instance>  (540) 
nan

>  <PDB_ID>  (540) 
nan

>  <Standardized_SMILES>  (540) 
NS(=O)(=O)c1ccc(C(=O)NCc2cn(-c3ccccc3)c3cc(Cl)ccc3c2=O)cn1

>  <Name>  (540) 
nan

>  <Pocket>  (540) 
nan

>  <ATP_Site>  (540) 
nan

>  <Peripheral>  (540) 
nan

>  <Num_H_Atoms_ProtBoundConf>  (540) 
nan

>  <Num_Resolved_Atoms>  (540) 
nan

>  <Num_Not_Resolved_Atoms>  (540) 
nan

$$$$
CHEMBL3679457
     RDKit          3D

  0  0  0  0  0  0  0  0  0  0999 V3000
M  V30 BEGIN CTAB
M  V30 COUNTS 52 56 0 0 0
M  V30 BEGIN ATOM
M  V30 1 O 2.222014 -4.903111 0.422833 0
M  V30 2 C 1.244144 -4.085754 0.308724 0
M  V30 3 N 1.577392 -2.847504 0.865238 0
M  V30 4 C 2.625356 -2.146157 1.527285 0
M  V30 5 C 2.170421 -0.775063 1.861351 0
M  V30 6 C 2.566665 0.308498 1.109412 0
M  V30 7 N 2.048876 1.488726 1.548684 0
M  V30 8 C 2.360505 2.700422 0.880697 0
M  V30 9 C 1.828763 3.026725 -0.377318 0
M  V30 10 C 2.033732 4.153474 -1.134782 0
M  V30 11 C 2.872977 5.077915 -0.576634 0
M  V30 12 C 3.455174 4.867196 0.656033 0
M  V30 13 C 3.195640 3.714326 1.343555 0
M  V30 14 C 1.218765 1.635673 2.618076 0
M  V30 15 C 0.739947 2.871871 2.995396 0
M  V30 16 C -0.088117 2.895800 4.088973 0
M  V30 17 Cl -0.710645 4.469050 4.589937 0
M  V30 18 C -0.505714 1.837606 4.863944 0
M  V30 19 C 0.012047 0.606481 4.433735 0
M  V30 20 C 0.851006 0.506126 3.341167 0
M  V30 21 C 1.330351 -0.729851 2.964436 0
M  V30 22 O 1.001794 -1.752850 3.612679 0
M  V30 23 C 0.026574 -4.525267 -0.331970 0
M  V30 24 C -0.136015 -5.792541 -0.829561 0
M  V30 25 N -1.364694 -5.830333 -1.346037 0
M  V30 26 N -1.985516 -4.648001 -1.197375 0
M  V30 27 C -3.296630 -4.313807 -1.629215 0
M  V30 28 C -4.010624 -5.069888 -2.532593 0
M  V30 29 C -5.299986 -4.762144 -2.978709 0
M  V30 30 C -5.897211 -3.611912 -2.470690 0
M  V30 31 C -5.191059 -2.853340 -1.569510 0
M  V30 32 C -3.922628 -3.187109 -1.153210 0
M  V30 33 C -1.133559 -3.821435 -0.567019 0
M  V30 34 H 0.694992 -2.265632 0.711548 0
M  V30 35 H 2.990768 -2.658383 2.444671 0
M  V30 36 H 3.535037 -2.030501 0.890624 0
M  V30 37 H 3.214044 0.235439 0.269511 0
M  V30 38 H 1.160162 2.252437 -0.791184 0
M  V30 39 H 1.539462 4.233726 -2.084579 0
M  V30 40 H 3.080250 5.992251 -1.117974 0
M  V30 41 H 4.121837 5.626516 1.078098 0
M  V30 42 H 3.647137 3.533112 2.323326 0
M  V30 43 H 1.008025 3.765555 2.450693 0
M  V30 44 H -1.161829 1.948558 5.711155 0
M  V30 45 H -0.254571 -0.288558 4.973848 0
M  V30 46 H 0.571304 -6.618282 -0.822152 0
M  V30 47 H -3.510607 -5.972676 -2.911932 0
M  V30 48 H -5.725384 -5.465811 -3.696584 0
M  V30 49 H -6.903802 -3.404040 -2.842038 0
M  V30 50 H -5.719492 -1.976311 -1.219066 0
M  V30 51 H -3.476165 -2.509450 -0.441689 0
M  V30 52 H -1.286572 -2.798314 -0.280118 0
M  V30 END ATOM
M  V30 BEGIN BOND
M  V30 1 2 1 2
M  V30 2 1 2 3
M  V30 3 1 3 4
M  V30 4 1 4 5
M  V30 5 2 5 6
M  V30 6 1 6 7
M  V30 7 1 7 8
M  V30 8 2 8 9
M  V30 9 1 9 10
M  V30 10 2 10 11
M  V30 11 1 11 12
M  V30 12 2 12 13
M  V30 13 1 7 14
M  V30 14 2 14 15
M  V30 15 1 15 16
M  V30 16 1 16 17
M  V30 17 2 16 18
M  V30 18 1 18 19
M  V30 19 2 19 20
M  V30 20 1 20 21
M  V30 21 2 21 22
M  V30 22 1 2 23
M  V30 23 1 23 24
M  V30 24 2 24 25
M  V30 25 1 25 26
M  V30 26 1 26 27
M  V30 27 2 27 28
M  V30 28 1 28 29
M  V30 29 2 29 30
M  V30 30 1 30 31
M  V30 31 2 31 32
M  V30 32 1 26 33
M  V30 33 1 21 5
M  V30 34 2 33 23
M  V30 35 1 13 8
M  V30 36 1 20 14
M  V30 37 1 32 27
M  V30 38 1 3 34
M  V30 39 1 4 35
M  V30 40 1 4 36
M  V30 41 1 6 37
M  V30 42 1 9 38
M  V30 43 1 10 39
M  V30 44 1 11 40
M  V30 45 1 12 41
M  V30 46 1 13 42
M  V30 47 1 15 43
M  V30 48 1 18 44
M  V30 49 1 19 45
M  V30 50 1 24 46
M  V30 51 1 28 47
M  V30 52 1 29 48
M  V30 53 1 30 49
M  V30 54 1 31 50
M  V30 55 1 32 51
M  V30 56 1 33 52
M  V30 END BOND
M  V30 END CTAB
M  END
>  <Dataset>  (541) 
ChEMBL_Kinases

>  <Ligand_Instance>  (541) 
nan

>  <PDB_ID>  (541) 
nan

>  <Standardized_SMILES>  (541) 
O=C(NCc1cn(-c2ccccc2)c2cc(Cl)ccc2c1=O)c1cnn(-c2ccccc2)c1

>  <Name>  (541) 
nan

>  <Pocket>  (541) 
nan

>  <ATP_Site>  (541) 
nan

>  <Peripheral>  (541) 
nan

>  <Num_H_Atoms_ProtBoundConf>  (541) 
nan

>  <Num_Resolved_Atoms>  (541) 
nan

>  <Num_Not_Resolved_Atoms>  (541) 
nan

$$$$
CHEMBL3679458
     RDKit          3D

  0  0  0  0  0  0  0  0  0  0999 V3000
M  V30 BEGIN CTAB
M  V30 COUNTS 62 66 0 0 0
M  V30 BEGIN ATOM
M  V30 1 C 4.347014 -0.378521 8.217350 0
M  V30 2 O 4.464842 -0.369100 6.810245 0
M  V30 3 C 4.505899 0.854608 6.154410 0
M  V30 4 C 4.440641 2.097445 6.763051 0
M  V30 5 C 4.491497 3.243548 5.999355 0
M  V30 6 C 4.607184 3.193969 4.626339 0
M  V30 7 C 4.678248 1.977702 3.945125 0
M  V30 8 C 4.801824 1.828837 2.487792 0
M  V30 9 N 3.561654 1.748723 1.776565 0
M  V30 10 C 2.958472 0.567290 1.542568 0
M  V30 11 C 1.764681 0.432206 0.863407 0
M  V30 12 C 1.138115 1.568595 0.388562 0
M  V30 13 C -0.126345 1.593102 -0.346808 0
M  V30 14 O -0.670740 2.662360 -0.769680 0
M  V30 15 N -0.863460 0.404685 -0.654660 0
M  V30 16 C -2.097234 0.600890 -1.389128 0
M  V30 17 C -2.783080 -0.690572 -1.655039 0
M  V30 18 C -2.825706 -1.375993 -2.858414 0
M  V30 19 N -3.478066 -2.531082 -2.968017 0
M  V30 20 C -3.531539 -3.236093 -4.174003 0
M  V30 21 C -2.391447 -3.941250 -4.555370 0
M  V30 22 C -2.369156 -4.655517 -5.723616 0
M  V30 23 C -3.447584 -4.726215 -6.585284 0
M  V30 24 C -4.582671 -4.023751 -6.204976 0
M  V30 25 C -4.619753 -3.299709 -5.030764 0
M  V30 26 C -4.129551 -3.095379 -1.921718 0
M  V30 27 C -4.807363 -4.292197 -2.029156 0
M  V30 28 C -5.470475 -4.864276 -0.959856 0
M  V30 29 Cl -6.319419 -6.394822 -1.155613 0
M  V30 30 C -5.458509 -4.222099 0.260123 0
M  V30 31 C -4.785634 -3.007492 0.418670 0
M  V30 32 C -4.127874 -2.464787 -0.690534 0
M  V30 33 C -3.448073 -1.269509 -0.592987 0
M  V30 34 O -3.460073 -0.714389 0.535097 0
M  V30 35 C 1.734999 2.793926 0.614557 0
M  V30 36 C 2.937019 2.862530 1.305012 0
M  V30 37 O 3.499714 3.985908 1.521255 0
M  V30 38 C 4.621922 0.870995 4.768482 0
M  V30 39 H 3.364082 0.020006 8.494461 0
M  V30 40 H 5.141733 0.300304 8.611612 0
M  V30 41 H 4.573921 -1.385137 8.641230 0
M  V30 42 H 4.350453 2.095809 7.840789 0
M  V30 43 H 4.438258 4.217917 6.500806 0
M  V30 44 H 4.647888 4.103306 4.017476 0
M  V30 45 H 5.346638 0.866411 2.290292 0
M  V30 46 H 5.486572 2.633943 2.096800 0
M  V30 47 H 3.398863 -0.362764 1.889171 0
M  V30 48 H 1.278427 -0.512079 0.673938 0
M  V30 49 H -0.489314 -0.519043 -0.345211 0
M  V30 50 H -2.771601 1.200371 -0.745661 0
M  V30 51 H -1.939576 1.120791 -2.348858 0
M  V30 52 H -2.303251 -0.911914 -3.675032 0
M  V30 53 H -1.507615 -3.921409 -3.912498 0
M  V30 54 H -1.501957 -5.223914 -6.066591 0
M  V30 55 H -3.516329 -5.258407 -7.514546 0
M  V30 56 H -5.502192 -3.989341 -6.783008 0
M  V30 57 H -5.512064 -2.745727 -4.729139 0
M  V30 58 H -4.800495 -4.778010 -3.005076 0
M  V30 59 H -5.969345 -4.658068 1.092990 0
M  V30 60 H -4.769576 -2.490071 1.379781 0
M  V30 61 H 1.320282 3.738759 0.281373 0
M  V30 62 H 4.675044 -0.098538 4.266265 0
M  V30 END ATOM
M  V30 BEGIN BOND
M  V30 1 1 1 2
M  V30 2 1 2 3
M  V30 3 2 3 4
M  V30 4 1 4 5
M  V30 5 2 5 6
M  V30 6 1 6 7
M  V30 7 1 7 8
M  V30 8 1 8 9
M  V30 9 1 9 10
M  V30 10 2 10 11
M  V30 11 1 11 12
M  V30 12 1 12 13
M  V30 13 2 13 14
M  V30 14 1 13 15
M  V30 15 1 15 16
M  V30 16 1 16 17
M  V30 17 2 17 18
M  V30 18 1 18 19
M  V30 19 1 19 20
M  V30 20 2 20 21
M  V30 21 1 21 22
M  V30 22 2 22 23
M  V30 23 1 23 24
M  V30 24 2 24 25
M  V30 25 1 19 26
M  V30 26 2 26 27
M  V30 27 1 27 28
M  V30 28 1 28 29
M  V30 29 2 28 30
M  V30 30 1 30 31
M  V30 31 2 31 32
M  V30 32 1 32 33
M  V30 33 2 33 34
M  V30 34 2 12 35
M  V30 35 1 35 36
M  V30 36 2 36 37
M  V30 37 2 7 38
M  V30 38 1 38 3
M  V30 39 1 36 9
M  V30 40 1 33 17
M  V30 41 1 25 20
M  V30 42 1 32 26
M  V30 43 1 1 39
M  V30 44 1 1 40
M  V30 45 1 1 41
M  V30 46 1 4 42
M  V30 47 1 5 43
M  V30 48 1 6 44
M  V30 49 1 8 45
M  V30 50 1 8 46
M  V30 51 1 10 47
M  V30 52 1 11 48
M  V30 53 1 15 49
M  V30 54 1 16 50
M  V30 55 1 16 51
M  V30 56 1 18 52
M  V30 57 1 21 53
M  V30 58 1 22 54
M  V30 59 1 23 55
M  V30 60 1 24 56
M  V30 61 1 25 57
M  V30 62 1 27 58
M  V30 63 1 30 59
M  V30 64 1 31 60
M  V30 65 1 35 61
M  V30 66 1 38 62
M  V30 END BOND
M  V30 END CTAB
M  END
>  <Dataset>  (542) 
ChEMBL_Kinases

>  <Ligand_Instance>  (542) 
nan

>  <PDB_ID>  (542) 
nan

>  <Standardized_SMILES>  (542) 
COc1cccc(Cn2ccc(C(=O)NCc3cn(-c4ccccc4)c4cc(Cl)ccc4c3=O)cc2=O)c1

>  <Name>  (542) 
nan

>  <Pocket>  (542) 
nan

>  <ATP_Site>  (542) 
nan

>  <Peripheral>  (542) 
nan

>  <Num_H_Atoms_ProtBoundConf>  (542) 
nan

>  <Num_Resolved_Atoms>  (542) 
nan

>  <Num_Not_Resolved_Atoms>  (542) 
nan

$$$$
CHEMBL3679459
     RDKit          3D

  0  0  0  0  0  0  0  0  0  0999 V3000
M  V30 BEGIN CTAB
M  V30 COUNTS 58 62 0 0 0
M  V30 BEGIN ATOM
M  V30 1 O 2.712050 -2.268266 1.657017 0
M  V30 2 C 1.519531 -2.283249 1.224680 0
M  V30 3 N 0.717718 -1.195437 1.639741 0
M  V30 4 C 1.390932 -0.226397 2.500186 0
M  V30 5 C 0.439221 0.864730 2.858850 0
M  V30 6 C 0.542376 2.098079 2.239887 0
M  V30 7 N -0.302960 3.097868 2.544714 0
M  V30 8 C -0.070283 4.302778 1.825615 0
M  V30 9 C -0.225119 4.533775 0.474072 0
M  V30 10 C 0.050334 5.777383 -0.056678 0
M  V30 11 C 0.484221 6.835940 0.705288 0
M  V30 12 C 0.634772 6.589354 2.058777 0
M  V30 13 C 0.367861 5.361546 2.613051 0
M  V30 14 C -1.293823 2.962287 3.463172 0
M  V30 15 C -2.122141 4.038120 3.720737 0
M  V30 16 C -3.104477 3.823590 4.665843 0
M  V30 17 Cl -4.183120 5.172064 5.023442 0
M  V30 18 C -3.236874 2.609358 5.302051 0
M  V30 19 C -2.409769 1.566739 5.031342 0
M  V30 20 C -1.399684 1.727615 4.085153 0
M  V30 21 C -0.551568 0.677164 3.799690 0
M  V30 22 O -0.688808 -0.426299 4.392619 0
M  V30 23 C 1.018416 -3.347594 0.362691 0
M  V30 24 C -0.265461 -3.369273 -0.106071 0
M  V30 25 C -0.662504 -4.408500 -0.915934 0
M  V30 26 N 0.105196 -5.434585 -1.305602 0
M  V30 27 C -0.211922 -6.572644 -2.134959 0
M  V30 28 C 0.073073 -6.424940 -3.558722 0
M  V30 29 C 1.243048 -7.025323 -4.042098 0
M  V30 30 C 1.655793 -6.966456 -5.354987 0
M  V30 31 C 0.901028 -6.285981 -6.280938 0
M  V30 32 C -0.262933 -5.671900 -5.873056 0
M  V30 33 C -0.615920 -5.770382 -4.548090 0
M  V30 34 Cl -2.109910 -4.994427 -4.083933 0
M  V30 35 C 1.379815 -5.377909 -0.817266 0
M  V30 36 O 2.260925 -6.264127 -1.075541 0
M  V30 37 C 1.853618 -4.382486 -0.007937 0
M  V30 38 H -0.277812 -1.111249 1.341606 0
M  V30 39 H 2.296284 0.142029 2.022243 0
M  V30 40 H 1.729290 -0.743367 3.432859 0
M  V30 41 H 1.342733 2.201815 1.500951 0
M  V30 42 H -0.568665 3.667748 -0.080829 0
M  V30 43 H -0.113947 5.824393 -1.138120 0
M  V30 44 H 0.677753 7.781751 0.207804 0
M  V30 45 H 0.979192 7.432117 2.658545 0
M  V30 46 H 0.526590 5.298404 3.688948 0
M  V30 47 H -1.993079 4.976506 3.206130 0
M  V30 48 H -4.046223 2.562828 6.024847 0
M  V30 49 H -2.551339 0.635485 5.553302 0
M  V30 50 H -0.972217 -2.596025 0.141479 0
M  V30 51 H -1.669130 -4.410700 -1.259738 0
M  V30 52 H 0.343777 -7.447301 -1.726574 0
M  V30 53 H -1.296145 -6.862838 -2.014980 0
M  V30 54 H 1.956898 -7.607142 -3.437953 0
M  V30 55 H 2.553610 -7.422734 -5.744690 0
M  V30 56 H 1.198458 -6.221977 -7.316667 0
M  V30 57 H -0.867995 -5.136533 -6.573973 0
M  V30 58 H 2.863920 -4.343278 0.375274 0
M  V30 END ATOM
M  V30 BEGIN BOND
M  V30 1 2 1 2
M  V30 2 1 2 3
M  V30 3 1 3 4
M  V30 4 1 4 5
M  V30 5 2 5 6
M  V30 6 1 6 7
M  V30 7 1 7 8
M  V30 8 2 8 9
M  V30 9 1 9 10
M  V30 10 2 10 11
M  V30 11 1 11 12
M  V30 12 2 12 13
M  V30 13 1 7 14
M  V30 14 2 14 15
M  V30 15 1 15 16
M  V30 16 1 16 17
M  V30 17 2 16 18
M  V30 18 1 18 19
M  V30 19 2 19 20
M  V30 20 1 20 21
M  V30 21 2 21 22
M  V30 22 1 2 23
M  V30 23 1 23 24
M  V30 24 2 24 25
M  V30 25 1 25 26
M  V30 26 1 26 27
M  V30 27 1 27 28
M  V30 28 2 28 29
M  V30 29 1 29 30
M  V30 30 2 30 31
M  V30 31 1 31 32
M  V30 32 2 32 33
M  V30 33 1 33 34
M  V30 34 1 26 35
M  V30 35 2 35 36
M  V30 36 1 35 37
M  V30 37 1 21 5
M  V30 38 2 37 23
M  V30 39 1 13 8
M  V30 40 1 20 14
M  V30 41 1 33 28
M  V30 42 1 3 38
M  V30 43 1 4 39
M  V30 44 1 4 40
M  V30 45 1 6 41
M  V30 46 1 9 42
M  V30 47 1 10 43
M  V30 48 1 11 44
M  V30 49 1 12 45
M  V30 50 1 13 46
M  V30 51 1 15 47
M  V30 52 1 18 48
M  V30 53 1 19 49
M  V30 54 1 24 50
M  V30 55 1 25 51
M  V30 56 1 27 52
M  V30 57 1 27 53
M  V30 58 1 29 54
M  V30 59 1 30 55
M  V30 60 1 31 56
M  V30 61 1 32 57
M  V30 62 1 37 58
M  V30 END BOND
M  V30 END CTAB
M  END
>  <Dataset>  (543) 
ChEMBL_Kinases

>  <Ligand_Instance>  (543) 
nan

>  <PDB_ID>  (543) 
nan

>  <Standardized_SMILES>  (543) 
O=C(NCc1cn(-c2ccccc2)c2cc(Cl)ccc2c1=O)c1ccn(Cc2ccccc2Cl)c(=O)c1

>  <Name>  (543) 
nan

>  <Pocket>  (543) 
nan

>  <ATP_Site>  (543) 
nan

>  <Peripheral>  (543) 
nan

>  <Num_H_Atoms_ProtBoundConf>  (543) 
nan

>  <Num_Resolved_Atoms>  (543) 
nan

>  <Num_Not_Resolved_Atoms>  (543) 
nan

$$$$
CHEMBL3679460
     RDKit          3D

  0  0  0  0  0  0  0  0  0  0999 V3000
M  V30 BEGIN CTAB
M  V30 COUNTS 57 61 0 0 0
M  V30 BEGIN ATOM
M  V30 1 O -1.130016 -3.835423 2.370292 0
M  V30 2 C -1.004976 -2.978886 1.444515 0
M  V30 3 N -0.373797 -1.764831 1.735803 0
M  V30 4 C 0.166053 -1.382871 3.027196 0
M  V30 5 C 0.760001 -0.022652 2.957443 0
M  V30 6 C 2.078422 0.330260 2.905964 0
M  V30 7 N 2.463064 1.608558 2.844892 0
M  V30 8 C 3.852546 1.902571 2.793696 0
M  V30 9 C 4.583805 2.101754 3.951310 0
M  V30 10 C 5.934278 2.386621 3.878704 0
M  V30 11 C 6.610661 2.485300 2.671092 0
M  V30 12 C 5.850882 2.281154 1.545166 0
M  V30 13 C 4.501285 1.994679 1.569131 0
M  V30 14 C 1.626881 2.667271 2.827316 0
M  V30 15 C 2.077613 3.970388 2.763510 0
M  V30 16 C 1.134626 4.991978 2.750520 0
M  V30 17 Cl 1.716576 6.660048 2.668548 0
M  V30 18 C -0.215378 4.712825 2.799953 0
M  V30 19 C -0.646267 3.399246 2.863691 0
M  V30 20 C 0.264971 2.348250 2.878729 0
M  V30 21 C -0.152280 1.034433 2.942104 0
M  V30 22 O -1.406812 0.823808 2.986113 0
M  V30 23 C -1.544487 -3.359559 0.146653 0
M  V30 24 C -2.157569 -4.585641 -0.002341 0
M  V30 25 C -2.687519 -5.007368 -1.203276 0
M  V30 26 C -2.617315 -4.195634 -2.314327 0
M  V30 27 N -3.092505 -4.427532 -3.633131 0
M  V30 28 C -2.990052 -3.557042 -4.790880 0
M  V30 29 C -4.442912 -3.150930 -5.065631 0
M  V30 30 O -5.031889 -4.272720 -5.638909 0
M  V30 31 C -5.114218 -5.293976 -4.724682 0
M  V30 32 C -3.799521 -5.635354 -4.073947 0
M  V30 33 N -2.012673 -2.982109 -2.174906 0
M  V30 34 C -1.500462 -2.586181 -0.994225 0
M  V30 35 H -0.293589 -1.078419 0.926493 0
M  V30 36 H 0.933004 -2.110147 3.355938 0
M  V30 37 H -0.690421 -1.329068 3.729129 0
M  V30 38 H 2.769247 -0.505295 2.919018 0
M  V30 39 H 4.107164 2.037221 4.930090 0
M  V30 40 H 6.539512 2.549507 4.784215 0
M  V30 41 H 7.671231 2.708162 2.591878 0
M  V30 42 H 6.294937 2.338904 0.557325 0
M  V30 43 H 3.913571 1.835055 0.653107 0
M  V30 44 H 3.163976 4.128832 2.726364 0
M  V30 45 H -0.952390 5.508442 2.789683 0
M  V30 46 H -1.702394 3.183593 2.902308 0
M  V30 47 H -2.253696 -5.281019 0.819963 0
M  V30 48 H -3.179831 -5.950060 -1.392183 0
M  V30 49 H -2.442884 -2.629629 -4.546434 0
M  V30 50 H -2.607028 -4.063997 -5.693469 0
M  V30 51 H -4.950711 -2.919215 -4.106236 0
M  V30 52 H -4.447294 -2.277344 -5.745189 0
M  V30 53 H -5.899572 -5.036141 -3.985751 0
M  V30 54 H -5.450752 -6.200648 -5.269364 0
M  V30 55 H -3.159699 -6.159761 -4.814424 0
M  V30 56 H -3.978797 -6.315648 -3.231519 0
M  V30 57 H -1.022582 -1.607512 -0.915941 0
M  V30 END ATOM
M  V30 BEGIN BOND
M  V30 1 2 1 2
M  V30 2 1 2 3
M  V30 3 1 3 4
M  V30 4 1 4 5
M  V30 5 2 5 6
M  V30 6 1 6 7
M  V30 7 1 7 8
M  V30 8 2 8 9
M  V30 9 1 9 10
M  V30 10 2 10 11
M  V30 11 1 11 12
M  V30 12 2 12 13
M  V30 13 1 7 14
M  V30 14 2 14 15
M  V30 15 1 15 16
M  V30 16 1 16 17
M  V30 17 2 16 18
M  V30 18 1 18 19
M  V30 19 2 19 20
M  V30 20 1 20 21
M  V30 21 2 21 22
M  V30 22 1 2 23
M  V30 23 2 23 24
M  V30 24 1 24 25
M  V30 25 2 25 26
M  V30 26 1 26 27
M  V30 27 1 27 28
M  V30 28 1 28 29
M  V30 29 1 29 30
M  V30 30 1 30 31
M  V30 31 1 31 32
M  V30 32 1 26 33
M  V30 33 2 33 34
M  V30 34 1 21 5
M  V30 35 1 34 23
M  V30 36 1 13 8
M  V30 37 1 20 14
M  V30 38 1 32 27
M  V30 39 1 3 35
M  V30 40 1 4 36
M  V30 41 1 4 37
M  V30 42 1 6 38
M  V30 43 1 9 39
M  V30 44 1 10 40
M  V30 45 1 11 41
M  V30 46 1 12 42
M  V30 47 1 13 43
M  V30 48 1 15 44
M  V30 49 1 18 45
M  V30 50 1 19 46
M  V30 51 1 24 47
M  V30 52 1 25 48
M  V30 53 1 28 49
M  V30 54 1 28 50
M  V30 55 1 29 51
M  V30 56 1 29 52
M  V30 57 1 31 53
M  V30 58 1 31 54
M  V30 59 1 32 55
M  V30 60 1 32 56
M  V30 61 1 34 57
M  V30 END BOND
M  V30 END CTAB
M  END
>  <Dataset>  (544) 
ChEMBL_Kinases

>  <Ligand_Instance>  (544) 
nan

>  <PDB_ID>  (544) 
nan

>  <Standardized_SMILES>  (544) 
O=C(NCc1cn(-c2ccccc2)c2cc(Cl)ccc2c1=O)c1ccc(N2CCOCC2)nc1

>  <Name>  (544) 
nan

>  <Pocket>  (544) 
nan

>  <ATP_Site>  (544) 
nan

>  <Peripheral>  (544) 
nan

>  <Num_H_Atoms_ProtBoundConf>  (544) 
nan

>  <Num_Resolved_Atoms>  (544) 
nan

>  <Num_Not_Resolved_Atoms>  (544) 
nan

$$$$
CHEMBL3679470
     RDKit          3D

  0  0  0  0  0  0  0  0  0  0999 V3000
M  V30 BEGIN CTAB
M  V30 COUNTS 49 52 0 0 0
M  V30 BEGIN ATOM
M  V30 1 N 3.479768 -7.326215 -0.999714 0
M  V30 2 C 4.081177 -6.438125 -0.102782 0
M  V30 3 O 5.020411 -6.865132 0.602030 0
M  V30 4 C 3.588777 -5.080985 -0.038046 0
M  V30 5 C 4.161857 -4.187141 0.836976 0
M  V30 6 C 3.730139 -2.899663 0.932316 0
M  V30 7 C 2.699926 -2.416666 0.163524 0
M  V30 8 C 2.166811 -1.061355 0.192545 0
M  V30 9 O 1.227170 -0.721936 -0.558645 0
M  V30 10 N 2.687306 -0.076698 1.067707 0
M  V30 11 C 2.180620 1.283494 1.123864 0
M  V30 12 C 0.740326 1.311465 1.492626 0
M  V30 13 C -0.240756 1.565593 0.533774 0
M  V30 14 N -1.569945 1.600556 0.846958 0
M  V30 15 C -2.513120 1.866054 -0.184324 0
M  V30 16 C -2.754528 0.766457 -0.984503 0
M  V30 17 C -3.641976 0.820690 -2.044415 0
M  V30 18 C -4.299534 2.022688 -2.296387 0
M  V30 19 C -4.044691 3.113191 -1.483775 0
M  V30 20 C -3.160990 3.063134 -0.426325 0
M  V30 21 C -1.909582 1.378571 2.129836 0
M  V30 22 C -3.283341 1.429475 2.377739 0
M  V30 23 C -3.712963 1.212350 3.669786 0
M  V30 24 Cl -5.431530 1.273747 3.993708 0
M  V30 25 C -2.814782 0.950641 4.698249 0
M  V30 26 C -1.439601 0.901385 4.441550 0
M  V30 27 C -1.007796 1.119132 3.145519 0
M  V30 28 C 0.348432 1.088484 2.800862 0
M  V30 29 O 1.202311 0.851159 3.721977 0
M  V30 30 C 2.142737 -3.338245 -0.707311 0
M  V30 31 C 2.556415 -4.633212 -0.822367 0
M  V30 32 H 2.462633 -7.483201 -0.815270 0
M  V30 33 H 3.314007 -7.988554 -1.774772 0
M  V30 34 H 4.973223 -4.588027 1.433432 0
M  V30 35 H 4.193643 -2.210583 1.627699 0
M  V30 36 H 3.474481 -0.308778 1.716812 0
M  V30 37 H 2.793742 1.926599 1.765520 0
M  V30 38 H 2.283207 1.701729 0.081546 0
M  V30 39 H 0.017370 1.745946 -0.501833 0
M  V30 40 H -2.290961 -0.214820 -0.868913 0
M  V30 41 H -3.865138 -0.014082 -2.699630 0
M  V30 42 H -5.012241 2.111244 -3.127716 0
M  V30 43 H -4.520803 4.070681 -1.626011 0
M  V30 44 H -2.912370 3.862331 0.245701 0
M  V30 45 H -4.019068 1.630503 1.601605 0
M  V30 46 H -3.174549 0.780136 5.721547 0
M  V30 47 H -0.722407 0.697749 5.231851 0
M  V30 48 H 1.316066 -3.065264 -1.368044 0
M  V30 49 H 2.093018 -5.333956 -1.520878 0
M  V30 END ATOM
M  V30 BEGIN BOND
M  V30 1 1 1 2
M  V30 2 2 2 3
M  V30 3 1 2 4
M  V30 4 2 4 5
M  V30 5 1 5 6
M  V30 6 2 6 7
M  V30 7 1 7 8
M  V30 8 2 8 9
M  V30 9 1 8 10
M  V30 10 1 10 11
M  V30 11 1 11 12
M  V30 12 2 12 13
M  V30 13 1 13 14
M  V30 14 1 14 15
M  V30 15 2 15 16
M  V30 16 1 16 17
M  V30 17 2 17 18
M  V30 18 1 18 19
M  V30 19 2 19 20
M  V30 20 1 14 21
M  V30 21 2 21 22
M  V30 22 1 22 23
M  V30 23 1 23 24
M  V30 24 2 23 25
M  V30 25 1 25 26
M  V30 26 2 26 27
M  V30 27 1 27 28
M  V30 28 2 28 29
M  V30 29 1 7 30
M  V30 30 2 30 31
M  V30 31 1 31 4
M  V30 32 1 28 12
M  V30 33 1 20 15
M  V30 34 1 27 21
M  V30 35 1 1 32
M  V30 36 1 1 33
M  V30 37 1 5 34
M  V30 38 1 6 35
M  V30 39 1 10 36
M  V30 40 1 11 37
M  V30 41 1 11 38
M  V30 42 1 13 39
M  V30 43 1 16 40
M  V30 44 1 17 41
M  V30 45 1 18 42
M  V30 46 1 19 43
M  V30 47 1 20 44
M  V30 48 1 22 45
M  V30 49 1 25 46
M  V30 50 1 26 47
M  V30 51 1 30 48
M  V30 52 1 31 49
M  V30 END BOND
M  V30 END CTAB
M  END
>  <Dataset>  (545) 
ChEMBL_Kinases

>  <Ligand_Instance>  (545) 
nan

>  <PDB_ID>  (545) 
nan

>  <Standardized_SMILES>  (545) 
NC(=O)c1ccc(C(=O)NCc2cn(-c3ccccc3)c3cc(Cl)ccc3c2=O)cc1

>  <Name>  (545) 
nan

>  <Pocket>  (545) 
nan

>  <ATP_Site>  (545) 
nan

>  <Peripheral>  (545) 
nan

>  <Num_H_Atoms_ProtBoundConf>  (545) 
nan

>  <Num_Resolved_Atoms>  (545) 
nan

>  <Num_Not_Resolved_Atoms>  (545) 
nan

$$$$
CHEMBL3679462
     RDKit          3D

  0  0  0  0  0  0  0  0  0  0999 V3000
M  V30 BEGIN CTAB
M  V30 COUNTS 47 51 0 0 0
M  V30 BEGIN ATOM
M  V30 1 O -3.967129 -0.923886 -0.149490 0
M  V30 2 C -3.018183 -1.754706 -0.087648 0
M  V30 3 N -1.867658 -1.259027 0.580821 0
M  V30 4 C -1.894941 0.093632 1.103232 0
M  V30 5 C -0.614592 0.433757 1.760752 0
M  V30 6 C 0.295567 1.254587 1.112982 0
M  V30 7 N 1.503035 1.651643 1.585109 0
M  V30 8 C 2.317358 2.507231 0.770442 0
M  V30 9 C 2.650121 1.911059 -0.451763 0
M  V30 10 C 3.444856 2.676579 -1.313398 0
M  V30 11 C 3.873870 3.943451 -0.976195 0
M  V30 12 C 3.529625 4.512119 0.243250 0
M  V30 13 C 2.743281 3.776839 1.116429 0
M  V30 14 C 1.849432 1.200389 2.808597 0
M  V30 15 C 3.082183 1.596295 3.308649 0
M  V30 16 C 3.461119 1.145509 4.564183 0
M  V30 17 Cl 5.032050 1.658823 5.185264 0
M  V30 18 C 2.608961 0.323249 5.274213 0
M  V30 19 C 1.379149 -0.074008 4.779699 0
M  V30 20 C 0.997887 0.375731 3.523968 0
M  V30 21 C -0.243144 -0.017182 3.009157 0
M  V30 22 O -1.020878 -0.757200 3.637253 0
M  V30 23 C -3.162216 -3.089511 -0.674503 0
M  V30 24 C -4.411504 -3.284584 -1.276789 0
M  V30 25 C -4.630453 -4.537089 -1.864716 0
M  V30 26 C -3.599132 -5.464584 -1.798437 0
M  V30 27 S -3.496826 -7.162231 -2.428618 0
M  V30 28 C -1.706675 -7.348633 -1.749835 0
M  V30 29 N -1.533993 -6.311120 -1.265681 0
M  V30 30 C -2.372769 -5.277710 -1.208727 0
M  V30 31 C -2.170206 -4.020549 -0.626099 0
M  V30 32 H -1.045111 -1.893893 0.668732 0
M  V30 33 H -2.067678 0.772507 0.256337 0
M  V30 34 H -2.759838 0.223169 1.807878 0
M  V30 35 H 0.012765 1.613930 0.132333 0
M  V30 36 H 2.343525 0.936918 -0.756994 0
M  V30 37 H 3.759076 2.304095 -2.289041 0
M  V30 38 H 4.489744 4.512632 -1.665351 0
M  V30 39 H 3.838438 5.496709 0.553389 0
M  V30 40 H 2.423779 4.142515 2.095650 0
M  V30 41 H 3.745855 2.235684 2.757086 0
M  V30 42 H 2.937858 -0.016700 6.265490 0
M  V30 43 H 0.737328 -0.718636 5.363179 0
M  V30 44 H -5.212746 -2.575163 -1.332261 0
M  V30 45 H -5.520346 -4.844513 -2.360320 0
M  V30 46 H -0.917752 -8.166345 -1.743343 0
M  V30 47 H -1.233004 -3.746051 -0.123266 0
M  V30 END ATOM
M  V30 BEGIN BOND
M  V30 1 2 1 2
M  V30 2 1 2 3
M  V30 3 1 3 4
M  V30 4 1 4 5
M  V30 5 2 5 6
M  V30 6 1 6 7
M  V30 7 1 7 8
M  V30 8 2 8 9
M  V30 9 1 9 10
M  V30 10 2 10 11
M  V30 11 1 11 12
M  V30 12 2 12 13
M  V30 13 1 7 14
M  V30 14 2 14 15
M  V30 15 1 15 16
M  V30 16 1 16 17
M  V30 17 2 16 18
M  V30 18 1 18 19
M  V30 19 2 19 20
M  V30 20 1 20 21
M  V30 21 2 21 22
M  V30 22 1 2 23
M  V30 23 2 23 24
M  V30 24 1 24 25
M  V30 25 2 25 26
M  V30 26 1 26 27
M  V30 27 1 27 28
M  V30 28 2 28 29
M  V30 29 1 29 30
M  V30 30 2 30 31
M  V30 31 1 21 5
M  V30 32 1 31 23
M  V30 33 1 13 8
M  V30 34 1 20 14
M  V30 35 1 30 26
M  V30 36 1 3 32
M  V30 37 1 4 33
M  V30 38 1 4 34
M  V30 39 1 6 35
M  V30 40 1 9 36
M  V30 41 1 10 37
M  V30 42 1 11 38
M  V30 43 1 12 39
M  V30 44 1 13 40
M  V30 45 1 15 41
M  V30 46 1 18 42
M  V30 47 1 19 43
M  V30 48 1 24 44
M  V30 49 1 25 45
M  V30 50 1 28 46
M  V30 51 1 31 47
M  V30 END BOND
M  V30 END CTAB
M  END
>  <Dataset>  (546) 
ChEMBL_Kinases

>  <Ligand_Instance>  (546) 
nan

>  <PDB_ID>  (546) 
nan

>  <Standardized_SMILES>  (546) 
O=C(NCc1cn(-c2ccccc2)c2cc(Cl)ccc2c1=O)c1ccc2scnc2c1

>  <Name>  (546) 
nan

>  <Pocket>  (546) 
nan

>  <ATP_Site>  (546) 
nan

>  <Peripheral>  (546) 
nan

>  <Num_H_Atoms_ProtBoundConf>  (546) 
nan

>  <Num_Resolved_Atoms>  (546) 
nan

>  <Num_Not_Resolved_Atoms>  (546) 
nan

$$$$
CHEMBL3679463
     RDKit          3D

  0  0  0  0  0  0  0  0  0  0999 V3000
M  V30 BEGIN CTAB
M  V30 COUNTS 51 55 0 0 0
M  V30 BEGIN ATOM
M  V30 1 O -1.745023 -2.282751 2.408860 0
M  V30 2 C -0.772994 -2.729694 1.786717 0
M  V30 3 N 0.456732 -2.253488 2.252351 0
M  V30 4 C 1.093145 -1.401164 3.215984 0
M  V30 5 C 0.680425 0.002616 2.987732 0
M  V30 6 C 1.569911 0.722459 2.203355 0
M  V30 7 N 1.432797 2.001840 1.815689 0
M  V30 8 C 2.375036 2.696882 1.008783 0
M  V30 9 C 2.113158 2.530955 -0.346815 0
M  V30 10 C 2.917819 3.129649 -1.312167 0
M  V30 11 C 4.000543 3.905532 -0.912237 0
M  V30 12 C 4.249930 4.062520 0.436161 0
M  V30 13 C 3.457913 3.473265 1.399901 0
M  V30 14 C 0.353344 2.711490 2.188802 0
M  V30 15 C 0.175890 4.019735 1.814189 0
M  V30 16 C -0.963947 4.666326 2.246386 0
M  V30 17 Cl -1.203650 6.349751 1.772033 0
M  V30 18 C -1.922822 4.028934 3.042094 0
M  V30 19 C -1.701371 2.693669 3.400858 0
M  V30 20 C -0.563282 2.042610 2.971333 0
M  V30 21 C -0.418658 0.732894 3.366000 0
M  V30 22 O -1.243592 0.120781 4.078580 0
M  V30 23 C -0.981227 -3.653845 0.694017 0
M  V30 24 C -2.299323 -3.967649 0.448678 0
M  V30 25 C -2.598135 -4.856322 -0.593154 0
M  V30 26 C -1.636565 -5.438531 -1.392261 0
M  V30 27 C -1.957933 -6.362491 -2.473217 0
M  V30 28 N -1.048833 -6.950414 -3.274138 0
M  V30 29 N -1.630345 -7.727131 -4.152296 0
M  V30 30 C -2.949603 -7.639088 -3.912445 0
M  V30 31 N -3.156048 -6.795582 -2.874428 0
M  V30 32 C -0.328817 -5.100444 -1.116414 0
M  V30 33 C -0.010539 -4.228394 -0.096850 0
M  V30 34 H 1.220839 -2.706677 1.644952 0
M  V30 35 H 0.697613 -1.704244 4.236242 0
M  V30 36 H 2.189256 -1.497776 3.224520 0
M  V30 37 H 2.503759 0.290601 1.812564 0
M  V30 38 H 1.301609 1.951297 -0.769570 0
M  V30 39 H 2.748413 3.024654 -2.383678 0
M  V30 40 H 4.661522 4.395522 -1.642669 0
M  V30 41 H 5.087086 4.661589 0.800910 0
M  V30 42 H 3.568055 3.535142 2.468052 0
M  V30 43 H 0.900954 4.537272 1.199264 0
M  V30 44 H -2.814265 4.538528 3.377867 0
M  V30 45 H -2.479533 2.243361 4.022280 0
M  V30 46 H -3.149586 -3.578290 1.004742 0
M  V30 47 H -3.619681 -5.101981 -0.787270 0
M  V30 48 H -3.697907 -8.170766 -4.478909 0
M  V30 49 H -4.091319 -6.526761 -2.454810 0
M  V30 50 H 0.460094 -5.545016 -1.732673 0
M  V30 51 H 1.016856 -3.978080 0.100763 0
M  V30 END ATOM
M  V30 BEGIN BOND
M  V30 1 2 1 2
M  V30 2 1 2 3
M  V30 3 1 3 4
M  V30 4 1 4 5
M  V30 5 2 5 6
M  V30 6 1 6 7
M  V30 7 1 7 8
M  V30 8 2 8 9
M  V30 9 1 9 10
M  V30 10 2 10 11
M  V30 11 1 11 12
M  V30 12 2 12 13
M  V30 13 1 7 14
M  V30 14 2 14 15
M  V30 15 1 15 16
M  V30 16 1 16 17
M  V30 17 2 16 18
M  V30 18 1 18 19
M  V30 19 2 19 20
M  V30 20 1 20 21
M  V30 21 2 21 22
M  V30 22 1 2 23
M  V30 23 2 23 24
M  V30 24 1 24 25
M  V30 25 2 25 26
M  V30 26 1 26 27
M  V30 27 2 27 28
M  V30 28 1 28 29
M  V30 29 2 29 30
M  V30 30 1 30 31
M  V30 31 1 26 32
M  V30 32 2 32 33
M  V30 33 1 21 5
M  V30 34 1 33 23
M  V30 35 1 13 8
M  V30 36 1 20 14
M  V30 37 1 31 27
M  V30 38 1 3 34
M  V30 39 1 4 35
M  V30 40 1 4 36
M  V30 41 1 6 37
M  V30 42 1 9 38
M  V30 43 1 10 39
M  V30 44 1 11 40
M  V30 45 1 12 41
M  V30 46 1 13 42
M  V30 47 1 15 43
M  V30 48 1 18 44
M  V30 49 1 19 45
M  V30 50 1 24 46
M  V30 51 1 25 47
M  V30 52 1 30 48
M  V30 53 1 31 49
M  V30 54 1 32 50
M  V30 55 1 33 51
M  V30 END BOND
M  V30 END CTAB
M  END
>  <Dataset>  (547) 
ChEMBL_Kinases

>  <Ligand_Instance>  (547) 
nan

>  <PDB_ID>  (547) 
nan

>  <Standardized_SMILES>  (547) 
O=C(NCc1cn(-c2ccccc2)c2cc(Cl)ccc2c1=O)c1ccc(-c2nnc[nH]2)cc1

>  <Name>  (547) 
nan

>  <Pocket>  (547) 
nan

>  <ATP_Site>  (547) 
nan

>  <Peripheral>  (547) 
nan

>  <Num_H_Atoms_ProtBoundConf>  (547) 
nan

>  <Num_Resolved_Atoms>  (547) 
nan

>  <Num_Not_Resolved_Atoms>  (547) 
nan

$$$$
CHEMBL3679464
     RDKit          3D

  0  0  0  0  0  0  0  0  0  0999 V3000
M  V30 BEGIN CTAB
M  V30 COUNTS 58 62 0 0 0
M  V30 BEGIN ATOM
M  V30 1 O 2.734221 -2.365841 2.073125 0
M  V30 2 C 1.589730 -2.388220 1.524498 0
M  V30 3 N 0.777375 -1.272945 1.917044 0
M  V30 4 C 1.315673 -0.290005 2.847298 0
M  V30 5 C 0.251447 0.747705 3.063042 0
M  V30 6 C 0.421986 1.973520 2.412065 0
M  V30 7 N -0.462540 3.005496 2.515943 0
M  V30 8 C -0.151602 4.207137 1.786760 0
M  V30 9 C -0.082548 4.206736 0.408773 0
M  V30 10 C 0.209500 5.317064 -0.354126 0
M  V30 11 C 0.445634 6.502234 0.338341 0
M  V30 12 C 0.383700 6.537807 1.734365 0
M  V30 13 C 0.088264 5.405822 2.466063 0
M  V30 14 C -1.564273 2.830999 3.291847 0
M  V30 15 C -2.429539 3.904196 3.365269 0
M  V30 16 C -3.555793 3.735097 4.154329 0
M  V30 17 Cl -4.681043 5.082130 4.271167 0
M  V30 18 C -3.791977 2.536696 4.834796 0
M  V30 19 C -2.892483 1.496974 4.724855 0
M  V30 20 C -1.751045 1.626267 3.943793 0
M  V30 21 C -0.858525 0.578308 3.841928 0
M  V30 22 O -1.014048 -0.504191 4.419949 0
M  V30 23 C 1.129256 -3.417066 0.598667 0
M  V30 24 C -0.076312 -3.517813 -0.025465 0
M  V30 25 C -0.359935 -4.562769 -0.882229 0
M  V30 26 N 0.568635 -5.523824 -1.123543 0
M  V30 27 C 0.209511 -6.607711 -2.042142 0
M  V30 28 C 0.560911 -6.276233 -3.436188 0
M  V30 29 C 1.733109 -6.530886 -4.103221 0
M  V30 30 C 1.918987 -6.161452 -5.406942 0
M  V30 31 C 0.935588 -5.505633 -6.139952 0
M  V30 32 C -0.272437 -5.223998 -5.508668 0
M  V30 33 Cl -1.579671 -4.402310 -6.334980 0
M  V30 34 C -0.412730 -5.621458 -4.177943 0
M  V30 35 C 1.775300 -5.465710 -0.528514 0
M  V30 36 O 2.575549 -6.393363 -0.805561 0
M  V30 37 C 2.059258 -4.420018 0.328936 0
M  V30 38 H -0.200214 -1.192874 1.517061 0
M  V30 39 H 2.236472 0.186163 2.505050 0
M  V30 40 H 1.522285 -0.793830 3.816019 0
M  V30 41 H 1.306741 2.112209 1.789665 0
M  V30 42 H -0.276503 3.252788 -0.072031 0
M  V30 43 H 0.251270 5.262446 -1.436499 0
M  V30 44 H 0.680931 7.411356 -0.206213 0
M  V30 45 H 0.561890 7.442348 2.304582 0
M  V30 46 H 0.040120 5.432974 3.545943 0
M  V30 47 H -2.277988 4.832905 2.857832 0
M  V30 48 H -4.667046 2.419950 5.441316 0
M  V30 49 H -3.046650 0.549944 5.242145 0
M  V30 50 H -0.779556 -2.711922 0.211574 0
M  V30 51 H -1.357898 -4.571884 -1.347195 0
M  V30 52 H 0.748672 -7.545302 -1.728653 0
M  V30 53 H -0.856981 -6.869385 -1.998742 0
M  V30 54 H 2.493659 -7.049594 -3.502638 0
M  V30 55 H 2.873636 -6.385929 -5.900268 0
M  V30 56 H 1.071124 -5.210237 -7.166410 0
M  V30 57 H -1.380400 -5.377410 -3.726272 0
M  V30 58 H 3.053913 -4.475309 0.747621 0
M  V30 END ATOM
M  V30 BEGIN BOND
M  V30 1 2 1 2
M  V30 2 1 2 3
M  V30 3 1 3 4
M  V30 4 1 4 5
M  V30 5 2 5 6
M  V30 6 1 6 7
M  V30 7 1 7 8
M  V30 8 2 8 9
M  V30 9 1 9 10
M  V30 10 2 10 11
M  V30 11 1 11 12
M  V30 12 2 12 13
M  V30 13 1 7 14
M  V30 14 2 14 15
M  V30 15 1 15 16
M  V30 16 1 16 17
M  V30 17 2 16 18
M  V30 18 1 18 19
M  V30 19 2 19 20
M  V30 20 1 20 21
M  V30 21 2 21 22
M  V30 22 1 2 23
M  V30 23 1 23 24
M  V30 24 2 24 25
M  V30 25 1 25 26
M  V30 26 1 26 27
M  V30 27 1 27 28
M  V30 28 2 28 29
M  V30 29 1 29 30
M  V30 30 2 30 31
M  V30 31 1 31 32
M  V30 32 1 32 33
M  V30 33 2 32 34
M  V30 34 1 26 35
M  V30 35 2 35 36
M  V30 36 1 35 37
M  V30 37 1 21 5
M  V30 38 2 37 23
M  V30 39 1 13 8
M  V30 40 1 20 14
M  V30 41 1 34 28
M  V30 42 1 3 38
M  V30 43 1 4 39
M  V30 44 1 4 40
M  V30 45 1 6 41
M  V30 46 1 9 42
M  V30 47 1 10 43
M  V30 48 1 11 44
M  V30 49 1 12 45
M  V30 50 1 13 46
M  V30 51 1 15 47
M  V30 52 1 18 48
M  V30 53 1 19 49
M  V30 54 1 24 50
M  V30 55 1 25 51
M  V30 56 1 27 52
M  V30 57 1 27 53
M  V30 58 1 29 54
M  V30 59 1 30 55
M  V30 60 1 31 56
M  V30 61 1 34 57
M  V30 62 1 37 58
M  V30 END BOND
M  V30 END CTAB
M  END
>  <Dataset>  (548) 
ChEMBL_Kinases

>  <Ligand_Instance>  (548) 
nan

>  <PDB_ID>  (548) 
nan

>  <Standardized_SMILES>  (548) 
O=C(NCc1cn(-c2ccccc2)c2cc(Cl)ccc2c1=O)c1ccn(Cc2cccc(Cl)c2)c(=O)c1

>  <Name>  (548) 
nan

>  <Pocket>  (548) 
nan

>  <ATP_Site>  (548) 
nan

>  <Peripheral>  (548) 
nan

>  <Num_H_Atoms_ProtBoundConf>  (548) 
nan

>  <Num_Resolved_Atoms>  (548) 
nan

>  <Num_Not_Resolved_Atoms>  (548) 
nan

$$$$
CHEMBL3679465
     RDKit          3D

  0  0  0  0  0  0  0  0  0  0999 V3000
M  V30 BEGIN CTAB
M  V30 COUNTS 50 54 0 0 0
M  V30 BEGIN ATOM
M  V30 1 C 4.923034 -3.662769 -5.757579 0
M  V30 2 N 3.868755 -3.552169 -4.766158 0
M  V30 3 C 2.726945 -4.280588 -4.688926 0
M  V30 4 N 1.984038 -3.887279 -3.620667 0
M  V30 5 C 2.689440 -2.883646 -3.018508 0
M  V30 6 C 2.356537 -2.156451 -1.893294 0
M  V30 7 C 3.248243 -1.172705 -1.466592 0
M  V30 8 C 3.016855 -0.336156 -0.293566 0
M  V30 9 O 3.843553 0.549512 0.080619 0
M  V30 10 N 1.862506 -0.431901 0.527631 0
M  V30 11 C 1.731506 0.446905 1.669951 0
M  V30 12 C 0.429497 0.136111 2.346916 0
M  V30 13 C -0.672645 0.984749 2.195202 0
M  V30 14 N -1.870154 0.780036 2.763413 0
M  V30 15 C -2.859305 1.763228 2.483365 0
M  V30 16 C -3.403863 2.544692 3.504360 0
M  V30 17 C -4.352721 3.462839 3.112513 0
M  V30 18 C -4.800380 3.669698 1.819661 0
M  V30 19 C -4.243690 2.882693 0.834660 0
M  V30 20 C -3.289603 1.946905 1.167195 0
M  V30 21 C -2.016422 -0.311719 3.526908 0
M  V30 22 C -3.268577 -0.493813 4.100093 0
M  V30 23 C -3.447066 -1.605556 4.888027 0
M  V30 24 Cl -4.978491 -1.931447 5.654398 0
M  V30 25 C -2.409903 -2.517303 5.104556 0
M  V30 26 C -1.171955 -2.317377 4.525170 0
M  V30 27 C -0.988629 -1.199010 3.730863 0
M  V30 28 C 0.255943 -0.983606 3.138446 0
M  V30 29 O 1.215624 -1.786180 3.311503 0
M  V30 30 C 4.411332 -0.972016 -2.180443 0
M  V30 31 N 4.697878 -1.708670 -3.279148 0
M  V30 32 C 3.853521 -2.682308 -3.732610 0
M  V30 33 H 5.217413 -2.650023 -6.100578 0
M  V30 34 H 4.462943 -4.160905 -6.640875 0
M  V30 35 H 5.803888 -4.224313 -5.390584 0
M  V30 36 H 2.414058 -5.073103 -5.363985 0
M  V30 37 H 1.451982 -2.314095 -1.340126 0
M  V30 38 H 1.128372 -1.135700 0.291991 0
M  V30 39 H 2.595169 0.336994 2.343514 0
M  V30 40 H 1.669977 1.492961 1.330884 0
M  V30 41 H -0.483417 1.857598 1.559192 0
M  V30 42 H -3.096436 2.430390 4.524872 0
M  V30 43 H -4.792947 4.086501 3.904285 0
M  V30 44 H -5.565967 4.440659 1.648853 0
M  V30 45 H -4.577034 3.026142 -0.180521 0
M  V30 46 H -2.882957 1.350426 0.338725 0
M  V30 47 H -4.072771 0.208061 3.935955 0
M  V30 48 H -2.508878 -3.416387 5.724887 0
M  V30 49 H -0.328559 -2.987948 4.655244 0
M  V30 50 H 5.124883 -0.203397 -1.860428 0
M  V30 END ATOM
M  V30 BEGIN BOND
M  V30 1 1 1 2
M  V30 2 1 2 3
M  V30 3 2 3 4
M  V30 4 1 4 5
M  V30 5 2 5 6
M  V30 6 1 6 7
M  V30 7 1 7 8
M  V30 8 2 8 9
M  V30 9 1 8 10
M  V30 10 1 10 11
M  V30 11 1 11 12
M  V30 12 2 12 13
M  V30 13 1 13 14
M  V30 14 1 14 15
M  V30 15 2 15 16
M  V30 16 1 16 17
M  V30 17 2 17 18
M  V30 18 1 18 19
M  V30 19 2 19 20
M  V30 20 1 14 21
M  V30 21 2 21 22
M  V30 22 1 22 23
M  V30 23 1 23 24
M  V30 24 2 23 25
M  V30 25 1 25 26
M  V30 26 2 26 27
M  V30 27 1 27 28
M  V30 28 2 28 29
M  V30 29 2 7 30
M  V30 30 1 30 31
M  V30 31 2 31 32
M  V30 32 1 32 2
M  V30 33 1 32 5
M  V30 34 1 28 12
M  V30 35 1 20 15
M  V30 36 1 27 21
M  V30 37 1 1 33
M  V30 38 1 1 34
M  V30 39 1 1 35
M  V30 40 1 3 36
M  V30 41 1 6 37
M  V30 42 1 10 38
M  V30 43 1 11 39
M  V30 44 1 11 40
M  V30 45 1 13 41
M  V30 46 1 16 42
M  V30 47 1 17 43
M  V30 48 1 18 44
M  V30 49 1 19 45
M  V30 50 1 20 46
M  V30 51 1 22 47
M  V30 52 1 25 48
M  V30 53 1 26 49
M  V30 54 1 30 50
M  V30 END BOND
M  V30 END CTAB
M  END
>  <Dataset>  (549) 
ChEMBL_Kinases

>  <Ligand_Instance>  (549) 
nan

>  <PDB_ID>  (549) 
nan

>  <Standardized_SMILES>  (549) 
Cn1cnc2cc(C(=O)NCc3cn(-c4ccccc4)c4cc(Cl)ccc4c3=O)cnc21

>  <Name>  (549) 
nan

>  <Pocket>  (549) 
nan

>  <ATP_Site>  (549) 
nan

>  <Peripheral>  (549) 
nan

>  <Num_H_Atoms_ProtBoundConf>  (549) 
nan

>  <Num_Resolved_Atoms>  (549) 
nan

>  <Num_Not_Resolved_Atoms>  (549) 
nan

$$$$
CHEMBL3679466
     RDKit          3D

  0  0  0  0  0  0  0  0  0  0999 V3000
M  V30 BEGIN CTAB
M  V30 COUNTS 49 53 0 0 0
M  V30 BEGIN ATOM
M  V30 1 O -1.194626 -1.897510 2.529584 0
M  V30 2 C -2.064784 -1.801326 1.618781 0
M  V30 3 N -2.221117 -0.603862 0.916079 0
M  V30 4 C -1.502380 0.621053 1.063763 0
M  V30 5 C -0.071377 0.548180 0.740237 0
M  V30 6 C 0.691295 1.640917 1.138438 0
M  V30 7 N 2.030617 1.660874 0.872177 0
M  V30 8 C 2.798672 2.789312 1.278433 0
M  V30 9 C 2.802859 3.759668 0.272577 0
M  V30 10 C 3.469674 4.958139 0.395472 0
M  V30 11 C 4.147806 5.160615 1.581969 0
M  V30 12 C 4.164476 4.221856 2.597234 0
M  V30 13 C 3.487789 3.030184 2.447546 0
M  V30 14 C 2.646802 0.639595 0.226348 0
M  V30 15 C 3.996533 0.636604 -0.053362 0
M  V30 16 C 4.625368 -0.401987 -0.710857 0
M  V30 17 Cl 6.347310 -0.379899 -1.056750 0
M  V30 18 C 3.860582 -1.503704 -1.113246 0
M  V30 19 C 2.508801 -1.544517 -0.855095 0
M  V30 20 C 1.939889 -0.476101 -0.194943 0
M  V30 21 C 0.591133 -0.464763 0.088223 0
M  V30 22 O -0.081405 -1.458881 -0.280225 0
M  V30 23 C -2.849481 -3.020629 1.396196 0
M  V30 24 C -2.621187 -4.144583 2.155509 0
M  V30 25 C -3.349490 -5.301447 1.957809 0
M  V30 26 C -4.335056 -5.396323 1.000115 0
M  V30 27 C -5.225841 -6.381007 0.552908 0
M  V30 28 C -5.971521 -5.798457 -0.479352 0
M  V30 29 N -5.576207 -4.530210 -0.669840 0
M  V30 30 C -4.579473 -4.264789 0.221615 0
M  V30 31 C -3.847883 -3.122659 0.429756 0
M  V30 32 H -2.973086 -0.644414 0.192837 0
M  V30 33 H -1.543040 0.933299 2.156577 0
M  V30 34 H -1.963588 1.424770 0.472469 0
M  V30 35 H 0.261050 2.501122 1.663918 0
M  V30 36 H 2.290351 3.681758 -0.701565 0
M  V30 37 H 3.492054 5.726412 -0.360827 0
M  V30 38 H 4.716203 6.080693 1.791167 0
M  V30 39 H 4.686650 4.348900 3.541000 0
M  V30 40 H 3.408206 2.210427 3.142098 0
M  V30 41 H 4.571191 1.492856 0.262647 0
M  V30 42 H 4.290706 -2.359293 -1.636413 0
M  V30 43 H 1.901831 -2.406394 -1.166108 0
M  V30 44 H -1.878112 -4.188052 2.928165 0
M  V30 45 H -3.219727 -6.223648 2.521105 0
M  V30 46 H -5.267288 -7.375267 0.975331 0
M  V30 47 H -6.756379 -6.340830 -1.027537 0
M  V30 48 H -5.972973 -3.857296 -1.389771 0
M  V30 49 H -4.068930 -2.286839 -0.186591 0
M  V30 END ATOM
M  V30 BEGIN BOND
M  V30 1 2 1 2
M  V30 2 1 2 3
M  V30 3 1 3 4
M  V30 4 1 4 5
M  V30 5 2 5 6
M  V30 6 1 6 7
M  V30 7 1 7 8
M  V30 8 2 8 9
M  V30 9 1 9 10
M  V30 10 2 10 11
M  V30 11 1 11 12
M  V30 12 2 12 13
M  V30 13 1 7 14
M  V30 14 2 14 15
M  V30 15 1 15 16
M  V30 16 1 16 17
M  V30 17 2 16 18
M  V30 18 1 18 19
M  V30 19 2 19 20
M  V30 20 1 20 21
M  V30 21 2 21 22
M  V30 22 1 2 23
M  V30 23 2 23 24
M  V30 24 1 24 25
M  V30 25 2 25 26
M  V30 26 1 26 27
M  V30 27 2 27 28
M  V30 28 1 28 29
M  V30 29 1 29 30
M  V30 30 2 30 31
M  V30 31 1 21 5
M  V30 32 1 31 23
M  V30 33 1 13 8
M  V30 34 1 20 14
M  V30 35 1 30 26
M  V30 36 1 3 32
M  V30 37 1 4 33
M  V30 38 1 4 34
M  V30 39 1 6 35
M  V30 40 1 9 36
M  V30 41 1 10 37
M  V30 42 1 11 38
M  V30 43 1 12 39
M  V30 44 1 13 40
M  V30 45 1 15 41
M  V30 46 1 18 42
M  V30 47 1 19 43
M  V30 48 1 24 44
M  V30 49 1 25 45
M  V30 50 1 27 46
M  V30 51 1 28 47
M  V30 52 1 29 48
M  V30 53 1 31 49
M  V30 END BOND
M  V30 END CTAB
M  END
>  <Dataset>  (550) 
ChEMBL_Kinases

>  <Ligand_Instance>  (550) 
nan

>  <PDB_ID>  (550) 
nan

>  <Standardized_SMILES>  (550) 
O=C(NCc1cn(-c2ccccc2)c2cc(Cl)ccc2c1=O)c1ccc2cc[nH]c2c1

>  <Name>  (550) 
nan

>  <Pocket>  (550) 
nan

>  <ATP_Site>  (550) 
nan

>  <Peripheral>  (550) 
nan

>  <Num_H_Atoms_ProtBoundConf>  (550) 
nan

>  <Num_Resolved_Atoms>  (550) 
nan

>  <Num_Not_Resolved_Atoms>  (550) 
nan

$$$$
CHEMBL3679467
     RDKit          3D

  0  0  0  0  0  0  0  0  0  0999 V3000
M  V30 BEGIN CTAB
M  V30 COUNTS 51 55 0 0 0
M  V30 BEGIN ATOM
M  V30 1 O 1.497448 -1.931391 0.785980 0
M  V30 2 C 0.490267 -2.588225 1.199405 0
M  V30 3 N 0.152680 -2.468074 2.552122 0
M  V30 4 C 0.868501 -1.642710 3.527965 0
M  V30 5 C 0.776750 -0.247184 3.024619 0
M  V30 6 C 1.710798 0.546726 2.407550 0
M  V30 7 N 1.357410 1.787580 2.050679 0
M  V30 8 C 2.355221 2.576120 1.412708 0
M  V30 9 C 2.128191 2.617000 0.033660 0
M  V30 10 C 2.969142 3.327223 -0.812365 0
M  V30 11 C 4.048015 4.004720 -0.283660 0
M  V30 12 C 4.259270 3.955753 1.074808 0
M  V30 13 C 3.436596 3.256899 1.930834 0
M  V30 14 C 0.135976 2.307239 2.260954 0
M  V30 15 C -0.100074 3.602188 1.843969 0
M  V30 16 C -1.357881 4.127417 2.064224 0
M  V30 17 Cl -1.770791 5.750138 1.582236 0
M  V30 18 C -2.369023 3.404479 2.680069 0
M  V30 19 C -2.088508 2.114148 3.080411 0
M  V30 20 C -0.843358 1.558859 2.875856 0
M  V30 21 C -0.505327 0.258486 3.260680 0
M  V30 22 O -1.476620 -0.344467 3.817313 0
M  V30 23 C -0.252490 -3.420969 0.258782 0
M  V30 24 C -1.361840 -4.178160 0.575994 0
M  V30 25 C -2.022263 -4.945216 -0.361760 0
M  V30 26 C -1.590437 -4.983767 -1.672560 0
M  V30 27 C -2.248318 -5.773999 -2.706670 0
M  V30 28 C -3.376000 -6.577957 -2.521406 0
M  V30 29 N -3.703056 -7.155405 -3.691989 0
M  V30 30 C -2.787443 -6.710428 -4.581988 0
M  V30 31 O -1.936972 -5.899423 -3.993668 0
M  V30 32 C -0.483774 -4.242410 -2.038517 0
M  V30 33 C 0.142951 -3.490673 -1.063927 0
M  V30 34 H -0.671612 -3.007473 2.891438 0
M  V30 35 H 1.945314 -1.893643 3.540782 0
M  V30 36 H 0.450296 -1.763880 4.526084 0
M  V30 37 H 2.645690 0.058517 2.282988 0
M  V30 38 H 1.311204 2.125084 -0.513139 0
M  V30 39 H 2.827213 3.383308 -1.885484 0
M  V30 40 H 4.708748 4.559874 -0.927673 0
M  V30 41 H 5.087772 4.466689 1.545639 0
M  V30 42 H 3.501780 3.148696 2.996498 0
M  V30 43 H 0.650113 4.208538 1.360456 0
M  V30 44 H -3.366119 3.777516 2.871011 0
M  V30 45 H -2.854729 1.508731 3.569274 0
M  V30 46 H -1.713897 -4.163764 1.584569 0
M  V30 47 H -2.878425 -5.519697 -0.083208 0
M  V30 48 H -3.856568 -6.670231 -1.553112 0
M  V30 49 H -2.512497 -6.799906 -5.642746 0
M  V30 50 H -0.094271 -4.231260 -3.057658 0
M  V30 51 H 1.012647 -2.908326 -1.353366 0
M  V30 END ATOM
M  V30 BEGIN BOND
M  V30 1 2 1 2
M  V30 2 1 2 3
M  V30 3 1 3 4
M  V30 4 1 4 5
M  V30 5 2 5 6
M  V30 6 1 6 7
M  V30 7 1 7 8
M  V30 8 2 8 9
M  V30 9 1 9 10
M  V30 10 2 10 11
M  V30 11 1 11 12
M  V30 12 2 12 13
M  V30 13 1 7 14
M  V30 14 2 14 15
M  V30 15 1 15 16
M  V30 16 1 16 17
M  V30 17 2 16 18
M  V30 18 1 18 19
M  V30 19 2 19 20
M  V30 20 1 20 21
M  V30 21 2 21 22
M  V30 22 1 2 23
M  V30 23 2 23 24
M  V30 24 1 24 25
M  V30 25 2 25 26
M  V30 26 1 26 27
M  V30 27 2 27 28
M  V30 28 1 28 29
M  V30 29 2 29 30
M  V30 30 1 30 31
M  V30 31 1 26 32
M  V30 32 2 32 33
M  V30 33 1 21 5
M  V30 34 1 33 23
M  V30 35 1 13 8
M  V30 36 1 20 14
M  V30 37 1 31 27
M  V30 38 1 3 34
M  V30 39 1 4 35
M  V30 40 1 4 36
M  V30 41 1 6 37
M  V30 42 1 9 38
M  V30 43 1 10 39
M  V30 44 1 11 40
M  V30 45 1 12 41
M  V30 46 1 13 42
M  V30 47 1 15 43
M  V30 48 1 18 44
M  V30 49 1 19 45
M  V30 50 1 24 46
M  V30 51 1 25 47
M  V30 52 1 28 48
M  V30 53 1 30 49
M  V30 54 1 32 50
M  V30 55 1 33 51
M  V30 END BOND
M  V30 END CTAB
M  END
>  <Dataset>  (551) 
ChEMBL_Kinases

>  <Ligand_Instance>  (551) 
nan

>  <PDB_ID>  (551) 
nan

>  <Standardized_SMILES>  (551) 
O=C(NCc1cn(-c2ccccc2)c2cc(Cl)ccc2c1=O)c1ccc(-c2cnco2)cc1

>  <Name>  (551) 
nan

>  <Pocket>  (551) 
nan

>  <ATP_Site>  (551) 
nan

>  <Peripheral>  (551) 
nan

>  <Num_H_Atoms_ProtBoundConf>  (551) 
nan

>  <Num_Resolved_Atoms>  (551) 
nan

>  <Num_Not_Resolved_Atoms>  (551) 
nan

$$$$
CHEMBL3679468
     RDKit          3D

  0  0  0  0  0  0  0  0  0  0999 V3000
M  V30 BEGIN CTAB
M  V30 COUNTS 62 66 0 0 0
M  V30 BEGIN ATOM
M  V30 1 C 1.625293 1.323376 5.867104 0
M  V30 2 O 0.820201 2.277737 5.201353 0
M  V30 3 C 1.396441 3.509456 4.924473 0
M  V30 4 C 2.694978 3.815643 5.273791 0
M  V30 5 C 3.265081 5.046380 4.997039 0
M  V30 6 C 2.495670 6.014055 4.339448 0
M  V30 7 C 1.217802 5.634670 4.025898 0
M  V30 8 C 0.594228 4.429211 4.272927 0
M  V30 9 C -0.810972 4.247353 3.826741 0
M  V30 10 N -0.920842 3.464575 2.615716 0
M  V30 11 C -1.060495 2.129859 2.552635 0
M  V30 12 C -1.156102 1.489265 1.342191 0
M  V30 13 C -1.119951 2.122122 0.122441 0
M  V30 14 C -1.212693 1.463245 -1.169438 0
M  V30 15 O -1.230599 2.095274 -2.279305 0
M  V30 16 N -1.292826 0.070798 -1.339239 0
M  V30 17 C -1.389015 -0.641464 -2.600676 0
M  V30 18 C -1.448632 -2.110622 -2.390624 0
M  V30 19 C -0.412857 -2.975088 -2.632065 0
M  V30 20 N -0.472763 -4.306099 -2.446494 0
M  V30 21 C 0.617889 -5.180037 -2.705789 0
M  V30 22 C 1.354991 -5.582017 -1.614021 0
M  V30 23 C 2.435923 -6.429692 -1.725546 0
M  V30 24 C 2.788810 -6.890759 -2.985989 0
M  V30 25 C 2.061231 -6.498096 -4.092508 0
M  V30 26 C 0.972106 -5.643822 -3.977935 0
M  V30 27 C -1.629750 -4.821175 -1.991949 0
M  V30 28 C -1.746149 -6.173790 -1.779170 0
M  V30 29 C -2.893997 -6.807498 -1.308697 0
M  V30 30 Cl -2.946182 -8.536024 -1.068915 0
M  V30 31 C -3.972796 -5.999915 -1.047081 0
M  V30 32 C -3.908466 -4.615231 -1.245642 0
M  V30 33 C -2.746253 -4.021371 -1.715078 0
M  V30 34 C -2.649074 -2.651433 -1.918921 0
M  V30 35 O -3.682724 -1.994480 -1.652613 0
M  V30 36 C -0.976678 3.501186 0.168587 0
M  V30 37 C -0.884671 4.101129 1.405385 0
M  V30 38 O -0.755178 5.353486 1.422164 0
M  V30 39 H 1.052335 0.436395 6.204778 0
M  V30 40 H 2.068657 1.745615 6.818048 0
M  V30 41 H 2.452147 0.954368 5.232756 0
M  V30 42 H 3.268092 3.029768 5.789405 0
M  V30 43 H 4.286738 5.215192 5.299890 0
M  V30 44 H 2.926178 6.977407 4.117325 0
M  V30 45 H 0.651682 6.408532 3.518240 0
M  V30 46 H -1.375845 3.688656 4.608356 0
M  V30 47 H -1.282725 5.239137 3.614798 0
M  V30 48 H -1.104472 1.558468 3.460678 0
M  V30 49 H -1.266573 0.415758 1.354341 0
M  V30 50 H -1.281043 -0.521113 -0.454152 0
M  V30 51 H -2.207171 -0.250363 -3.237343 0
M  V30 52 H -0.449310 -0.439440 -3.165049 0
M  V30 53 H 0.517129 -2.566193 -2.997981 0
M  V30 54 H 1.149751 -5.268491 -0.577017 0
M  V30 55 H 3.078053 -6.805996 -0.940689 0
M  V30 56 H 3.586811 -7.551978 -3.296688 0
M  V30 57 H 2.242729 -6.792969 -5.134070 0
M  V30 58 H 0.358936 -5.296725 -4.797143 0
M  V30 59 H -0.904968 -6.837195 -1.980539 0
M  V30 60 H -4.866290 -6.485069 -0.681836 0
M  V30 61 H -4.787086 -4.000134 -1.025775 0
M  V30 62 H -0.935916 4.113921 -0.716824 0
M  V30 END ATOM
M  V30 BEGIN BOND
M  V30 1 1 1 2
M  V30 2 1 2 3
M  V30 3 2 3 4
M  V30 4 1 4 5
M  V30 5 2 5 6
M  V30 6 1 6 7
M  V30 7 2 7 8
M  V30 8 1 8 9
M  V30 9 1 9 10
M  V30 10 1 10 11
M  V30 11 2 11 12
M  V30 12 1 12 13
M  V30 13 1 13 14
M  V30 14 2 14 15
M  V30 15 1 14 16
M  V30 16 1 16 17
M  V30 17 1 17 18
M  V30 18 2 18 19
M  V30 19 1 19 20
M  V30 20 1 20 21
M  V30 21 2 21 22
M  V30 22 1 22 23
M  V30 23 2 23 24
M  V30 24 1 24 25
M  V30 25 2 25 26
M  V30 26 1 20 27
M  V30 27 2 27 28
M  V30 28 1 28 29
M  V30 29 1 29 30
M  V30 30 2 29 31
M  V30 31 1 31 32
M  V30 32 2 32 33
M  V30 33 1 33 34
M  V30 34 2 34 35
M  V30 35 2 13 36
M  V30 36 1 36 37
M  V30 37 2 37 38
M  V30 38 1 8 3
M  V30 39 1 37 10
M  V30 40 1 34 18
M  V30 41 1 26 21
M  V30 42 1 33 27
M  V30 43 1 1 39
M  V30 44 1 1 40
M  V30 45 1 1 41
M  V30 46 1 4 42
M  V30 47 1 5 43
M  V30 48 1 6 44
M  V30 49 1 7 45
M  V30 50 1 9 46
M  V30 51 1 9 47
M  V30 52 1 11 48
M  V30 53 1 12 49
M  V30 54 1 16 50
M  V30 55 1 17 51
M  V30 56 1 17 52
M  V30 57 1 19 53
M  V30 58 1 22 54
M  V30 59 1 23 55
M  V30 60 1 24 56
M  V30 61 1 25 57
M  V30 62 1 26 58
M  V30 63 1 28 59
M  V30 64 1 31 60
M  V30 65 1 32 61
M  V30 66 1 36 62
M  V30 END BOND
M  V30 END CTAB
M  END
>  <Dataset>  (552) 
ChEMBL_Kinases

>  <Ligand_Instance>  (552) 
nan

>  <PDB_ID>  (552) 
nan

>  <Standardized_SMILES>  (552) 
COc1ccccc1Cn1ccc(C(=O)NCc2cn(-c3ccccc3)c3cc(Cl)ccc3c2=O)cc1=O

>  <Name>  (552) 
nan

>  <Pocket>  (552) 
nan

>  <ATP_Site>  (552) 
nan

>  <Peripheral>  (552) 
nan

>  <Num_H_Atoms_ProtBoundConf>  (552) 
nan

>  <Num_Resolved_Atoms>  (552) 
nan

>  <Num_Not_Resolved_Atoms>  (552) 
nan

$$$$
CHEMBL3679469
     RDKit          3D

  0  0  0  0  0  0  0  0  0  0999 V3000
M  V30 BEGIN CTAB
M  V30 COUNTS 47 51 0 0 0
M  V30 BEGIN ATOM
M  V30 1 O -1.060470 -0.504954 -0.879136 0
M  V30 2 C -1.943524 -1.250164 -0.382808 0
M  V30 3 N -2.609130 -0.816152 0.775663 0
M  V30 4 C -2.343129 0.448248 1.445128 0
M  V30 5 C -0.934367 0.515297 1.884828 0
M  V30 6 C 0.020679 1.276739 1.220803 0
M  V30 7 N 1.297359 1.382615 1.559905 0
M  V30 8 C 2.234675 2.175707 0.847435 0
M  V30 9 C 2.844753 1.936938 -0.346685 0
M  V30 10 C 3.734737 2.856393 -0.862552 0
M  V30 11 C 4.068354 4.040487 -0.243854 0
M  V30 12 C 3.435990 4.275277 0.981675 0
M  V30 13 C 2.536720 3.364798 1.520734 0
M  V30 14 C 1.760019 0.706886 2.643274 0
M  V30 15 C 3.075404 0.795144 3.020034 0
M  V30 16 C 3.579251 0.114981 4.124011 0
M  V30 17 Cl 5.259658 0.206337 4.634207 0
M  V30 18 C 2.693521 -0.664865 4.838913 0
M  V30 19 C 1.347650 -0.772809 4.477268 0
M  V30 20 C 0.872536 -0.088030 3.377746 0
M  V30 21 C -0.461754 -0.169758 2.984589 0
M  V30 22 O -1.227918 -0.888262 3.662130 0
M  V30 23 C -2.196045 -2.511353 -1.066787 0
M  V30 24 C -1.463135 -2.816565 -2.193046 0
M  V30 25 N -1.663876 -3.973466 -2.858780 0
M  V30 26 C -2.571944 -4.874135 -2.467572 0
M  V30 27 N -2.977351 -6.073431 -2.919142 0
M  V30 28 C -3.955702 -6.548807 -2.109079 0
M  V30 29 N -4.193791 -5.649214 -1.114570 0
M  V30 30 C -3.345527 -4.635601 -1.344492 0
M  V30 31 C -3.128931 -3.445579 -0.671983 0
M  V30 32 H -3.336015 -1.472701 1.149673 0
M  V30 33 H -2.576110 1.311214 0.780357 0
M  V30 34 H -2.975195 0.511317 2.344167 0
M  V30 35 H -0.284526 1.838516 0.350254 0
M  V30 36 H 2.565820 1.009062 -0.803013 0
M  V30 37 H 4.199835 2.621686 -1.824672 0
M  V30 38 H 4.769036 4.729292 -0.683533 0
M  V30 39 H 3.701032 5.213273 1.470561 0
M  V30 40 H 2.122672 3.680576 2.480194 0
M  V30 41 H 3.787210 1.392184 2.484936 0
M  V30 42 H 3.069851 -1.212872 5.716911 0
M  V30 43 H 0.668962 -1.373706 5.030239 0
M  V30 44 H -0.708020 -2.166443 -2.595364 0
M  V30 45 H -4.489553 -7.487878 -2.200986 0
M  V30 46 H -4.888096 -5.712828 -0.324723 0
M  V30 47 H -3.721527 -3.237665 0.208737 0
M  V30 END ATOM
M  V30 BEGIN BOND
M  V30 1 2 1 2
M  V30 2 1 2 3
M  V30 3 1 3 4
M  V30 4 1 4 5
M  V30 5 2 5 6
M  V30 6 1 6 7
M  V30 7 1 7 8
M  V30 8 2 8 9
M  V30 9 1 9 10
M  V30 10 2 10 11
M  V30 11 1 11 12
M  V30 12 2 12 13
M  V30 13 1 7 14
M  V30 14 2 14 15
M  V30 15 1 15 16
M  V30 16 1 16 17
M  V30 17 2 16 18
M  V30 18 1 18 19
M  V30 19 2 19 20
M  V30 20 1 20 21
M  V30 21 2 21 22
M  V30 22 1 2 23
M  V30 23 2 23 24
M  V30 24 1 24 25
M  V30 25 2 25 26
M  V30 26 1 26 27
M  V30 27 2 27 28
M  V30 28 1 28 29
M  V30 29 1 29 30
M  V30 30 2 30 31
M  V30 31 1 21 5
M  V30 32 1 31 23
M  V30 33 1 13 8
M  V30 34 1 20 14
M  V30 35 1 30 26
M  V30 36 1 3 32
M  V30 37 1 4 33
M  V30 38 1 4 34
M  V30 39 1 6 35
M  V30 40 1 9 36
M  V30 41 1 10 37
M  V30 42 1 11 38
M  V30 43 1 12 39
M  V30 44 1 13 40
M  V30 45 1 15 41
M  V30 46 1 18 42
M  V30 47 1 19 43
M  V30 48 1 24 44
M  V30 49 1 28 45
M  V30 50 1 29 46
M  V30 51 1 31 47
M  V30 END BOND
M  V30 END CTAB
M  END
>  <Dataset>  (553) 
ChEMBL_Kinases

>  <Ligand_Instance>  (553) 
nan

>  <PDB_ID>  (553) 
nan

>  <Standardized_SMILES>  (553) 
O=C(NCc1cn(-c2ccccc2)c2cc(Cl)ccc2c1=O)c1cnc2nc[nH]c2c1

>  <Name>  (553) 
nan

>  <Pocket>  (553) 
nan

>  <ATP_Site>  (553) 
nan

>  <Peripheral>  (553) 
nan

>  <Num_H_Atoms_ProtBoundConf>  (553) 
nan

>  <Num_Resolved_Atoms>  (553) 
nan

>  <Num_Not_Resolved_Atoms>  (553) 
nan

$$$$
CHEMBL3679461
     RDKit          3D

  0  0  0  0  0  0  0  0  0  0999 V3000
M  V30 BEGIN CTAB
M  V30 COUNTS 52 55 0 0 0
M  V30 BEGIN ATOM
M  V30 1 C 3.098307 -2.697560 7.555290 0
M  V30 2 N 2.514350 -3.365923 6.411985 0
M  V30 3 C 2.702212 -4.802007 6.274738 0
M  V30 4 C 1.742224 -2.817557 5.358435 0
M  V30 5 C 2.364906 -2.070229 4.352103 0
M  V30 6 C 1.514959 -1.609012 3.368973 0
M  V30 7 C 2.066371 -0.813586 2.298027 0
M  V30 8 O 3.296609 -0.466071 2.379841 0
M  V30 9 N 1.417841 -0.348831 1.135293 0
M  V30 10 C 1.909800 0.451692 0.027416 0
M  V30 11 C 0.769024 0.456242 -0.960073 0
M  V30 12 C -0.174736 1.374993 -1.287020 0
M  V30 13 N -1.081632 1.052939 -2.216065 0
M  V30 14 C -2.062503 2.029863 -2.533450 0
M  V30 15 C -2.005252 2.870201 -3.637780 0
M  V30 16 C -3.026117 3.759951 -3.825230 0
M  V30 17 C -4.123257 3.905880 -3.011928 0
M  V30 18 C -4.141261 3.057161 -1.932783 0
M  V30 19 C -3.146167 2.106083 -1.644899 0
M  V30 20 C -1.138740 -0.123143 -2.864903 0
M  V30 21 C -2.131680 -0.350219 -3.815951 0
M  V30 22 C -2.148953 -1.572330 -4.452723 0
M  V30 23 Cl -3.406980 -1.889777 -5.663517 0
M  V30 24 C -1.207277 -2.555241 -4.160922 0
M  V30 25 C -0.220689 -2.321937 -3.211641 0
M  V30 26 C -0.200564 -1.077368 -2.560764 0
M  V30 27 C 0.781417 -0.804194 -1.592848 0
M  V30 28 O 1.589646 -1.768770 -1.403551 0
M  V30 29 C 0.170909 -1.892554 3.425937 0
M  V30 30 C -0.391325 -2.636776 4.446964 0
M  V30 31 N 0.405847 -3.104454 5.424975 0
M  V30 32 H 2.326853 -2.106763 8.078116 0
M  V30 33 H 3.588347 -3.409598 8.238810 0
M  V30 34 H 3.831823 -1.914536 7.192069 0
M  V30 35 H 3.282651 -5.237268 7.120549 0
M  V30 36 H 1.673866 -5.278187 6.246905 0
M  V30 37 H 3.182090 -5.090872 5.326482 0
M  V30 38 H 3.421910 -1.896681 4.384961 0
M  V30 39 H 0.408022 -0.696645 1.173753 0
M  V30 40 H 2.033416 1.524175 0.347418 0
M  V30 41 H 2.822934 0.080378 -0.408515 0
M  V30 42 H -0.060630 2.283621 -0.729091 0
M  V30 43 H -1.156186 2.784568 -4.298121 0
M  V30 44 H -2.943701 4.396737 -4.699786 0
M  V30 45 H -4.909666 4.624160 -3.197451 0
M  V30 46 H -4.991784 3.124019 -1.244379 0
M  V30 47 H -3.292921 1.505501 -0.756933 0
M  V30 48 H -2.838115 0.449349 -4.000343 0
M  V30 49 H -1.260898 -3.504216 -4.690825 0
M  V30 50 H 0.515831 -3.075680 -2.980273 0
M  V30 51 H -0.551172 -1.570297 2.698147 0
M  V30 52 H -1.455619 -2.865775 4.498268 0
M  V30 END ATOM
M  V30 BEGIN BOND
M  V30 1 1 1 2
M  V30 2 1 2 3
M  V30 3 1 2 4
M  V30 4 2 4 5
M  V30 5 1 5 6
M  V30 6 1 6 7
M  V30 7 2 7 8
M  V30 8 1 7 9
M  V30 9 1 9 10
M  V30 10 1 10 11
M  V30 11 2 11 12
M  V30 12 1 12 13
M  V30 13 1 13 14
M  V30 14 2 14 15
M  V30 15 1 15 16
M  V30 16 2 16 17
M  V30 17 1 17 18
M  V30 18 2 18 19
M  V30 19 1 13 20
M  V30 20 2 20 21
M  V30 21 1 21 22
M  V30 22 1 22 23
M  V30 23 2 22 24
M  V30 24 1 24 25
M  V30 25 2 25 26
M  V30 26 1 26 27
M  V30 27 2 27 28
M  V30 28 2 6 29
M  V30 29 1 29 30
M  V30 30 2 30 31
M  V30 31 1 31 4
M  V30 32 1 27 11
M  V30 33 1 19 14
M  V30 34 1 26 20
M  V30 35 1 1 32
M  V30 36 1 1 33
M  V30 37 1 1 34
M  V30 38 1 3 35
M  V30 39 1 3 36
M  V30 40 1 3 37
M  V30 41 1 5 38
M  V30 42 1 9 39
M  V30 43 1 10 40
M  V30 44 1 10 41
M  V30 45 1 12 42
M  V30 46 1 15 43
M  V30 47 1 16 44
M  V30 48 1 17 45
M  V30 49 1 18 46
M  V30 50 1 19 47
M  V30 51 1 21 48
M  V30 52 1 24 49
M  V30 53 1 25 50
M  V30 54 1 29 51
M  V30 55 1 30 52
M  V30 END BOND
M  V30 END CTAB
M  END
>  <Dataset>  (554) 
ChEMBL_Kinases

>  <Ligand_Instance>  (554) 
nan

>  <PDB_ID>  (554) 
nan

>  <Standardized_SMILES>  (554) 
CN(C)c1cc(C(=O)NCc2cn(-c3ccccc3)c3cc(Cl)ccc3c2=O)ccn1

>  <Name>  (554) 
nan

>  <Pocket>  (554) 
nan

>  <ATP_Site>  (554) 
nan

>  <Peripheral>  (554) 
nan

>  <Num_H_Atoms_ProtBoundConf>  (554) 
nan

>  <Num_Resolved_Atoms>  (554) 
nan

>  <Num_Not_Resolved_Atoms>  (554) 
nan

$$$$
CHEMBL3675708
     RDKit          3D

  0  0  0  0  0  0  0  0  0  0999 V3000
M  V30 BEGIN CTAB
M  V30 COUNTS 65 69 0 0 0
M  V30 BEGIN ATOM
M  V30 1 C 6.284733 -1.426148 4.453937 0
M  V30 2 O 5.928268 -1.754998 3.121857 0
M  V30 3 C 5.163230 -0.912784 2.328999 0
M  V30 4 C 4.641304 0.316113 2.661881 0
M  V30 5 C 3.898166 1.018464 1.737384 0
M  V30 6 C 3.631915 0.552421 0.447899 0
M  V30 7 C 2.811811 1.485328 -0.363656 0 CFG=1
M  V30 8 C 3.229722 1.305014 -1.806236 0 CFG=1
M  V30 9 C 2.456591 2.217782 -2.731542 0
M  V30 10 C 3.441325 2.558291 -3.830880 0
M  V30 11 C 4.791045 2.155876 -3.305180 0
M  V30 12 N 4.616590 1.545481 -2.010649 0
M  V30 13 N 1.415728 1.202221 -0.155214 0
M  V30 14 C 0.918223 -0.053941 -0.237473 0
M  V30 15 C -0.422579 -0.385554 -0.045344 0
M  V30 16 C -1.307745 0.632055 0.249024 0
M  V30 17 C -2.709049 0.276848 0.449139 0
M  V30 18 C -3.702561 1.184459 0.747488 0
M  V30 19 C -5.001229 0.749188 0.918557 0
M  V30 20 N -5.294013 -0.564163 0.793112 0
M  V30 21 C -4.321177 -1.460757 0.499936 0
M  V30 22 N -4.651379 -2.842075 0.371966 0
M  V30 23 C -6.040717 -3.212862 0.567977 0
M  V30 24 C -6.271052 -4.696193 0.406264 0
M  V30 25 C -6.052043 -5.448544 1.705469 0
M  V30 26 O -6.966508 -5.093010 2.693307 0
M  V30 27 C -7.512033 -3.842076 2.427685 0
M  V30 28 C -6.417473 -2.880926 2.005961 0
M  V30 29 N -3.050246 -1.018700 0.334671 0
M  V30 30 C -0.823330 1.921972 0.338151 0
M  V30 31 C 0.532335 2.195935 0.135610 0
M  V30 32 O 0.909075 3.400883 0.232291 0
M  V30 33 C 4.160273 -0.677631 0.129613 0
M  V30 34 C 4.903043 -1.377482 1.056578 0
M  V30 35 F 5.344676 -2.573888 0.566047 0
M  V30 36 H 6.497261 -2.396502 4.957996 0
M  V30 37 H 5.517938 -0.828899 4.981420 0
M  V30 38 H 7.235216 -0.845823 4.462105 0
M  V30 39 H 4.858491 0.656683 3.661138 0
M  V30 40 H 3.541877 1.978938 2.127040 0
M  V30 41 H 3.001993 2.541711 -0.089567 0
M  V30 42 H 2.998094 0.252923 -2.130656 0
M  V30 43 H 2.180390 3.136337 -2.190192 0
M  V30 44 H 1.599097 1.711589 -3.220658 0
M  V30 45 H 3.276961 1.963583 -4.761457 0
M  V30 46 H 3.387138 3.632822 -4.136468 0
M  V30 47 H 5.371426 1.510017 -4.005169 0
M  V30 48 H 5.389288 3.089827 -3.184008 0
M  V30 49 H 5.230154 0.701314 -1.988185 0
M  V30 50 H 1.574205 -0.870543 -0.464067 0
M  V30 51 H -0.736449 -1.425642 -0.130721 0
M  V30 52 H -3.449065 2.225816 0.843138 0
M  V30 53 H -5.813361 1.431945 1.154329 0
M  V30 54 H -3.892862 -3.521189 0.146114 0
M  V30 55 H -6.668497 -2.627962 -0.140274 0
M  V30 56 H -7.346490 -4.862337 0.114862 0
M  V30 57 H -5.597555 -5.168882 -0.335779 0
M  V30 58 H -6.207631 -6.519276 1.498622 0
M  V30 59 H -5.019342 -5.321133 2.037433 0
M  V30 60 H -7.962306 -3.455195 3.375551 0
M  V30 61 H -8.330371 -3.878976 1.702714 0
M  V30 62 H -6.787698 -1.849602 2.125720 0
M  V30 63 H -5.501053 -3.086285 2.606711 0
M  V30 64 H -1.496558 2.724900 0.565897 0
M  V30 65 H 3.933727 -1.004567 -0.873428 0
M  V30 END ATOM
M  V30 BEGIN BOND
M  V30 1 1 1 2
M  V30 2 1 2 3
M  V30 3 2 3 4
M  V30 4 1 4 5
M  V30 5 2 5 6
M  V30 6 1 6 7
M  V30 7 1 7 8
M  V30 8 1 8 9
M  V30 9 1 9 10
M  V30 10 1 10 11
M  V30 11 1 11 12
M  V30 12 1 7 13
M  V30 13 1 13 14
M  V30 14 2 14 15
M  V30 15 1 15 16
M  V30 16 1 16 17
M  V30 17 2 17 18
M  V30 18 1 18 19
M  V30 19 2 19 20
M  V30 20 1 20 21
M  V30 21 1 21 22
M  V30 22 1 22 23
M  V30 23 1 23 24
M  V30 24 1 24 25
M  V30 25 1 25 26
M  V30 26 1 26 27
M  V30 27 1 27 28
M  V30 28 2 21 29
M  V30 29 2 16 30
M  V30 30 1 30 31
M  V30 31 2 31 32
M  V30 32 1 6 33
M  V30 33 2 33 34
M  V30 34 1 34 35
M  V30 35 1 34 3
M  V30 36 1 12 8
M  V30 37 1 31 13
M  V30 38 1 29 17
M  V30 39 1 28 23
M  V30 40 1 1 36
M  V30 41 1 1 37
M  V30 42 1 1 38
M  V30 43 1 4 39
M  V30 44 1 5 40
M  V30 45 1 7 41 CFG=1
M  V30 46 1 8 42 CFG=3
M  V30 47 1 9 43
M  V30 48 1 9 44
M  V30 49 1 10 45
M  V30 50 1 10 46
M  V30 51 1 11 47
M  V30 52 1 11 48
M  V30 53 1 12 49
M  V30 54 1 14 50
M  V30 55 1 15 51
M  V30 56 1 18 52
M  V30 57 1 19 53
M  V30 58 1 22 54
M  V30 59 1 23 55
M  V30 60 1 24 56
M  V30 61 1 24 57
M  V30 62 1 25 58
M  V30 63 1 25 59
M  V30 64 1 27 60
M  V30 65 1 27 61
M  V30 66 1 28 62
M  V30 67 1 28 63
M  V30 68 1 30 64
M  V30 69 1 33 65
M  V30 END BOND
M  V30 END CTAB
M  END
>  <Dataset>  (555) 
ChEMBL_Kinases

>  <Ligand_Instance>  (555) 
nan

>  <PDB_ID>  (555) 
nan

>  <Standardized_SMILES>  (555) 
COc1ccc([C@@H]([C@H]2CCCN2)n2ccc(-c3ccnc(NC4CCOCC4)n3)cc2=O)cc1F

>  <Name>  (555) 
nan

>  <Pocket>  (555) 
nan

>  <ATP_Site>  (555) 
nan

>  <Peripheral>  (555) 
nan

>  <Num_H_Atoms_ProtBoundConf>  (555) 
nan

>  <Num_Resolved_Atoms>  (555) 
nan

>  <Num_Not_Resolved_Atoms>  (555) 
nan

$$$$
CHEMBL3675707
     RDKit          3D

  0  0  0  0  0  0  0  0  0  0999 V3000
M  V30 BEGIN CTAB
M  V30 COUNTS 54 58 0 0 0
M  V30 BEGIN ATOM
M  V30 1 O -2.026596 -4.829847 0.968891 0
M  V30 2 C -1.533913 -3.680347 1.033509 0
M  V30 3 C -0.261699 -3.432489 1.502186 0
M  V30 4 C 0.253618 -2.154640 1.561420 0
M  V30 5 C 1.589267 -1.822042 2.045433 0
M  V30 6 C 2.479921 -2.771658 2.498087 0
M  V30 7 C 3.747527 -2.466285 2.958567 0
M  V30 8 N 4.118078 -1.162761 2.958514 0
M  V30 9 C 3.252152 -0.213257 2.515516 0
M  V30 10 N 3.607441 1.165774 2.501132 0
M  V30 11 C 2.711942 2.197123 2.037564 0 CFG=2
M  V30 12 C 2.307241 1.992727 0.583288 0
M  V30 13 C 2.744498 3.302419 -0.084841 0 CFG=2
M  V30 14 C 4.076242 3.477121 0.646297 0
M  V30 15 C 3.403261 3.514593 2.022366 0 CFG=1
M  V30 16 C 2.380883 4.567904 1.714739 0
M  V30 17 O 2.024250 4.389905 0.383026 0
M  V30 18 N 2.025744 -0.545129 2.074040 0
M  V30 19 C -0.565404 -1.132274 1.128606 0
M  V30 20 C -1.833026 -1.431471 0.667420 0
M  V30 21 N -2.336975 -2.697125 0.611242 0
M  V30 22 C -3.684158 -2.762825 0.094004 0 CFG=2
M  V30 23 C -4.465346 -3.957411 0.522048 0
M  V30 24 O -4.563104 -3.965009 1.925029 0
M  V30 25 C -3.639493 -2.698014 -1.399396 0
M  V30 26 C -3.486385 -3.790677 -2.226503 0
M  V30 27 C -3.452244 -3.685049 -3.600644 0
M  V30 28 C -3.572480 -2.456763 -4.211339 0
M  V30 29 Cl -3.512637 -2.463304 -5.966837 0
M  V30 30 C -3.727244 -1.336600 -3.428277 0
M  V30 31 F -3.839166 -0.171282 -4.071179 0
M  V30 32 C -3.757169 -1.475116 -2.068183 0
M  V30 33 H 0.352163 -4.252947 1.832592 0
M  V30 34 H 2.217847 -3.801734 2.510123 0
M  V30 35 H 4.436551 -3.224741 3.311390 0
M  V30 36 H 4.574647 1.426419 2.849382 0
M  V30 37 H 1.783375 2.265324 2.616916 0
M  V30 38 H 1.222363 1.929301 0.442845 0
M  V30 39 H 2.870927 1.200463 0.086321 0
M  V30 40 H 2.845713 3.247230 -1.149995 0
M  V30 41 H 4.713588 2.593212 0.525744 0
M  V30 42 H 4.544489 4.442841 0.406162 0
M  V30 43 H 4.070150 3.729651 2.840350 0
M  V30 44 H 2.755724 5.594062 1.910108 0
M  V30 45 H 1.504768 4.376016 2.376140 0
M  V30 46 H -0.182378 -0.122435 1.165990 0
M  V30 47 H -2.395094 -0.554919 0.351548 0
M  V30 48 H -4.278120 -1.855725 0.399628 0
M  V30 49 H -4.165029 -4.909208 0.090563 0
M  V30 50 H -5.533464 -3.790502 0.187548 0
M  V30 51 H -5.313198 -3.406639 2.246635 0
M  V30 52 H -3.390171 -4.755646 -1.782092 0
M  V30 53 H -3.327037 -4.607726 -4.178445 0
M  V30 54 H -3.881882 -0.551941 -1.526484 0
M  V30 END ATOM
M  V30 BEGIN BOND
M  V30 1 2 1 2
M  V30 2 1 2 3
M  V30 3 2 3 4
M  V30 4 1 4 5
M  V30 5 2 5 6
M  V30 6 1 6 7
M  V30 7 2 7 8
M  V30 8 1 8 9
M  V30 9 1 9 10
M  V30 10 1 10 11
M  V30 11 1 11 12
M  V30 12 1 12 13
M  V30 13 1 13 14
M  V30 14 1 14 15
M  V30 15 1 15 16
M  V30 16 1 16 17
M  V30 17 2 9 18
M  V30 18 1 4 19
M  V30 19 2 19 20
M  V30 20 1 20 21
M  V30 21 1 21 22
M  V30 22 1 22 23
M  V30 23 1 23 24
M  V30 24 1 22 25
M  V30 25 2 25 26
M  V30 26 1 26 27
M  V30 27 2 27 28
M  V30 28 1 28 29
M  V30 29 1 28 30
M  V30 30 1 30 31
M  V30 31 2 30 32
M  V30 32 1 21 2
M  V30 33 1 32 25
M  V30 34 1 18 5
M  V30 35 1 15 11
M  V30 36 1 17 13
M  V30 37 1 3 33
M  V30 38 1 6 34
M  V30 39 1 7 35
M  V30 40 1 10 36
M  V30 41 1 11 37 CFG=1
M  V30 42 1 12 38
M  V30 43 1 12 39
M  V30 44 1 13 40 CFG=3
M  V30 45 1 14 41
M  V30 46 1 14 42
M  V30 47 1 15 43 CFG=1
M  V30 48 1 16 44
M  V30 49 1 16 45
M  V30 50 1 19 46
M  V30 51 1 20 47
M  V30 52 1 22 48 CFG=1
M  V30 53 1 23 49
M  V30 54 1 23 50
M  V30 55 1 24 51
M  V30 56 1 26 52
M  V30 57 1 27 53
M  V30 58 1 32 54
M  V30 END BOND
M  V30 END CTAB
M  END
>  <Dataset>  (556) 
ChEMBL_Kinases

>  <Ligand_Instance>  (556) 
nan

>  <PDB_ID>  (556) 
nan

>  <Standardized_SMILES>  (556) 
O=c1cc(-c2ccnc(N[C@@H]3C[C@@H]4C[C@H]3CO4)n2)ccn1[C@H](CO)c1ccc(Cl)c(F)c1

>  <Name>  (556) 
nan

>  <Pocket>  (556) 
nan

>  <ATP_Site>  (556) 
nan

>  <Peripheral>  (556) 
nan

>  <Num_H_Atoms_ProtBoundConf>  (556) 
nan

>  <Num_Resolved_Atoms>  (556) 
nan

>  <Num_Not_Resolved_Atoms>  (556) 
nan

$$$$
CHEMBL3675706
     RDKit          3D

  0  0  0  0  0  0  0  0  0  0999 V3000
M  V30 BEGIN CTAB
M  V30 COUNTS 53 56 0 0 0
M  V30 BEGIN ATOM
M  V30 1 O -1.830041 -1.602865 2.524122 0
M  V30 2 C -1.207798 -1.808981 1.427031 0
M  V30 3 C -0.338710 -0.872469 0.905067 0
M  V30 4 F -0.201234 0.251438 1.625049 0
M  V30 5 C 0.332655 -1.095161 -0.278826 0
M  V30 6 C 1.243464 -0.090227 -0.809297 0
M  V30 7 C 1.913190 -0.288038 -1.997550 0
M  V30 8 C 2.791704 0.633167 -2.555264 0
M  V30 9 N 2.987642 1.792178 -1.871210 0
M  V30 10 C 2.331012 2.001053 -0.693402 0
M  V30 11 N 2.540515 3.219322 0.015317 0
M  V30 12 C 1.897303 3.544680 1.283901 0
M  V30 13 C 2.321333 4.938902 1.764075 0
M  V30 14 C 3.544209 4.820134 2.634502 0
M  V30 15 O 4.450522 3.886176 2.132333 0
M  V30 16 C 3.947395 2.593068 2.191726 0
M  V30 17 C 2.439395 2.593318 2.358497 0
M  V30 18 N 1.492003 1.080373 -0.195447 0
M  V30 19 C 0.057983 -2.308522 -0.870926 0
M  V30 20 C -0.814772 -3.228969 -0.330269 0
M  V30 21 N -1.441922 -2.968498 0.819002 0
M  V30 22 C -2.349495 -3.939610 1.369938 0 CFG=2
M  V30 23 C -1.619297 -5.252862 1.550735 0
M  V30 24 O -0.528257 -5.104922 2.420770 0
M  V30 25 C -3.536867 -4.163505 0.534593 0
M  V30 26 C -3.674495 -5.098448 -0.481895 0
M  V30 27 C -4.845696 -5.221494 -1.206916 0
M  V30 28 C -5.928166 -4.413322 -0.944299 0
M  V30 29 Cl -7.444326 -4.516118 -1.825797 0
M  V30 30 C -5.862739 -3.461327 0.052367 0
M  V30 31 F -6.884570 -2.629774 0.369636 0
M  V30 32 C -4.673108 -3.376085 0.748608 0
M  V30 33 H 1.807294 -1.173093 -2.586496 0
M  V30 34 H 3.311249 0.467050 -3.487878 0
M  V30 35 H 3.195446 3.941330 -0.383870 0
M  V30 36 H 0.799398 3.492209 1.197929 0
M  V30 37 H 2.439046 5.614791 0.901286 0
M  V30 38 H 1.469809 5.272316 2.417384 0
M  V30 39 H 3.286656 4.633683 3.687456 0
M  V30 40 H 4.066317 5.810051 2.609507 0
M  V30 41 H 4.373810 2.000648 3.020924 0
M  V30 42 H 4.159431 2.069331 1.236720 0
M  V30 43 H 2.057061 1.573965 2.260235 0
M  V30 44 H 2.158374 2.959778 3.348531 0
M  V30 45 H 0.547211 -2.551709 -1.800449 0
M  V30 46 H -0.970786 -4.160282 -0.866461 0
M  V30 47 H -2.722047 -3.613284 2.373976 0
M  V30 48 H -2.266221 -6.018341 2.014750 0
M  V30 49 H -1.205130 -5.578987 0.583258 0
M  V30 50 H 0.336885 -5.377711 1.990071 0
M  V30 51 H -2.810291 -5.720460 -0.668026 0
M  V30 52 H -4.940683 -5.945307 -1.987832 0
M  V30 53 H -4.615596 -2.622571 1.540418 0
M  V30 END ATOM
M  V30 BEGIN BOND
M  V30 1 2 1 2
M  V30 2 1 2 3
M  V30 3 1 3 4
M  V30 4 2 3 5
M  V30 5 1 5 6
M  V30 6 2 6 7
M  V30 7 1 7 8
M  V30 8 2 8 9
M  V30 9 1 9 10
M  V30 10 1 10 11
M  V30 11 1 11 12
M  V30 12 1 12 13
M  V30 13 1 13 14
M  V30 14 1 14 15
M  V30 15 1 15 16
M  V30 16 1 16 17
M  V30 17 2 10 18
M  V30 18 1 5 19
M  V30 19 2 19 20
M  V30 20 1 20 21
M  V30 21 1 21 22
M  V30 22 1 22 23
M  V30 23 1 23 24
M  V30 24 1 22 25
M  V30 25 2 25 26
M  V30 26 1 26 27
M  V30 27 2 27 28
M  V30 28 1 28 29
M  V30 29 1 28 30
M  V30 30 1 30 31
M  V30 31 2 30 32
M  V30 32 1 21 2
M  V30 33 1 32 25
M  V30 34 1 18 6
M  V30 35 1 17 12
M  V30 36 1 7 33
M  V30 37 1 8 34
M  V30 38 1 11 35
M  V30 39 1 12 36
M  V30 40 1 13 37
M  V30 41 1 13 38
M  V30 42 1 14 39
M  V30 43 1 14 40
M  V30 44 1 16 41
M  V30 45 1 16 42
M  V30 46 1 17 43
M  V30 47 1 17 44
M  V30 48 1 19 45
M  V30 49 1 20 46
M  V30 50 1 22 47 CFG=1
M  V30 51 1 23 48
M  V30 52 1 23 49
M  V30 53 1 24 50
M  V30 54 1 26 51
M  V30 55 1 27 52
M  V30 56 1 32 53
M  V30 END BOND
M  V30 END CTAB
M  END
>  <Dataset>  (557) 
ChEMBL_Kinases

>  <Ligand_Instance>  (557) 
nan

>  <PDB_ID>  (557) 
nan

>  <Standardized_SMILES>  (557) 
O=c1c(F)c(-c2ccnc(NC3CCOCC3)n2)ccn1[C@H](CO)c1ccc(Cl)c(F)c1

>  <Name>  (557) 
nan

>  <Pocket>  (557) 
nan

>  <ATP_Site>  (557) 
nan

>  <Peripheral>  (557) 
nan

>  <Num_H_Atoms_ProtBoundConf>  (557) 
nan

>  <Num_Resolved_Atoms>  (557) 
nan

>  <Num_Not_Resolved_Atoms>  (557) 
nan

$$$$
CHEMBL3675705
     RDKit          3D

  0  0  0  0  0  0  0  0  0  0999 V3000
M  V30 BEGIN CTAB
M  V30 COUNTS 53 56 0 0 0
M  V30 BEGIN ATOM
M  V30 1 O -1.216605 -5.024845 0.537982 0
M  V30 2 C -0.796723 -3.842817 0.365373 0
M  V30 3 C 0.479783 -3.492180 0.752846 0
M  V30 4 C 0.933776 -2.204696 0.563774 0
M  V30 5 C 2.269635 -1.766656 0.951833 0
M  V30 6 C 3.190401 -2.594980 1.544629 0
M  V30 7 C 4.430156 -2.091811 1.879281 0
M  V30 8 N 4.747223 -0.807940 1.634116 0
M  V30 9 C 3.845580 0.018181 1.049225 0
M  V30 10 N 4.192407 1.372243 0.795207 0
M  V30 11 C 3.291421 2.321736 0.174986 0
M  V30 12 C 2.072308 2.444221 1.058932 0
M  V30 13 C 2.294982 3.654225 1.957376 0
M  V30 14 O 2.190032 4.796370 1.185071 0
M  V30 15 C 2.785421 4.680471 -0.046325 0
M  V30 16 C 3.931953 3.666378 -0.025704 0
M  V30 17 N 2.667316 -0.501017 0.742821 0
M  V30 18 C 0.075133 -1.296205 -0.018570 0
M  V30 19 F 0.473343 -0.012136 -0.228451 0
M  V30 20 C -1.185031 -1.730277 -0.376341 0
M  V30 21 N -1.663576 -2.973094 -0.209272 0
M  V30 22 C -2.989127 -3.387004 -0.596773 0 CFG=2
M  V30 23 C -3.407362 -2.797991 -1.914942 0
M  V30 24 O -4.699021 -3.206915 -2.283953 0
M  V30 25 C -3.985947 -2.989483 0.427411 0
M  V30 26 C -4.283045 -3.891174 1.453158 0
M  V30 27 C -5.180534 -3.648442 2.459715 0
M  V30 28 C -5.853468 -2.444894 2.494220 0
M  V30 29 Cl -7.009184 -2.064078 3.742105 0
M  V30 30 C -5.575657 -1.541301 1.492528 0
M  V30 31 F -6.183035 -0.324928 1.431629 0
M  V30 32 C -4.670890 -1.792291 0.482060 0
M  V30 33 H 1.101229 -4.230171 1.196193 0
M  V30 34 H 2.957941 -3.612444 1.746327 0
M  V30 35 H 5.213071 -2.673000 2.347902 0
M  V30 36 H 5.136868 1.724111 1.059380 0
M  V30 37 H 3.005064 1.852042 -0.806537 0
M  V30 38 H 1.140451 2.534352 0.462460 0
M  V30 39 H 1.997307 1.561026 1.704410 0
M  V30 40 H 1.624281 3.647591 2.824357 0
M  V30 41 H 3.334990 3.589350 2.335930 0
M  V30 42 H 3.186281 5.674903 -0.331675 0
M  V30 43 H 2.042294 4.418620 -0.828939 0
M  V30 44 H 4.397454 3.705556 -1.031947 0
M  V30 45 H 4.598806 3.967683 0.777937 0
M  V30 46 H -1.807363 -0.972957 -0.825578 0
M  V30 47 H -2.979113 -4.504944 -0.641647 0
M  V30 48 H -3.374902 -1.704496 -1.889471 0
M  V30 49 H -2.686678 -3.121068 -2.716377 0
M  V30 50 H -4.819646 -3.091768 -3.242313 0
M  V30 51 H -3.798218 -4.856730 1.498982 0
M  V30 52 H -5.391613 -4.363274 3.240402 0
M  V30 53 H -4.464105 -1.085033 -0.288143 0
M  V30 END ATOM
M  V30 BEGIN BOND
M  V30 1 2 1 2
M  V30 2 1 2 3
M  V30 3 2 3 4
M  V30 4 1 4 5
M  V30 5 2 5 6
M  V30 6 1 6 7
M  V30 7 2 7 8
M  V30 8 1 8 9
M  V30 9 1 9 10
M  V30 10 1 10 11
M  V30 11 1 11 12
M  V30 12 1 12 13
M  V30 13 1 13 14
M  V30 14 1 14 15
M  V30 15 1 15 16
M  V30 16 2 9 17
M  V30 17 1 4 18
M  V30 18 1 18 19
M  V30 19 2 18 20
M  V30 20 1 20 21
M  V30 21 1 21 22
M  V30 22 1 22 23
M  V30 23 1 23 24
M  V30 24 1 22 25
M  V30 25 2 25 26
M  V30 26 1 26 27
M  V30 27 2 27 28
M  V30 28 1 28 29
M  V30 29 1 28 30
M  V30 30 1 30 31
M  V30 31 2 30 32
M  V30 32 1 21 2
M  V30 33 1 32 25
M  V30 34 1 17 5
M  V30 35 1 16 11
M  V30 36 1 3 33
M  V30 37 1 6 34
M  V30 38 1 7 35
M  V30 39 1 10 36
M  V30 40 1 11 37
M  V30 41 1 12 38
M  V30 42 1 12 39
M  V30 43 1 13 40
M  V30 44 1 13 41
M  V30 45 1 15 42
M  V30 46 1 15 43
M  V30 47 1 16 44
M  V30 48 1 16 45
M  V30 49 1 20 46
M  V30 50 1 22 47 CFG=3
M  V30 51 1 23 48
M  V30 52 1 23 49
M  V30 53 1 24 50
M  V30 54 1 26 51
M  V30 55 1 27 52
M  V30 56 1 32 53
M  V30 END BOND
M  V30 END CTAB
M  END
>  <Dataset>  (558) 
ChEMBL_Kinases

>  <Ligand_Instance>  (558) 
nan

>  <PDB_ID>  (558) 
nan

>  <Standardized_SMILES>  (558) 
O=c1cc(-c2ccnc(NC3CCOCC3)n2)c(F)cn1[C@H](CO)c1ccc(Cl)c(F)c1

>  <Name>  (558) 
nan

>  <Pocket>  (558) 
nan

>  <ATP_Site>  (558) 
nan

>  <Peripheral>  (558) 
nan

>  <Num_H_Atoms_ProtBoundConf>  (558) 
nan

>  <Num_Resolved_Atoms>  (558) 
nan

>  <Num_Not_Resolved_Atoms>  (558) 
nan

$$$$
CHEMBL3675704
     RDKit          3D

  0  0  0  0  0  0  0  0  0  0999 V3000
M  V30 BEGIN CTAB
M  V30 COUNTS 52 55 0 0 0
M  V30 BEGIN ATOM
M  V30 1 O -4.721123 -1.211631 0.699796 0
M  V30 2 C -3.493008 -1.327607 0.481181 0
M  V30 3 C -2.714585 -0.282498 0.958129 0
M  V30 4 C -1.350321 -0.343143 0.752793 0
M  V30 5 C -0.401930 0.675506 1.193617 0
M  V30 6 C -0.787845 1.814827 1.868901 0
M  V30 7 C 0.104915 2.780883 2.287736 0
M  V30 8 N 1.403819 2.566704 2.006232 0
M  V30 9 C 1.816286 1.467992 1.349937 0
M  V30 10 N 3.204194 1.276688 1.069788 0
M  V30 11 C 4.165388 2.258485 1.487778 0
M  V30 12 C 3.952083 3.629094 0.902460 0
M  V30 13 C 4.640060 4.616491 1.855363 0
M  V30 14 O 5.776001 4.042577 2.430063 0
M  V30 15 C 5.481400 3.066819 3.365213 0
M  V30 16 C 4.133866 2.452112 3.009759 0
M  V30 17 N 0.916060 0.548755 0.957800 0
M  V30 18 C -0.863056 -1.449507 0.082599 0
M  V30 19 N -1.684247 -2.426089 -0.351247 0
M  V30 20 N -3.006834 -2.408532 -0.174876 0
M  V30 21 C -3.851664 -3.461770 -0.648003 0 CFG=2
M  V30 22 C -4.704030 -4.130269 0.382107 0
M  V30 23 O -5.434788 -5.118012 -0.320563 0
M  V30 24 C -3.008811 -4.424582 -1.406824 0
M  V30 25 C -2.463279 -5.453602 -0.641497 0
M  V30 26 C -1.655579 -6.417734 -1.240072 0
M  V30 27 C -1.371961 -6.384274 -2.601855 0
M  V30 28 Cl -0.353061 -7.602590 -3.350460 0
M  V30 29 C -1.929673 -5.349607 -3.330670 0
M  V30 30 F -1.661919 -5.306636 -4.651559 0
M  V30 31 C -2.732745 -4.383059 -2.760090 0
M  V30 32 H -3.121064 0.560435 1.473188 0
M  V30 33 H -1.819710 1.992481 2.096655 0
M  V30 34 H -0.207421 3.678211 2.820652 0
M  V30 35 H 3.504834 0.415256 0.558751 0
M  V30 36 H 5.168525 1.937749 1.184549 0
M  V30 37 H 2.912163 3.920811 0.763864 0
M  V30 38 H 4.510080 3.692623 -0.068120 0
M  V30 39 H 3.949960 4.996932 2.630376 0
M  V30 40 H 4.988886 5.518042 1.305329 0
M  V30 41 H 5.487822 3.468234 4.391918 0
M  V30 42 H 6.261748 2.259946 3.288318 0
M  V30 43 H 3.995244 1.464398 3.523219 0
M  V30 44 H 3.335424 3.158039 3.263388 0
M  V30 45 H 0.217774 -1.532650 -0.099396 0
M  V30 46 H -4.571477 -3.057385 -1.419677 0
M  V30 47 H -5.500228 -3.415848 0.697412 0
M  V30 48 H -4.177582 -4.588380 1.218479 0
M  V30 49 H -5.991752 -5.669663 0.265612 0
M  V30 50 H -2.599584 -5.597703 0.409268 0
M  V30 51 H -1.209219 -7.238760 -0.678643 0
M  V30 52 H -3.173698 -3.575102 -3.304989 0
M  V30 END ATOM
M  V30 BEGIN BOND
M  V30 1 2 1 2
M  V30 2 1 2 3
M  V30 3 2 3 4
M  V30 4 1 4 5
M  V30 5 2 5 6
M  V30 6 1 6 7
M  V30 7 2 7 8
M  V30 8 1 8 9
M  V30 9 1 9 10
M  V30 10 1 10 11
M  V30 11 1 11 12
M  V30 12 1 12 13
M  V30 13 1 13 14
M  V30 14 1 14 15
M  V30 15 1 15 16
M  V30 16 2 9 17
M  V30 17 1 4 18
M  V30 18 2 18 19
M  V30 19 1 19 20
M  V30 20 1 20 21
M  V30 21 1 21 22
M  V30 22 1 22 23
M  V30 23 1 21 24
M  V30 24 2 24 25
M  V30 25 1 25 26
M  V30 26 2 26 27
M  V30 27 1 27 28
M  V30 28 1 27 29
M  V30 29 1 29 30
M  V30 30 2 29 31
M  V30 31 1 20 2
M  V30 32 1 31 24
M  V30 33 1 17 5
M  V30 34 1 16 11
M  V30 35 1 3 32
M  V30 36 1 6 33
M  V30 37 1 7 34
M  V30 38 1 10 35
M  V30 39 1 11 36
M  V30 40 1 12 37
M  V30 41 1 12 38
M  V30 42 1 13 39
M  V30 43 1 13 40
M  V30 44 1 15 41
M  V30 45 1 15 42
M  V30 46 1 16 43
M  V30 47 1 16 44
M  V30 48 1 18 45
M  V30 49 1 21 46 CFG=3
M  V30 50 1 22 47
M  V30 51 1 22 48
M  V30 52 1 23 49
M  V30 53 1 25 50
M  V30 54 1 26 51
M  V30 55 1 31 52
M  V30 END BOND
M  V30 END CTAB
M  END
>  <Dataset>  (559) 
ChEMBL_Kinases

>  <Ligand_Instance>  (559) 
nan

>  <PDB_ID>  (559) 
nan

>  <Standardized_SMILES>  (559) 
O=c1cc(-c2ccnc(NC3CCOCC3)n2)cnn1[C@H](CO)c1ccc(Cl)c(F)c1

>  <Name>  (559) 
nan

>  <Pocket>  (559) 
nan

>  <ATP_Site>  (559) 
nan

>  <Peripheral>  (559) 
nan

>  <Num_H_Atoms_ProtBoundConf>  (559) 
nan

>  <Num_Resolved_Atoms>  (559) 
nan

>  <Num_Not_Resolved_Atoms>  (559) 
nan

$$$$
CHEMBL3675703
     RDKit          3D

  0  0  0  0  0  0  0  0  0  0999 V3000
M  V30 BEGIN CTAB
M  V30 COUNTS 53 56 0 0 0
M  V30 BEGIN ATOM
M  V30 1 O -2.121268 -0.644610 -0.199667 0
M  V30 2 C -1.402764 -1.634015 0.063500 0
M  V30 3 C -0.337659 -1.446083 0.919421 0
M  V30 4 C 0.489356 -2.500407 1.246175 0
M  V30 5 C 1.598987 -2.253368 2.151148 0
M  V30 6 C 2.500423 -3.175258 2.575450 0
M  V30 7 C 3.547420 -2.945723 3.430871 0
M  V30 8 N 3.668486 -1.673160 3.877216 0
M  V30 9 C 2.791827 -0.708772 3.483476 0
M  V30 10 N 2.929475 0.624479 3.960508 0
M  V30 11 C 2.057131 1.719801 3.600610 0 CFG=1
M  V30 12 C 2.422591 3.024415 4.258340 0
M  V30 13 C 2.806566 4.111230 3.294710 0
M  V30 14 O 1.875047 4.360759 2.305868 0
M  V30 15 C 1.248319 3.206221 1.854479 0
M  V30 16 C 2.083208 1.971290 2.105022 0 CFG=1
M  V30 17 F 3.383799 2.121161 1.665584 0
M  V30 18 N 1.770730 -1.007341 2.628337 0
M  V30 19 C 0.219022 -3.734910 0.694854 0
M  V30 20 C -0.867538 -3.825952 -0.149969 0
M  V30 21 N -1.704826 -2.834843 -0.502202 0
M  V30 22 C -2.813391 -3.052260 -1.399740 0 CFG=2
M  V30 23 C -2.573383 -4.312353 -2.194733 0
M  V30 24 O -1.438989 -4.313033 -2.959354 0
M  V30 25 C -3.136874 -1.927225 -2.274269 0
M  V30 26 C -2.513468 -1.577417 -3.454376 0
M  V30 27 C -2.886718 -0.506460 -4.220322 0
M  V30 28 C -3.935779 0.298851 -3.837424 0
M  V30 29 Cl -4.479093 1.685521 -4.754424 0
M  V30 30 C -4.635091 0.032596 -2.658523 0
M  V30 31 Cl -5.984599 0.970738 -2.053476 0
M  V30 32 C -4.193711 -1.065655 -1.946254 0
M  V30 33 H -0.163105 -0.467467 1.326743 0
M  V30 34 H 2.401960 -4.194981 2.217121 0
M  V30 35 H 4.249833 -3.670990 3.759930 0
M  V30 36 H 3.707077 0.848579 4.616093 0
M  V30 37 H 1.020056 1.422434 3.860193 0
M  V30 38 H 1.563872 3.411632 4.861563 0
M  V30 39 H 3.272593 2.891427 4.948155 0
M  V30 40 H 3.836359 4.000620 2.902603 0
M  V30 41 H 2.846575 5.053900 3.907441 0
M  V30 42 H 0.326095 3.088575 2.484269 0
M  V30 43 H 0.920392 3.260928 0.794235 0
M  V30 44 H 1.606104 1.132649 1.560478 0
M  V30 45 H 0.854311 -4.551872 0.944006 0
M  V30 46 H -1.000755 -4.847758 -0.538730 0
M  V30 47 H -3.750779 -3.284909 -0.794426 0
M  V30 48 H -3.434239 -4.379101 -2.930127 0
M  V30 49 H -2.693000 -5.241793 -1.583861 0
M  V30 50 H -1.530251 -4.762060 -3.834455 0
M  V30 51 H -1.699084 -2.170882 -3.784712 0
M  V30 52 H -2.388746 -0.245404 -5.142168 0
M  V30 53 H -4.726433 -1.295723 -1.017583 0
M  V30 END ATOM
M  V30 BEGIN BOND
M  V30 1 2 1 2
M  V30 2 1 2 3
M  V30 3 2 3 4
M  V30 4 1 4 5
M  V30 5 2 5 6
M  V30 6 1 6 7
M  V30 7 2 7 8
M  V30 8 1 8 9
M  V30 9 1 9 10
M  V30 10 1 10 11
M  V30 11 1 11 12
M  V30 12 1 12 13
M  V30 13 1 13 14
M  V30 14 1 14 15
M  V30 15 1 15 16
M  V30 16 1 16 17
M  V30 17 2 9 18
M  V30 18 1 4 19
M  V30 19 2 19 20
M  V30 20 1 20 21
M  V30 21 1 21 22
M  V30 22 1 22 23
M  V30 23 1 23 24
M  V30 24 1 22 25
M  V30 25 2 25 26
M  V30 26 1 26 27
M  V30 27 2 27 28
M  V30 28 1 28 29
M  V30 29 1 28 30
M  V30 30 1 30 31
M  V30 31 2 30 32
M  V30 32 1 21 2
M  V30 33 1 32 25
M  V30 34 1 18 5
M  V30 35 1 16 11
M  V30 36 1 3 33
M  V30 37 1 6 34
M  V30 38 1 7 35
M  V30 39 1 10 36
M  V30 40 1 11 37 CFG=1
M  V30 41 1 12 38
M  V30 42 1 12 39
M  V30 43 1 13 40
M  V30 44 1 13 41
M  V30 45 1 15 42
M  V30 46 1 15 43
M  V30 47 1 16 44 CFG=3
M  V30 48 1 19 45
M  V30 49 1 20 46
M  V30 50 1 22 47 CFG=1
M  V30 51 1 23 48
M  V30 52 1 23 49
M  V30 53 1 24 50
M  V30 54 1 26 51
M  V30 55 1 27 52
M  V30 56 1 32 53
M  V30 END BOND
M  V30 END CTAB
M  END
>  <Dataset>  (560) 
ChEMBL_Kinases

>  <Ligand_Instance>  (560) 
nan

>  <PDB_ID>  (560) 
nan

>  <Standardized_SMILES>  (560) 
O=c1cc(-c2ccnc(N[C@H]3CCOC[C@H]3F)n2)ccn1[C@H](CO)c1ccc(Cl)c(Cl)c1

>  <Name>  (560) 
nan

>  <Pocket>  (560) 
nan

>  <ATP_Site>  (560) 
nan

>  <Peripheral>  (560) 
nan

>  <Num_H_Atoms_ProtBoundConf>  (560) 
nan

>  <Num_Resolved_Atoms>  (560) 
nan

>  <Num_Not_Resolved_Atoms>  (560) 
nan

$$$$
CHEMBL3675702
     RDKit          3D

  0  0  0  0  0  0  0  0  0  0999 V3000
M  V30 BEGIN CTAB
M  V30 COUNTS 53 56 0 0 0
M  V30 BEGIN ATOM
M  V30 1 O -2.355117 -1.052170 -1.433994 0
M  V30 2 C -1.968849 -1.700297 -0.427708 0
M  V30 3 C -0.863825 -1.227998 0.252257 0
M  V30 4 C -0.449628 -1.948708 1.355338 0
M  V30 5 C 0.722195 -1.442426 2.070908 0
M  V30 6 C 1.281551 -2.025696 3.187667 0
M  V30 7 C 2.390136 -1.497077 3.815255 0
M  V30 8 N 2.936551 -0.363920 3.303268 0
M  V30 9 C 2.407411 0.213176 2.223035 0
M  V30 10 N 3.006720 1.403280 1.712182 0
M  V30 11 C 4.169027 1.920280 2.403812 0 CFG=2
M  V30 12 C 3.883042 2.255678 3.830728 0
M  V30 13 C 4.605349 3.539982 4.168035 0
M  V30 14 O 3.991254 4.524504 3.379972 0
M  V30 15 C 4.447353 4.412780 2.092508 0
M  V30 16 C 4.780500 3.037509 1.628198 0 CFG=1
M  V30 17 F 6.173752 2.896132 1.700362 0
M  V30 18 N 1.320678 -0.323312 1.625040 0
M  V30 19 C -1.128078 -3.086710 1.739183 0
M  V30 20 C -2.239322 -3.499196 0.996395 0
M  V30 21 N -2.651769 -2.806143 -0.078824 0
M  V30 22 C -3.811816 -3.317829 -0.779297 0 CFG=2
M  V30 23 C -3.800275 -4.804326 -0.988729 0
M  V30 24 O -4.998675 -5.100139 -1.679450 0
M  V30 25 C -4.113433 -2.572268 -2.026965 0
M  V30 26 C -3.421065 -3.098222 -3.098086 0
M  V30 27 C -3.555243 -2.551114 -4.379188 0
M  V30 28 C -4.394439 -1.473494 -4.552561 0
M  V30 29 Cl -4.601141 -0.745282 -6.143455 0
M  V30 30 C -5.086475 -0.947974 -3.481332 0
M  V30 31 F -5.925843 0.111370 -3.592892 0
M  V30 32 C -4.962011 -1.477884 -2.218112 0
M  V30 33 H -0.374507 -0.315549 -0.111017 0
M  V30 34 H 0.823549 -2.926515 3.570817 0
M  V30 35 H 2.806275 -1.984748 4.696801 0
M  V30 36 H 2.590843 1.862900 0.859321 0
M  V30 37 H 4.900437 1.057848 2.397494 0
M  V30 38 H 2.797539 2.463415 4.001929 0
M  V30 39 H 4.268250 1.477370 4.511804 0
M  V30 40 H 5.664510 3.492764 3.844459 0
M  V30 41 H 4.533368 3.785480 5.248197 0
M  V30 42 H 3.606959 4.788099 1.437541 0
M  V30 43 H 5.267463 5.144470 1.918940 0
M  V30 44 H 4.554560 2.920121 0.525681 0
M  V30 45 H -0.808054 -3.646455 2.594318 0
M  V30 46 H -2.719597 -4.397229 1.355806 0
M  V30 47 H -4.677728 -3.127676 -0.077808 0
M  V30 48 H -2.939715 -5.208833 -1.513243 0
M  V30 49 H -3.914059 -5.322668 -0.010542 0
M  V30 50 H -5.373349 -4.299491 -2.128942 0
M  V30 51 H -2.736280 -3.936289 -3.093487 0
M  V30 52 H -3.032018 -2.926301 -5.263548 0
M  V30 53 H -5.440895 -1.167202 -1.300468 0
M  V30 END ATOM
M  V30 BEGIN BOND
M  V30 1 2 1 2
M  V30 2 1 2 3
M  V30 3 2 3 4
M  V30 4 1 4 5
M  V30 5 2 5 6
M  V30 6 1 6 7
M  V30 7 2 7 8
M  V30 8 1 8 9
M  V30 9 1 9 10
M  V30 10 1 10 11
M  V30 11 1 11 12
M  V30 12 1 12 13
M  V30 13 1 13 14
M  V30 14 1 14 15
M  V30 15 1 15 16
M  V30 16 1 16 17
M  V30 17 2 9 18
M  V30 18 1 4 19
M  V30 19 2 19 20
M  V30 20 1 20 21
M  V30 21 1 21 22
M  V30 22 1 22 23
M  V30 23 1 23 24
M  V30 24 1 22 25
M  V30 25 2 25 26
M  V30 26 1 26 27
M  V30 27 2 27 28
M  V30 28 1 28 29
M  V30 29 1 28 30
M  V30 30 1 30 31
M  V30 31 2 30 32
M  V30 32 1 21 2
M  V30 33 1 32 25
M  V30 34 1 18 5
M  V30 35 1 16 11
M  V30 36 1 3 33
M  V30 37 1 6 34
M  V30 38 1 7 35
M  V30 39 1 10 36
M  V30 40 1 11 37 CFG=1
M  V30 41 1 12 38
M  V30 42 1 12 39
M  V30 43 1 13 40
M  V30 44 1 13 41
M  V30 45 1 15 42
M  V30 46 1 15 43
M  V30 47 1 16 44 CFG=3
M  V30 48 1 19 45
M  V30 49 1 20 46
M  V30 50 1 22 47 CFG=1
M  V30 51 1 23 48
M  V30 52 1 23 49
M  V30 53 1 24 50
M  V30 54 1 26 51
M  V30 55 1 27 52
M  V30 56 1 32 53
M  V30 END BOND
M  V30 END CTAB
M  END
>  <Dataset>  (561) 
ChEMBL_Kinases

>  <Ligand_Instance>  (561) 
nan

>  <PDB_ID>  (561) 
nan

>  <Standardized_SMILES>  (561) 
O=c1cc(-c2ccnc(N[C@@H]3CCOC[C@H]3F)n2)ccn1[C@H](CO)c1ccc(Cl)c(F)c1

>  <Name>  (561) 
nan

>  <Pocket>  (561) 
nan

>  <ATP_Site>  (561) 
nan

>  <Peripheral>  (561) 
nan

>  <Num_H_Atoms_ProtBoundConf>  (561) 
nan

>  <Num_Resolved_Atoms>  (561) 
nan

>  <Num_Not_Resolved_Atoms>  (561) 
nan

$$$$
CHEMBL3675701
     RDKit          3D

  0  0  0  0  0  0  0  0  0  0999 V3000
M  V30 BEGIN CTAB
M  V30 COUNTS 53 56 0 0 0
M  V30 BEGIN ATOM
M  V30 1 O -2.018492 -5.093501 1.132256 0
M  V30 2 C -1.598404 -3.949259 0.760826 0
M  V30 3 C -0.732943 -3.228159 1.557591 0
M  V30 4 C -0.248755 -1.986114 1.202785 0
M  V30 5 C 0.665613 -1.184652 2.006695 0
M  V30 6 C 1.144105 -1.587229 3.212106 0
M  V30 7 C 2.009102 -0.835809 3.979083 0
M  V30 8 N 2.390012 0.366634 3.484832 0
M  V30 9 C 1.920359 0.789685 2.275050 0
M  V30 10 N 2.326441 2.037476 1.780655 0
M  V30 11 C 3.229278 2.873333 2.531889 0 CFG=1
M  V30 12 C 4.561466 2.209802 2.793189 0
M  V30 13 C 5.659317 3.197190 3.051454 0
M  V30 14 O 5.191574 4.401940 3.564861 0
M  V30 15 C 4.282580 5.053448 2.773756 0
M  V30 16 C 3.514721 4.173169 1.836463 0 CFG=1
M  V30 17 F 4.196729 3.974333 0.643374 0
M  V30 18 N 1.079725 0.011814 1.575113 0
M  V30 19 C -0.689261 -1.504508 -0.012878 0
M  V30 20 C -1.566864 -2.232734 -0.823669 0
M  V30 21 N -2.002056 -3.440175 -0.417818 0
M  V30 22 C -2.909502 -4.163702 -1.284307 0 CFG=2
M  V30 23 C -2.120528 -4.744398 -2.428705 0
M  V30 24 O -1.472889 -3.788389 -3.169497 0
M  V30 25 C -4.035104 -3.385434 -1.790641 0
M  V30 26 C -5.146160 -3.387449 -0.957160 0
M  V30 27 C -6.325404 -2.717061 -1.237697 0
M  V30 28 C -6.448439 -2.001555 -2.385416 0
M  V30 29 Cl -7.848885 -1.094313 -2.911083 0
M  V30 30 C -5.370495 -1.970223 -3.244927 0
M  V30 31 F -5.387840 -1.284271 -4.420413 0
M  V30 32 C -4.212280 -2.648576 -2.934865 0
M  V30 33 H -0.413278 -3.642984 2.502075 0
M  V30 34 H 0.865827 -2.529806 3.634388 0
M  V30 35 H 2.401197 -1.140804 4.943066 0
M  V30 36 H 1.991625 2.393014 0.866749 0
M  V30 37 H 2.761909 3.114492 3.507036 0
M  V30 38 H 4.476816 1.500889 3.634662 0
M  V30 39 H 4.862291 1.630657 1.886062 0
M  V30 40 H 6.317854 3.366110 2.162795 0
M  V30 41 H 6.333603 2.764363 3.819510 0
M  V30 42 H 3.541254 5.542300 3.465138 0
M  V30 43 H 4.759902 5.903184 2.219927 0
M  V30 44 H 2.525676 4.655936 1.656783 0
M  V30 45 H -0.338146 -0.534718 -0.336128 0
M  V30 46 H -1.843866 -1.749944 -1.759873 0
M  V30 47 H -3.292582 -5.078552 -0.720850 0
M  V30 48 H -2.853980 -5.231233 -3.137135 0
M  V30 49 H -1.465486 -5.579808 -2.108546 0
M  V30 50 H -1.338427 -3.995299 -4.110021 0
M  V30 51 H -5.184591 -3.915934 -0.012776 0
M  V30 52 H -7.183276 -2.723114 -0.586339 0
M  V30 53 H -3.374978 -2.624047 -3.601823 0
M  V30 END ATOM
M  V30 BEGIN BOND
M  V30 1 2 1 2
M  V30 2 1 2 3
M  V30 3 2 3 4
M  V30 4 1 4 5
M  V30 5 2 5 6
M  V30 6 1 6 7
M  V30 7 2 7 8
M  V30 8 1 8 9
M  V30 9 1 9 10
M  V30 10 1 10 11
M  V30 11 1 11 12
M  V30 12 1 12 13
M  V30 13 1 13 14
M  V30 14 1 14 15
M  V30 15 1 15 16
M  V30 16 1 16 17
M  V30 17 2 9 18
M  V30 18 1 4 19
M  V30 19 2 19 20
M  V30 20 1 20 21
M  V30 21 1 21 22
M  V30 22 1 22 23
M  V30 23 1 23 24
M  V30 24 1 22 25
M  V30 25 2 25 26
M  V30 26 1 26 27
M  V30 27 2 27 28
M  V30 28 1 28 29
M  V30 29 1 28 30
M  V30 30 1 30 31
M  V30 31 2 30 32
M  V30 32 1 21 2
M  V30 33 1 32 25
M  V30 34 1 18 5
M  V30 35 1 16 11
M  V30 36 1 3 33
M  V30 37 1 6 34
M  V30 38 1 7 35
M  V30 39 1 10 36
M  V30 40 1 11 37 CFG=1
M  V30 41 1 12 38
M  V30 42 1 12 39
M  V30 43 1 13 40
M  V30 44 1 13 41
M  V30 45 1 15 42
M  V30 46 1 15 43
M  V30 47 1 16 44 CFG=3
M  V30 48 1 19 45
M  V30 49 1 20 46
M  V30 50 1 22 47 CFG=1
M  V30 51 1 23 48
M  V30 52 1 23 49
M  V30 53 1 24 50
M  V30 54 1 26 51
M  V30 55 1 27 52
M  V30 56 1 32 53
M  V30 END BOND
M  V30 END CTAB
M  END
>  <Dataset>  (562) 
ChEMBL_Kinases

>  <Ligand_Instance>  (562) 
nan

>  <PDB_ID>  (562) 
nan

>  <Standardized_SMILES>  (562) 
O=c1cc(-c2ccnc(N[C@H]3CCOC[C@H]3F)n2)ccn1[C@H](CO)c1ccc(Cl)c(F)c1

>  <Name>  (562) 
nan

>  <Pocket>  (562) 
nan

>  <ATP_Site>  (562) 
nan

>  <Peripheral>  (562) 
nan

>  <Num_H_Atoms_ProtBoundConf>  (562) 
nan

>  <Num_Resolved_Atoms>  (562) 
nan

>  <Num_Not_Resolved_Atoms>  (562) 
nan

$$$$
CHEMBL3675539
     RDKit          3D

  0  0  0  0  0  0  0  0  0  0999 V3000
M  V30 BEGIN CTAB
M  V30 COUNTS 57 60 0 0 0
M  V30 BEGIN ATOM
M  V30 1 C 2.718277 0.392009 4.671311 0
M  V30 2 C 3.545581 0.353334 3.404457 0
M  V30 3 N 4.615298 -0.488890 3.555925 0
M  V30 4 C 5.453346 -0.648790 2.496022 0
M  V30 5 C 6.579018 -1.564944 2.685473 0
M  V30 6 F 6.098484 -2.843949 3.050410 0
M  V30 7 F 7.426781 -1.655292 1.629722 0
M  V30 8 F 7.278382 -1.075417 3.803558 0
M  V30 9 C 5.238710 0.021339 1.311699 0
M  V30 10 C 4.188569 0.867677 1.109463 0
M  V30 11 C 3.326701 1.030933 2.195003 0
M  V30 12 C 2.063717 1.746929 2.486069 0
M  V30 13 O 1.868378 2.775364 3.188269 0
M  V30 14 N 1.034249 1.042559 1.820905 0
M  V30 15 C -0.357749 1.394696 1.908114 0
M  V30 16 C -0.902750 2.527592 2.385559 0
M  V30 17 C -2.280433 2.684563 2.539978 0
M  V30 18 C -3.172232 1.700521 2.221320 0
M  V30 19 C -2.702639 0.525982 1.731396 0
M  V30 20 C -3.243608 -0.787668 1.280592 0 CFG=1
M  V30 21 C -4.729495 -0.637139 1.136621 0
M  V30 22 N -2.721919 -1.022942 -0.057117 0
M  V30 23 C -2.453988 -2.144480 -0.859537 0
M  V30 24 N -2.691647 -3.404347 -0.401587 0
M  V30 25 C -2.473192 -4.474006 -1.144646 0
M  V30 26 N -2.002089 -4.372474 -2.396893 0
M  V30 27 C -1.754009 -3.158208 -2.890245 0
M  V30 28 C -1.258458 -3.055701 -4.172008 0
M  V30 29 C -1.192214 -4.264720 -4.979832 0
M  V30 30 N -2.592811 -4.723087 -5.117911 0
M  V30 31 O -0.554899 -5.112266 -5.631696 0
M  V30 32 C -0.936238 -1.805672 -4.796764 0
M  V30 33 C -1.195528 -0.760138 -3.958488 0
M  V30 34 C -1.683617 -0.816733 -2.697552 0
M  V30 35 C -1.972552 -2.025441 -2.135818 0
M  V30 36 C -1.308807 0.407903 1.587868 0
M  V30 37 H 2.703423 -0.614853 5.100736 0
M  V30 38 H 1.656187 0.705155 4.447175 0
M  V30 39 H 3.217254 1.052772 5.386517 0
M  V30 40 H 5.886994 -0.065577 0.424030 0
M  V30 41 H 3.832165 1.486606 0.335872 0
M  V30 42 H 1.247092 0.224821 1.165073 0
M  V30 43 H -0.286927 3.346047 2.646774 0
M  V30 44 H -2.683064 3.635066 2.933920 0
M  V30 45 H -4.229348 1.667095 2.283930 0
M  V30 46 H -2.961222 -1.559686 1.978517 0
M  V30 47 H -5.057561 -1.344694 0.313109 0
M  V30 48 H -5.269263 -0.942331 2.079970 0
M  V30 49 H -5.016793 0.373514 0.811488 0
M  V30 50 H -2.528387 -0.069707 -0.500158 0
M  V30 51 H -2.645733 -5.469945 -0.762691 0
M  V30 52 H -3.519713 -5.078677 -5.295531 0
M  V30 53 H -3.374010 -4.571222 -4.458004 0
M  V30 54 H -0.539921 -1.705000 -5.771533 0
M  V30 55 H -0.950234 0.200275 -4.380256 0
M  V30 56 H -1.823863 0.119611 -2.203952 0
M  V30 57 H -0.849680 -0.532121 1.196466 0
M  V30 END ATOM
M  V30 BEGIN BOND
M  V30 1 1 1 2
M  V30 2 2 2 3
M  V30 3 1 3 4
M  V30 4 1 4 5
M  V30 5 1 5 6
M  V30 6 1 5 7
M  V30 7 1 5 8
M  V30 8 2 4 9
M  V30 9 1 9 10
M  V30 10 2 10 11
M  V30 11 1 11 12
M  V30 12 2 12 13
M  V30 13 1 12 14
M  V30 14 1 14 15
M  V30 15 2 15 16
M  V30 16 1 16 17
M  V30 17 2 17 18
M  V30 18 1 18 19
M  V30 19 1 19 20
M  V30 20 1 20 21
M  V30 21 1 20 22
M  V30 22 1 22 23
M  V30 23 2 23 24
M  V30 24 1 24 25
M  V30 25 2 25 26
M  V30 26 1 26 27
M  V30 27 2 27 28
M  V30 28 1 28 29
M  V30 29 1 29 30
M  V30 30 2 29 31
M  V30 31 1 28 32
M  V30 32 2 32 33
M  V30 33 1 33 34
M  V30 34 2 34 35
M  V30 35 2 19 36
M  V30 36 1 11 2
M  V30 37 1 36 15
M  V30 38 1 35 23
M  V30 39 1 35 27
M  V30 40 1 1 37
M  V30 41 1 1 38
M  V30 42 1 1 39
M  V30 43 1 9 40
M  V30 44 1 10 41
M  V30 45 1 14 42
M  V30 46 1 16 43
M  V30 47 1 17 44
M  V30 48 1 18 45
M  V30 49 1 20 46 CFG=1
M  V30 50 1 21 47
M  V30 51 1 21 48
M  V30 52 1 21 49
M  V30 53 1 22 50
M  V30 54 1 25 51
M  V30 55 1 30 52
M  V30 56 1 30 53
M  V30 57 1 32 54
M  V30 58 1 33 55
M  V30 59 1 34 56
M  V30 60 1 36 57
M  V30 END BOND
M  V30 END CTAB
M  END
>  <Dataset>  (563) 
ChEMBL_Kinases

>  <Ligand_Instance>  (563) 
nan

>  <PDB_ID>  (563) 
nan

>  <Standardized_SMILES>  (563) 
Cc1nc(C(F)(F)F)ccc1C(=O)Nc1cccc([C@@H](C)Nc2ncnc3c(C(N)=O)cccc23)c1

>  <Name>  (563) 
nan

>  <Pocket>  (563) 
nan

>  <ATP_Site>  (563) 
nan

>  <Peripheral>  (563) 
nan

>  <Num_H_Atoms_ProtBoundConf>  (563) 
nan

>  <Num_Resolved_Atoms>  (563) 
nan

>  <Num_Not_Resolved_Atoms>  (563) 
nan

$$$$
CHEMBL3675535
     RDKit          3D

  0  0  0  0  0  0  0  0  0  0999 V3000
M  V30 BEGIN CTAB
M  V30 COUNTS 61 64 0 0 0
M  V30 BEGIN ATOM
M  V30 1 C 5.664866 -3.012222 5.138577 0
M  V30 2 O 4.281783 -2.968222 4.960069 0
M  V30 3 C 3.675530 -2.062612 4.123933 0
M  V30 4 C 4.396573 -1.133683 3.403703 0
M  V30 5 C 3.752940 -0.238910 2.573070 0
M  V30 6 C 2.377077 -0.311457 2.494493 0
M  V30 7 C 1.532834 0.570734 1.658449 0
M  V30 8 O 0.257025 0.497447 1.576737 0
M  V30 9 N 2.013349 1.631571 0.821416 0
M  V30 10 C 0.833340 2.200342 0.211442 0
M  V30 11 C 0.279590 3.217073 0.964951 0
M  V30 12 C -0.855698 3.836258 0.479124 0
M  V30 13 C -1.353602 3.391679 -0.726600 0
M  V30 14 C -0.773116 2.370990 -1.454248 0
M  V30 15 C -1.407054 1.980165 -2.742915 0 CFG=1
M  V30 16 C -0.669348 2.606802 -3.882091 0
M  V30 17 N -1.477736 0.529936 -2.889536 0
M  V30 18 C -2.204760 -0.241294 -1.940538 0
M  V30 19 N -2.817513 0.387285 -0.919839 0
M  V30 20 C -3.526176 -0.263972 0.021282 0
M  V30 21 N -3.656102 -1.605973 -0.018438 0
M  V30 22 C -3.071937 -2.306341 -1.009326 0
M  V30 23 C -2.353234 -1.612486 -1.957913 0
M  V30 24 C -1.781478 -2.280495 -2.920923 0
M  V30 25 C -1.812310 -3.729842 -3.127052 0
M  V30 26 C -2.589594 -4.483369 -2.106818 0
M  V30 27 C -3.184443 -3.612042 -1.069335 0
M  V30 28 C -3.941990 -4.333043 -0.059520 0
M  V30 29 N -4.648493 -3.877450 1.082510 0
M  V30 30 O -4.122640 -5.562193 -0.006690 0
M  V30 31 C 0.355049 1.738718 -0.994761 0
M  V30 32 C 1.653185 -1.244103 3.217554 0
M  V30 33 C 2.306420 -2.132515 4.043829 0
M  V30 34 C 1.491930 -3.132495 4.816840 0
M  V30 35 H 6.054416 -1.983785 5.201461 0
M  V30 36 H 6.194373 -3.533072 4.311406 0
M  V30 37 H 5.905539 -3.613378 6.057273 0
M  V30 38 H 5.473647 -1.075783 3.465299 0
M  V30 39 H 4.237364 0.530183 1.965558 0
M  V30 40 H 3.068899 1.773711 0.820341 0
M  V30 41 H 0.661204 3.563369 1.896890 0
M  V30 42 H -1.334451 4.634155 1.017424 0
M  V30 43 H -2.259032 3.912312 -1.075085 0
M  V30 44 H -2.457128 2.388739 -2.795843 0
M  V30 45 H -0.790602 1.938354 -4.759498 0
M  V30 46 H -1.060300 3.614770 -4.101450 0
M  V30 47 H 0.419657 2.646934 -3.623068 0
M  V30 48 H -0.967817 0.153035 -3.714310 0
M  V30 49 H -4.010049 0.246026 0.829756 0
M  V30 50 H -1.207779 -1.812811 -3.687917 0
M  V30 51 H -2.160472 -3.948572 -4.157620 0
M  V30 52 H -0.756957 -4.114409 -3.075657 0
M  V30 53 H -3.432507 -5.018661 -2.596616 0
M  V30 54 H -2.002608 -5.286380 -1.582492 0
M  V30 55 H -4.547473 -3.496304 2.068508 0
M  V30 56 H -3.830212 -3.643886 1.687230 0
M  V30 57 H 0.835335 0.945547 -1.525446 0
M  V30 58 H 0.556261 -1.318049 3.169234 0
M  V30 59 H 2.100867 -3.703370 5.512961 0
M  V30 60 H 0.688394 -2.520634 5.310146 0
M  V30 61 H 0.969350 -3.752939 4.055507 0
M  V30 END ATOM
M  V30 BEGIN BOND
M  V30 1 1 1 2
M  V30 2 1 2 3
M  V30 3 2 3 4
M  V30 4 1 4 5
M  V30 5 2 5 6
M  V30 6 1 6 7
M  V30 7 2 7 8
M  V30 8 1 7 9
M  V30 9 1 9 10
M  V30 10 2 10 11
M  V30 11 1 11 12
M  V30 12 2 12 13
M  V30 13 1 13 14
M  V30 14 1 14 15
M  V30 15 1 15 16
M  V30 16 1 15 17
M  V30 17 1 17 18
M  V30 18 2 18 19
M  V30 19 1 19 20
M  V30 20 2 20 21
M  V30 21 1 21 22
M  V30 22 1 22 23
M  V30 23 2 23 24
M  V30 24 1 24 25
M  V30 25 1 25 26
M  V30 26 1 26 27
M  V30 27 1 27 28
M  V30 28 1 28 29
M  V30 29 2 28 30
M  V30 30 2 14 31
M  V30 31 1 6 32
M  V30 32 2 32 33
M  V30 33 1 33 34
M  V30 34 1 33 3
M  V30 35 1 31 10
M  V30 36 1 23 18
M  V30 37 2 27 22
M  V30 38 1 1 35
M  V30 39 1 1 36
M  V30 40 1 1 37
M  V30 41 1 4 38
M  V30 42 1 5 39
M  V30 43 1 9 40
M  V30 44 1 11 41
M  V30 45 1 12 42
M  V30 46 1 13 43
M  V30 47 1 15 44 CFG=1
M  V30 48 1 16 45
M  V30 49 1 16 46
M  V30 50 1 16 47
M  V30 51 1 17 48
M  V30 52 1 20 49
M  V30 53 1 24 50
M  V30 54 1 25 51
M  V30 55 1 25 52
M  V30 56 1 26 53
M  V30 57 1 26 54
M  V30 58 1 29 55
M  V30 59 1 29 56
M  V30 60 1 31 57
M  V30 61 1 32 58
M  V30 62 1 34 59
M  V30 63 1 34 60
M  V30 64 1 34 61
M  V30 END BOND
M  V30 END CTAB
M  END
>  <Dataset>  (564) 
ChEMBL_Kinases

>  <Ligand_Instance>  (564) 
nan

>  <PDB_ID>  (564) 
nan

>  <Standardized_SMILES>  (564) 
COc1ccc(C(=O)Nc2cccc([C@@H](C)Nc3ncnc4c3=CCCC=4C(N)=O)c2)cc1C

>  <Name>  (564) 
nan

>  <Pocket>  (564) 
nan

>  <ATP_Site>  (564) 
nan

>  <Peripheral>  (564) 
nan

>  <Num_H_Atoms_ProtBoundConf>  (564) 
nan

>  <Num_Resolved_Atoms>  (564) 
nan

>  <Num_Not_Resolved_Atoms>  (564) 
nan

$$$$
CHEMBL3675534
     RDKit          3D

  0  0  0  0  0  0  0  0  0  0999 V3000
M  V30 BEGIN CTAB
M  V30 COUNTS 40 41 0 0 0
M  V30 BEGIN ATOM
M  V30 1 C -2.516909 -3.327465 2.466908 0
M  V30 2 C -1.457857 -4.338524 2.280716 0
M  V30 3 C -0.718803 -4.428866 1.015310 0
M  V30 4 C 0.150117 -3.345617 0.524024 0
M  V30 5 C -0.548763 -2.060902 0.228767 0 CFG=2
M  V30 6 C -1.624659 -2.281499 -0.847436 0
M  V30 7 N 0.317082 -0.980965 -0.119527 0
M  V30 8 C 1.163332 0.074398 -0.460030 0
M  V30 9 N 2.026440 0.244901 -1.443062 0
M  V30 10 C 2.772820 1.331327 -1.637068 0
M  V30 11 N 2.616617 2.313032 -0.751417 0
M  V30 12 C 1.782092 2.274118 0.286971 0
M  V30 13 C 1.716912 3.361049 1.129017 0
M  V30 14 C 2.557735 4.514239 0.858099 0
M  V30 15 N 3.434518 4.533134 -0.261001 0
M  V30 16 O 2.646406 5.584232 1.499288 0
M  V30 17 C 0.860605 3.339576 2.206783 0
M  V30 18 C 0.089158 2.213674 2.405645 0
M  V30 19 C 0.198281 1.166519 1.535372 0
M  V30 20 C 1.030513 1.130093 0.447412 0
M  V30 21 H -2.215623 -2.415949 3.052086 0
M  V30 22 H -3.382149 -3.787059 3.091808 0
M  V30 23 H -3.024346 -3.044376 1.541904 0
M  V30 24 H -0.753127 -4.366908 3.180631 0
M  V30 25 H -1.974480 -5.357697 2.409575 0
M  V30 26 H -1.498407 -4.726671 0.230095 0
M  V30 27 H -0.104576 -5.399218 1.049036 0
M  V30 28 H 0.759923 -3.695741 -0.360962 0
M  V30 29 H 0.899506 -3.090207 1.357137 0
M  V30 30 H -1.122160 -1.819629 1.171225 0
M  V30 31 H -1.619911 -3.327541 -1.204925 0
M  V30 32 H -2.610327 -1.924296 -0.511014 0
M  V30 33 H -1.347032 -1.653666 -1.747112 0
M  V30 34 H 0.599164 -1.623818 -0.931727 0
M  V30 35 H 3.421503 1.285132 -2.499661 0
M  V30 36 H 3.399568 4.646809 -1.308801 0
M  V30 37 H 4.434179 4.394212 -0.001037 0
M  V30 38 H 0.852256 4.220891 2.831895 0
M  V30 39 H -0.583534 2.190145 3.247438 0
M  V30 40 H -0.422586 0.330687 1.743465 0
M  V30 END ATOM
M  V30 BEGIN BOND
M  V30 1 1 1 2
M  V30 2 1 2 3
M  V30 3 1 3 4
M  V30 4 1 4 5
M  V30 5 1 5 6
M  V30 6 1 5 7
M  V30 7 1 7 8
M  V30 8 2 8 9
M  V30 9 1 9 10
M  V30 10 2 10 11
M  V30 11 1 11 12
M  V30 12 2 12 13
M  V30 13 1 13 14
M  V30 14 1 14 15
M  V30 15 2 14 16
M  V30 16 1 13 17
M  V30 17 2 17 18
M  V30 18 1 18 19
M  V30 19 2 19 20
M  V30 20 1 20 8
M  V30 21 1 20 12
M  V30 22 1 1 21
M  V30 23 1 1 22
M  V30 24 1 1 23
M  V30 25 1 2 24
M  V30 26 1 2 25
M  V30 27 1 3 26
M  V30 28 1 3 27
M  V30 29 1 4 28
M  V30 30 1 4 29
M  V30 31 1 5 30 CFG=1
M  V30 32 1 6 31
M  V30 33 1 6 32
M  V30 34 1 6 33
M  V30 35 1 7 34
M  V30 36 1 10 35
M  V30 37 1 15 36
M  V30 38 1 15 37
M  V30 39 1 17 38
M  V30 40 1 18 39
M  V30 41 1 19 40
M  V30 END BOND
M  V30 END CTAB
M  END
>  <Dataset>  (565) 
ChEMBL_Kinases

>  <Ligand_Instance>  (565) 
nan

>  <PDB_ID>  (565) 
nan

>  <Standardized_SMILES>  (565) 
CCCC[C@H](C)Nc1ncnc2c(C(N)=O)cccc12

>  <Name>  (565) 
nan

>  <Pocket>  (565) 
nan

>  <ATP_Site>  (565) 
nan

>  <Peripheral>  (565) 
nan

>  <Num_H_Atoms_ProtBoundConf>  (565) 
nan

>  <Num_Resolved_Atoms>  (565) 
nan

>  <Num_Not_Resolved_Atoms>  (565) 
nan

$$$$
CHEMBL3675531
     RDKit          3D

  0  0  0  0  0  0  0  0  0  0999 V3000
M  V30 BEGIN CTAB
M  V30 COUNTS 56 59 0 0 0
M  V30 BEGIN ATOM
M  V30 1 C 6.199894 -3.107833 6.613218 0
M  V30 2 O 6.116726 -3.078597 5.209855 0
M  V30 3 C 5.285537 -2.229977 4.527341 0
M  V30 4 C 4.438634 -1.313753 5.066702 0
M  V30 5 C 3.635373 -0.498076 4.299870 0
M  V30 6 C 3.652950 -0.574788 2.906593 0
M  V30 7 C 2.753461 0.347713 2.235408 0
M  V30 8 O 1.995198 1.166055 2.862709 0
M  V30 9 N 2.547159 0.517451 0.851083 0
M  V30 10 C 1.620345 1.474342 0.348340 0
M  V30 11 C 2.129895 2.733541 0.109415 0
M  V30 12 C 1.277717 3.701494 -0.378900 0
M  V30 13 C -0.053937 3.455495 -0.634015 0
M  V30 14 C -0.566598 2.201395 -0.397477 0
M  V30 15 C -1.942843 1.653073 -0.580626 0 CFG=1
M  V30 16 C -2.776234 2.568467 -1.450074 0
M  V30 17 N -1.883269 0.333167 -1.180394 0
M  V30 18 C -3.100437 -0.413930 -1.365549 0
M  V30 19 N -4.285503 0.070461 -0.988016 0
M  V30 20 C -5.454182 -0.577161 -1.125741 0
M  V30 21 N -5.473780 -1.812926 -1.683261 0
M  V30 22 C -4.305638 -2.383750 -2.097745 0
M  V30 23 C -4.334622 -3.636906 -2.661942 0
M  V30 24 C -5.583887 -4.366318 -2.826049 0
M  V30 25 N -6.803768 -3.753032 -2.385983 0
M  V30 26 O -5.619704 -5.512414 -3.340356 0
M  V30 27 C -3.158181 -4.233440 -3.089229 0
M  V30 28 C -1.995405 -3.515590 -2.918902 0
M  V30 29 C -2.013326 -2.271370 -2.352504 0
M  V30 30 C -3.153444 -1.656810 -1.921854 0
M  V30 31 C 0.275100 1.224992 0.090821 0
M  V30 32 C 4.520216 -1.511423 2.393629 0
M  V30 33 F 4.529817 -1.578126 1.043591 0
M  V30 34 C 5.318486 -2.321494 3.167499 0
M  V30 35 H 7.059988 -2.485761 6.988970 0
M  V30 36 H 6.472701 -4.157776 6.901333 0
M  V30 37 H 5.266737 -2.844887 7.137232 0
M  V30 38 H 4.399306 -1.227310 6.143928 0
M  V30 39 H 2.984703 0.210824 4.835675 0
M  V30 40 H 3.097433 -0.082928 0.199747 0
M  V30 41 H 3.166548 3.024181 0.279284 0
M  V30 42 H 1.564731 4.733086 -0.606535 0
M  V30 43 H -0.792418 4.142660 -1.010507 0
M  V30 44 H -2.406710 1.599715 0.413837 0
M  V30 45 H -2.131061 3.151269 -2.140083 0
M  V30 46 H -3.396862 1.933528 -2.098397 0
M  V30 47 H -3.455795 3.158594 -0.832447 0
M  V30 48 H -0.954518 -0.005233 -1.446980 0
M  V30 49 H -6.312104 -0.027733 -0.762153 0
M  V30 50 H -6.706667 -3.822166 -1.348675 0
M  V30 51 H -7.655819 -3.311941 -2.751495 0
M  V30 52 H -3.199929 -5.215477 -3.528857 0
M  V30 53 H -1.099479 -4.040213 -3.276207 0
M  V30 54 H -1.053451 -1.808312 -2.270751 0
M  V30 55 H 0.032779 0.182757 0.332590 0
M  V30 56 H 5.951639 -3.012671 2.615879 0
M  V30 END ATOM
M  V30 BEGIN BOND
M  V30 1 1 1 2
M  V30 2 1 2 3
M  V30 3 2 3 4
M  V30 4 1 4 5
M  V30 5 2 5 6
M  V30 6 1 6 7
M  V30 7 2 7 8
M  V30 8 1 7 9
M  V30 9 1 9 10
M  V30 10 2 10 11
M  V30 11 1 11 12
M  V30 12 2 12 13
M  V30 13 1 13 14
M  V30 14 1 14 15
M  V30 15 1 15 16
M  V30 16 1 15 17
M  V30 17 1 17 18
M  V30 18 2 18 19
M  V30 19 1 19 20
M  V30 20 2 20 21
M  V30 21 1 21 22
M  V30 22 2 22 23
M  V30 23 1 23 24
M  V30 24 1 24 25
M  V30 25 2 24 26
M  V30 26 1 23 27
M  V30 27 2 27 28
M  V30 28 1 28 29
M  V30 29 2 29 30
M  V30 30 2 14 31
M  V30 31 1 6 32
M  V30 32 1 32 33
M  V30 33 2 32 34
M  V30 34 1 34 3
M  V30 35 1 31 10
M  V30 36 1 30 18
M  V30 37 1 30 22
M  V30 38 1 1 35
M  V30 39 1 1 36
M  V30 40 1 1 37
M  V30 41 1 4 38
M  V30 42 1 5 39
M  V30 43 1 9 40
M  V30 44 1 11 41
M  V30 45 1 12 42
M  V30 46 1 13 43
M  V30 47 1 15 44 CFG=1
M  V30 48 1 16 45
M  V30 49 1 16 46
M  V30 50 1 16 47
M  V30 51 1 17 48
M  V30 52 1 20 49
M  V30 53 1 25 50
M  V30 54 1 25 51
M  V30 55 1 27 52
M  V30 56 1 28 53
M  V30 57 1 29 54
M  V30 58 1 31 55
M  V30 59 1 34 56
M  V30 END BOND
M  V30 END CTAB
M  END
>  <Dataset>  (566) 
ChEMBL_Kinases

>  <Ligand_Instance>  (566) 
nan

>  <PDB_ID>  (566) 
nan

>  <Standardized_SMILES>  (566) 
COc1ccc(C(=O)Nc2cccc([C@@H](C)Nc3ncnc4c(C(N)=O)cccc34)c2)c(F)c1

>  <Name>  (566) 
nan

>  <Pocket>  (566) 
nan

>  <ATP_Site>  (566) 
nan

>  <Peripheral>  (566) 
nan

>  <Num_H_Atoms_ProtBoundConf>  (566) 
nan

>  <Num_Resolved_Atoms>  (566) 
nan

>  <Num_Not_Resolved_Atoms>  (566) 
nan

$$$$
CHEMBL3675530
     RDKit          3D

  0  0  0  0  0  0  0  0  0  0999 V3000
M  V30 BEGIN CTAB
M  V30 COUNTS 52 55 0 0 0
M  V30 BEGIN ATOM
M  V30 1 C 1.573862 -2.396058 2.664373 0
M  V30 2 C 0.642084 -1.265835 2.899693 0 CFG=1
M  V30 3 N 0.975843 -0.179694 1.997251 0
M  V30 4 C 2.278392 0.373676 2.139328 0
M  V30 5 N 3.162817 -0.066951 3.053456 0
M  V30 6 C 4.387004 0.396887 3.246971 0
M  V30 7 N 4.847548 1.390746 2.501838 0
M  V30 8 C 4.058145 1.913248 1.557031 0
M  V30 9 C 4.519732 2.959615 0.760187 0
M  V30 10 C 5.852074 3.500227 0.934797 0
M  V30 11 N 6.771819 3.027336 1.896414 0
M  V30 12 O 6.285026 4.445883 0.226227 0
M  V30 13 C 3.710163 3.505344 -0.218759 0
M  V30 14 C 2.444620 2.998519 -0.391593 0
M  V30 15 C 2.004749 1.963365 0.405666 0
M  V30 16 C 2.789071 1.408222 1.380535 0
M  V30 17 C -0.780705 -1.596587 2.698556 0
M  V30 18 C -1.605178 -1.788787 3.794358 0
M  V30 19 C -2.942983 -2.100005 3.657564 0
M  V30 20 C -3.494056 -2.227700 2.381725 0
M  V30 21 C -2.671222 -2.035865 1.262857 0
M  V30 22 N -3.271901 -2.176505 -0.029468 0
M  V30 23 C -3.310990 -3.435962 -0.712866 0
M  V30 24 O -2.773881 -4.359983 -0.061073 0
M  V30 25 C -3.962426 -3.388658 -2.018413 0
M  V30 26 C -4.586619 -2.427600 -2.819020 0
M  V30 27 C -4.980757 -3.098713 -3.958367 0
M  V30 28 C -5.686345 -2.348649 -5.030744 0
M  V30 29 F -6.654313 -1.563917 -4.435549 0
M  V30 30 F -4.740334 -1.512853 -5.606310 0
M  V30 31 F -6.246291 -3.211850 -5.947504 0
M  V30 32 N -4.603440 -4.395470 -3.829397 0
M  V30 33 N -3.995785 -4.574312 -2.674566 0
M  V30 34 C -1.359984 -1.730967 1.454596 0
M  V30 35 H 2.408798 -2.060477 2.019222 0
M  V30 36 H 1.017786 -3.185435 2.080455 0
M  V30 37 H 2.041528 -2.814917 3.576914 0
M  V30 38 H 0.783661 -0.887397 3.953559 0
M  V30 39 H 0.280606 0.145401 1.303973 0
M  V30 40 H 5.035789 -0.029633 4.020248 0
M  V30 41 H 7.116906 3.694748 2.633722 0
M  V30 42 H 7.234880 2.106211 2.076556 0
M  V30 43 H 4.097760 4.309659 -0.814071 0
M  V30 44 H 1.843727 3.465055 -1.179574 0
M  V30 45 H 1.006612 1.622691 0.209810 0
M  V30 46 H -1.255504 -1.707339 4.825649 0
M  V30 47 H -3.613797 -2.256767 4.514170 0
M  V30 48 H -4.563090 -2.476381 2.320446 0
M  V30 49 H -3.655336 -1.241752 -0.364476 0
M  V30 50 H -4.631422 -1.427406 -2.414086 0
M  V30 51 H -3.703554 -5.571768 -2.572008 0
M  V30 52 H -0.716750 -1.581184 0.613389 0
M  V30 END ATOM
M  V30 BEGIN BOND
M  V30 1 1 1 2
M  V30 2 1 2 3
M  V30 3 1 3 4
M  V30 4 2 4 5
M  V30 5 1 5 6
M  V30 6 2 6 7
M  V30 7 1 7 8
M  V30 8 2 8 9
M  V30 9 1 9 10
M  V30 10 1 10 11
M  V30 11 2 10 12
M  V30 12 1 9 13
M  V30 13 2 13 14
M  V30 14 1 14 15
M  V30 15 2 15 16
M  V30 16 1 2 17
M  V30 17 2 17 18
M  V30 18 1 18 19
M  V30 19 2 19 20
M  V30 20 1 20 21
M  V30 21 1 21 22
M  V30 22 1 22 23
M  V30 23 2 23 24
M  V30 24 1 23 25
M  V30 25 2 25 26
M  V30 26 1 26 27
M  V30 27 1 27 28
M  V30 28 1 28 29
M  V30 29 1 28 30
M  V30 30 1 28 31
M  V30 31 2 27 32
M  V30 32 1 32 33
M  V30 33 2 21 34
M  V30 34 1 16 4
M  V30 35 1 34 17
M  V30 36 1 16 8
M  V30 37 1 33 25
M  V30 38 1 1 35
M  V30 39 1 1 36
M  V30 40 1 1 37
M  V30 41 1 2 38 CFG=1
M  V30 42 1 3 39
M  V30 43 1 6 40
M  V30 44 1 11 41
M  V30 45 1 11 42
M  V30 46 1 13 43
M  V30 47 1 14 44
M  V30 48 1 15 45
M  V30 49 1 18 46
M  V30 50 1 19 47
M  V30 51 1 20 48
M  V30 52 1 22 49
M  V30 53 1 26 50
M  V30 54 1 33 51
M  V30 55 1 34 52
M  V30 END BOND
M  V30 END CTAB
M  END
>  <Dataset>  (567) 
ChEMBL_Kinases

>  <Ligand_Instance>  (567) 
nan

>  <PDB_ID>  (567) 
nan

>  <Standardized_SMILES>  (567) 
C[C@@H](Nc1ncnc2c(C(N)=O)cccc12)c1cccc(NC(=O)c2cc(C(F)(F)F)n[nH]2)c1

>  <Name>  (567) 
nan

>  <Pocket>  (567) 
nan

>  <ATP_Site>  (567) 
nan

>  <Peripheral>  (567) 
nan

>  <Num_H_Atoms_ProtBoundConf>  (567) 
nan

>  <Num_Resolved_Atoms>  (567) 
nan

>  <Num_Not_Resolved_Atoms>  (567) 
nan

$$$$
CHEMBL3675529
     RDKit          3D

  0  0  0  0  0  0  0  0  0  0999 V3000
M  V30 BEGIN CTAB
M  V30 COUNTS 41 43 0 0 0
M  V30 BEGIN ATOM
M  V30 1 C 0.602783 -4.427865 2.126699 0
M  V30 2 C 0.100580 -4.208656 0.745011 0
M  V30 3 C -0.249799 -2.797259 0.388102 0
M  V30 4 N 0.875442 -1.890740 0.500525 0
M  V30 5 C 0.673086 -0.520046 0.188210 0
M  V30 6 N -0.532233 -0.074553 -0.201920 0
M  V30 7 C -0.784550 1.201980 -0.508922 0
M  V30 8 N 0.169645 2.148186 -0.447428 0
M  V30 9 C 1.401697 1.779102 -0.065077 0
M  V30 10 C 2.434980 2.694682 0.022239 0
M  V30 11 C 2.173464 4.085363 -0.308730 0
M  V30 12 N 3.191043 5.069104 -0.238656 0
M  V30 13 O 1.075315 4.528929 -0.670961 0
M  V30 14 C 3.708948 2.334522 0.413452 0
M  V30 15 C 3.949461 1.008297 0.726921 0
M  V30 16 C 2.911768 0.104724 0.636208 0
M  V30 17 C 1.646212 0.445967 0.250727 0
M  V30 18 C -1.462980 -2.302381 1.079833 0
M  V30 19 C -2.699680 -2.384034 0.430803 0
M  V30 20 C -3.849528 -1.935141 1.039741 0
M  V30 21 F -5.038858 -2.032112 0.372955 0
M  V30 22 C -3.831069 -1.390527 2.304753 0
M  V30 23 C -2.610289 -1.310892 2.943208 0
M  V30 24 F -2.619521 -0.773174 4.181950 0
M  V30 25 C -1.430784 -1.758623 2.347995 0
M  V30 26 H -0.219546 -4.332546 2.890505 0
M  V30 27 H 0.914456 -5.491933 2.184772 0
M  V30 28 H 1.486152 -3.843885 2.395395 0
M  V30 29 H -0.729023 -4.904620 0.543371 0
M  V30 30 H 0.937946 -4.501186 0.050606 0
M  V30 31 H -0.468201 -2.835390 -0.720411 0
M  V30 32 H 1.763523 -2.329870 0.809162 0
M  V30 33 H -1.814987 1.426540 -0.812683 0
M  V30 34 H 4.103622 4.721275 -0.603089 0
M  V30 35 H 3.178262 6.053051 0.106511 0
M  V30 36 H 4.536925 3.046307 0.487583 0
M  V30 37 H 4.933743 0.731949 1.028800 0
M  V30 38 H 3.160666 -0.893772 0.889380 0
M  V30 39 H -2.793173 -2.797179 -0.558396 0
M  V30 40 H -4.766795 -1.059167 2.721896 0
M  V30 41 H -0.475868 -1.680478 2.884043 0
M  V30 END ATOM
M  V30 BEGIN BOND
M  V30 1 1 1 2
M  V30 2 1 2 3
M  V30 3 1 3 4
M  V30 4 1 4 5
M  V30 5 2 5 6
M  V30 6 1 6 7
M  V30 7 2 7 8
M  V30 8 1 8 9
M  V30 9 2 9 10
M  V30 10 1 10 11
M  V30 11 1 11 12
M  V30 12 2 11 13
M  V30 13 1 10 14
M  V30 14 2 14 15
M  V30 15 1 15 16
M  V30 16 2 16 17
M  V30 17 1 3 18
M  V30 18 2 18 19
M  V30 19 1 19 20
M  V30 20 1 20 21
M  V30 21 2 20 22
M  V30 22 1 22 23
M  V30 23 1 23 24
M  V30 24 2 23 25
M  V30 25 1 17 5
M  V30 26 1 25 18
M  V30 27 1 17 9
M  V30 28 1 1 26
M  V30 29 1 1 27
M  V30 30 1 1 28
M  V30 31 1 2 29
M  V30 32 1 2 30
M  V30 33 1 3 31
M  V30 34 1 4 32
M  V30 35 1 7 33
M  V30 36 1 12 34
M  V30 37 1 12 35
M  V30 38 1 14 36
M  V30 39 1 15 37
M  V30 40 1 16 38
M  V30 41 1 19 39
M  V30 42 1 22 40
M  V30 43 1 25 41
M  V30 END BOND
M  V30 END CTAB
M  END
>  <Dataset>  (568) 
ChEMBL_Kinases

>  <Ligand_Instance>  (568) 
nan

>  <PDB_ID>  (568) 
nan

>  <Standardized_SMILES>  (568) 
CCC(Nc1ncnc2c(C(N)=O)cccc12)c1cc(F)cc(F)c1

>  <Name>  (568) 
nan

>  <Pocket>  (568) 
nan

>  <ATP_Site>  (568) 
nan

>  <Peripheral>  (568) 
nan

>  <Num_H_Atoms_ProtBoundConf>  (568) 
nan

>  <Num_Resolved_Atoms>  (568) 
nan

>  <Num_Not_Resolved_Atoms>  (568) 
nan

$$$$
CHEMBL3675515
     RDKit          3D

  0  0  0  0  0  0  0  0  0  0999 V3000
M  V30 BEGIN CTAB
M  V30 COUNTS 58 62 0 0 0
M  V30 BEGIN ATOM
M  V30 1 C 1.401557 -1.354796 4.868674 0
M  V30 2 C 0.389654 -0.299940 4.552520 0 CFG=1
M  V30 3 N 0.916974 0.885615 3.935034 0
M  V30 4 C 1.815496 0.749540 2.821684 0
M  V30 5 N 2.213376 -0.439651 2.353069 0
M  V30 6 C 3.066489 -0.607467 1.329528 0
M  V30 7 N 3.597688 0.471199 0.682884 0
M  V30 8 C 3.248191 1.710853 1.092946 0
M  V30 9 C 3.774737 2.810161 0.451363 0
M  V30 10 C 4.697998 2.613017 -0.656145 0
M  V30 11 N 5.069359 1.312862 -1.091615 0
M  V30 12 O 5.208360 3.574084 -1.277121 0
M  V30 13 C 3.445330 4.087093 0.836584 0
M  V30 14 C 2.567163 4.202978 1.890564 0
M  V30 15 C 2.057481 3.098547 2.511941 0
M  V30 16 C 2.369453 1.816788 2.147750 0
M  V30 17 C -0.806637 -0.883776 3.952264 0
M  V30 18 C -1.825344 -1.402076 4.773147 0
M  V30 19 C -2.998743 -1.969261 4.384699 0
M  V30 20 C -3.232871 -2.053923 3.032040 0
M  V30 21 C -2.301810 -1.576850 2.138247 0
M  V30 22 N -2.542544 -1.663812 0.743676 0
M  V30 23 C -2.100831 -2.833774 0.065787 0
M  V30 24 O -1.529036 -3.690490 0.789670 0
M  V30 25 C -2.262094 -3.093968 -1.360023 0
M  V30 26 C -1.757643 -4.297136 -1.809554 0
M  V30 27 C -1.917959 -4.536145 -3.179101 0
M  V30 28 C -2.530926 -3.635551 -3.999274 0
M  V30 29 C -3.026146 -2.431634 -3.502561 0
M  V30 30 C -2.884861 -2.171572 -2.175302 0
M  V30 31 O -3.620122 -1.625849 -4.460173 0
M  V30 32 C -3.145793 -1.542540 -5.811178 0
M  V30 33 C -2.654733 -2.863364 -6.331243 0
M  V30 34 O -2.678217 -3.895343 -5.355382 0
M  V30 35 C -1.147261 -1.021203 2.635143 0
M  V30 36 H 2.369416 -0.902243 5.174329 0
M  V30 37 H 1.028758 -1.976285 5.716065 0
M  V30 38 H 1.546179 -2.066047 4.010337 0
M  V30 39 H 0.032908 0.053567 5.596331 0
M  V30 40 H 0.639916 1.819117 4.301138 0
M  V30 41 H 3.299710 -1.629625 1.057414 0
M  V30 42 H 5.572574 0.438579 -0.854965 0
M  V30 43 H 4.943373 0.696823 -1.928610 0
M  V30 44 H 3.889607 4.906790 0.296139 0
M  V30 45 H 2.318627 5.232363 2.180650 0
M  V30 46 H 1.389878 3.325852 3.311540 0
M  V30 47 H -1.672613 -1.351537 5.865529 0
M  V30 48 H -3.714185 -2.336302 5.096979 0
M  V30 49 H -4.140079 -2.490676 2.647483 0
M  V30 50 H -3.020131 -0.932961 0.176302 0
M  V30 51 H -1.267948 -5.026254 -1.177777 0
M  V30 52 H -1.521894 -5.484298 -3.540540 0
M  V30 53 H -3.270731 -1.247719 -1.822882 0
M  V30 54 H -2.272640 -0.829058 -5.797142 0
M  V30 55 H -3.933396 -1.082759 -6.420037 0
M  V30 56 H -3.303713 -3.148519 -7.196638 0
M  V30 57 H -1.586271 -2.790267 -6.674849 0
M  V30 58 H -0.458475 -0.659009 1.889924 0
M  V30 END ATOM
M  V30 BEGIN BOND
M  V30 1 1 1 2
M  V30 2 1 2 3
M  V30 3 1 3 4
M  V30 4 2 4 5
M  V30 5 1 5 6
M  V30 6 2 6 7
M  V30 7 1 7 8
M  V30 8 2 8 9
M  V30 9 1 9 10
M  V30 10 1 10 11
M  V30 11 2 10 12
M  V30 12 1 9 13
M  V30 13 2 13 14
M  V30 14 1 14 15
M  V30 15 2 15 16
M  V30 16 1 2 17
M  V30 17 2 17 18
M  V30 18 1 18 19
M  V30 19 2 19 20
M  V30 20 1 20 21
M  V30 21 1 21 22
M  V30 22 1 22 23
M  V30 23 2 23 24
M  V30 24 1 23 25
M  V30 25 2 25 26
M  V30 26 1 26 27
M  V30 27 2 27 28
M  V30 28 1 28 29
M  V30 29 2 29 30
M  V30 30 1 29 31
M  V30 31 1 31 32
M  V30 32 1 32 33
M  V30 33 1 33 34
M  V30 34 2 21 35
M  V30 35 1 16 4
M  V30 36 1 35 17
M  V30 37 1 16 8
M  V30 38 1 30 25
M  V30 39 1 34 28
M  V30 40 1 1 36
M  V30 41 1 1 37
M  V30 42 1 1 38
M  V30 43 1 2 39 CFG=1
M  V30 44 1 3 40
M  V30 45 1 6 41
M  V30 46 1 11 42
M  V30 47 1 11 43
M  V30 48 1 13 44
M  V30 49 1 14 45
M  V30 50 1 15 46
M  V30 51 1 18 47
M  V30 52 1 19 48
M  V30 53 1 20 49
M  V30 54 1 22 50
M  V30 55 1 26 51
M  V30 56 1 27 52
M  V30 57 1 30 53
M  V30 58 1 32 54
M  V30 59 1 32 55
M  V30 60 1 33 56
M  V30 61 1 33 57
M  V30 62 1 35 58
M  V30 END BOND
M  V30 END CTAB
M  END
>  <Dataset>  (569) 
ChEMBL_Kinases

>  <Ligand_Instance>  (569) 
nan

>  <PDB_ID>  (569) 
nan

>  <Standardized_SMILES>  (569) 
C[C@@H](Nc1ncnc2c(C(N)=O)cccc12)c1cccc(NC(=O)c2ccc3c(c2)OCCO3)c1

>  <Name>  (569) 
nan

>  <Pocket>  (569) 
nan

>  <ATP_Site>  (569) 
nan

>  <Peripheral>  (569) 
nan

>  <Num_H_Atoms_ProtBoundConf>  (569) 
nan

>  <Num_Resolved_Atoms>  (569) 
nan

>  <Num_Not_Resolved_Atoms>  (569) 
nan

$$$$
CHEMBL3679421
     RDKit          3D

  0  0  0  0  0  0  0  0  0  0999 V3000
M  V30 BEGIN CTAB
M  V30 COUNTS 64 69 0 0 0
M  V30 BEGIN ATOM
M  V30 1 O 1.173480 -2.990972 1.591116 0
M  V30 2 C 1.833326 -1.962942 1.220819 0
M  V30 3 N 2.134035 -1.878353 -0.158003 0
M  V30 4 C 1.816265 -2.774868 -1.238056 0
M  V30 5 C 0.391352 -3.025448 -1.457403 0
M  V30 6 C -0.485067 -2.155864 -2.056162 0
M  V30 7 C -0.005306 -0.868522 -2.547990 0
M  V30 8 N -0.788677 0.064920 -3.137548 0
M  V30 9 C 0.019072 1.090294 -3.441583 0
M  V30 10 C 1.303449 0.799522 -3.043704 0
M  V30 11 O 1.206695 -0.373460 -2.525559 0
M  V30 12 N -1.785668 -2.488009 -2.207365 0
M  V30 13 C -2.676105 -1.570224 -2.831839 0
M  V30 14 C -3.402731 -0.540004 -2.264437 0
M  V30 15 C -4.216441 0.240766 -3.058481 0
M  V30 16 C -4.341856 0.033141 -4.437552 0
M  V30 17 C -3.599344 -1.014661 -4.999958 0
M  V30 18 C -2.772792 -1.807203 -4.191186 0
M  V30 19 C -2.336822 -3.649684 -1.807996 0
M  V30 20 C -3.679615 -3.916936 -1.999036 0
M  V30 21 C -4.240047 -5.105006 -1.590880 0
M  V30 22 Cl -5.923566 -5.488699 -1.808517 0
M  V30 23 C -3.396428 -6.023559 -0.978300 0
M  V30 24 C -2.047684 -5.758075 -0.785083 0
M  V30 25 C -1.496145 -4.565056 -1.197751 0
M  V30 26 C -0.163068 -4.232728 -1.038749 0
M  V30 27 O 0.494425 -5.156381 -0.468671 0
M  V30 28 C 2.212981 -0.983648 2.231770 0
M  V30 29 C 2.922036 0.175265 1.982763 0
M  V30 30 C 3.242147 1.053751 3.012794 0
M  V30 31 N 2.881186 0.820888 4.288551 0
M  V30 32 C 3.289197 1.827938 5.242740 0
M  V30 33 C 2.222166 2.855947 5.350688 0
M  V30 34 C 1.230264 2.690443 6.314388 0
M  V30 35 C 0.205547 3.606074 6.470997 0
M  V30 36 C 0.157244 4.717850 5.653181 0
M  V30 37 C 1.125541 4.915925 4.684185 0
M  V30 38 C 2.137597 3.989636 4.546536 0
M  V30 39 C 2.191138 -0.299980 4.553824 0
M  V30 40 O 1.867588 -0.492388 5.750748 0
M  V30 41 C 1.867121 -1.181484 3.535204 0
M  V30 42 H 2.688512 -0.991410 -0.353081 0
M  V30 43 H 2.355980 -2.448318 -2.148828 0
M  V30 44 H 2.331570 -3.745920 -0.969680 0
M  V30 45 H -0.387640 1.968758 -3.928369 0
M  V30 46 H 2.157739 1.438866 -3.161132 0
M  V30 47 H -3.257958 -0.442694 -1.217498 0
M  V30 48 H -4.768553 1.040798 -2.562609 0
M  V30 49 H -4.985493 0.657861 -5.038869 0
M  V30 50 H -3.714986 -1.154886 -6.076523 0
M  V30 51 H -2.270686 -2.572074 -4.786273 0
M  V30 52 H -4.329911 -3.190545 -2.479583 0
M  V30 53 H -3.747858 -6.992833 -0.620661 0
M  V30 54 H -1.390894 -6.491045 -0.300290 0
M  V30 55 H 3.227737 0.399792 0.990144 0
M  V30 56 H 3.808961 1.953885 2.729787 0
M  V30 57 H 3.435787 1.406440 6.259449 0
M  V30 58 H 4.235428 2.317422 4.942727 0
M  V30 59 H 1.181783 1.857611 6.998825 0
M  V30 60 H -0.570498 3.487223 7.216528 0
M  V30 61 H -0.635019 5.466611 5.743071 0
M  V30 62 H 1.064038 5.792308 4.059406 0
M  V30 63 H 2.905611 4.122411 3.796953 0
M  V30 64 H 1.310326 -2.043845 3.881724 0
M  V30 END ATOM
M  V30 BEGIN BOND
M  V30 1 2 1 2
M  V30 2 1 2 3
M  V30 3 1 3 4
M  V30 4 1 4 5
M  V30 5 2 5 6
M  V30 6 1 6 7
M  V30 7 2 7 8
M  V30 8 1 8 9
M  V30 9 2 9 10
M  V30 10 1 10 11
M  V30 11 1 6 12
M  V30 12 1 12 13
M  V30 13 2 13 14
M  V30 14 1 14 15
M  V30 15 2 15 16
M  V30 16 1 16 17
M  V30 17 2 17 18
M  V30 18 1 12 19
M  V30 19 2 19 20
M  V30 20 1 20 21
M  V30 21 1 21 22
M  V30 22 2 21 23
M  V30 23 1 23 24
M  V30 24 2 24 25
M  V30 25 1 25 26
M  V30 26 2 26 27
M  V30 27 1 2 28
M  V30 28 1 28 29
M  V30 29 2 29 30
M  V30 30 1 30 31
M  V30 31 1 31 32
M  V30 32 1 32 33
M  V30 33 2 33 34
M  V30 34 1 34 35
M  V30 35 2 35 36
M  V30 36 1 36 37
M  V30 37 2 37 38
M  V30 38 1 31 39
M  V30 39 2 39 40
M  V30 40 1 39 41
M  V30 41 1 26 5
M  V30 42 2 41 28
M  V30 43 1 11 7
M  V30 44 1 18 13
M  V30 45 1 25 19
M  V30 46 1 38 33
M  V30 47 1 3 42
M  V30 48 1 4 43
M  V30 49 1 4 44
M  V30 50 1 9 45
M  V30 51 1 10 46
M  V30 52 1 14 47
M  V30 53 1 15 48
M  V30 54 1 16 49
M  V30 55 1 17 50
M  V30 56 1 18 51
M  V30 57 1 20 52
M  V30 58 1 23 53
M  V30 59 1 24 54
M  V30 60 1 29 55
M  V30 61 1 30 56
M  V30 62 1 32 57
M  V30 63 1 32 58
M  V30 64 1 34 59
M  V30 65 1 35 60
M  V30 66 1 36 61
M  V30 67 1 37 62
M  V30 68 1 38 63
M  V30 69 1 41 64
M  V30 END BOND
M  V30 END CTAB
M  END
>  <Dataset>  (570) 
ChEMBL_Kinases

>  <Ligand_Instance>  (570) 
nan

>  <PDB_ID>  (570) 
nan

>  <Standardized_SMILES>  (570) 
O=C(NCc1c(-c2ncco2)n(-c2ccccc2)c2cc(Cl)ccc2c1=O)c1ccn(Cc2ccccc2)c(=O)c1

>  <Name>  (570) 
nan

>  <Pocket>  (570) 
nan

>  <ATP_Site>  (570) 
nan

>  <Peripheral>  (570) 
nan

>  <Num_H_Atoms_ProtBoundConf>  (570) 
nan

>  <Num_Resolved_Atoms>  (570) 
nan

>  <Num_Not_Resolved_Atoms>  (570) 
nan

$$$$
CHEMBL3675373
     RDKit          3D

  0  0  0  0  0  0  0  0  0  0999 V3000
M  V30 BEGIN CTAB
M  V30 COUNTS 40 42 0 0 0
M  V30 BEGIN ATOM
M  V30 1 N 1.301298 -5.875991 -1.114284 0
M  V30 2 C 2.487072 -5.098931 -1.034264 0
M  V30 3 O 3.556081 -5.735735 -1.207928 0
M  V30 4 C 2.426937 -3.682486 -0.770698 0
M  V30 5 C 3.578430 -2.934584 -0.678681 0
M  V30 6 C 3.471895 -1.584289 -0.425334 0
M  V30 7 N 4.655255 -0.803498 -0.331642 0 CHG=1 VAL=4
M  V30 8 O 5.763082 -1.313066 -0.467228 0
M  V30 9 O 4.600099 0.552750 -0.084771 0 CHG=-1 VAL=1
M  V30 10 C 2.230193 -1.026880 -0.272772 0
M  V30 11 C 1.033143 -1.711524 -0.351280 0
M  V30 12 C -0.232279 -1.162759 -0.203838 0
M  V30 13 N -0.154770 0.207075 0.056600 0
M  V30 14 C -0.076699 1.588066 0.319162 0
M  V30 15 C -0.684010 2.032787 1.627867 0
M  V30 16 C 0.064776 2.077786 2.783397 0
M  V30 17 C -0.518245 2.493500 3.971149 0
M  V30 18 C -1.849785 2.846554 3.919516 0
M  V30 19 C -2.624467 2.812321 2.780194 0
M  V30 20 C -4.061637 3.200680 2.745949 0
M  V30 21 F -4.162262 4.481706 2.268320 0
M  V30 22 F -4.563187 3.107441 4.030400 0
M  V30 23 F -4.785674 2.398034 1.883363 0
M  V30 24 C -2.031210 2.392816 1.589596 0
M  V30 25 N -1.257541 -2.005130 -0.323144 0
M  V30 26 C -1.114417 -3.309045 -0.570207 0
M  V30 27 N 0.114229 -3.807639 -0.706865 0
M  V30 28 C 1.212357 -3.056113 -0.606820 0
M  V30 29 H 1.125169 -5.633553 -2.135603 0
M  V30 30 H 0.618061 -6.506797 -0.642803 0
M  V30 31 H 4.504324 -3.473337 -0.814294 0
M  V30 32 H 2.218614 0.017661 -0.079608 0
M  V30 33 H -1.209857 0.364572 0.112051 0
M  V30 34 H -0.480957 2.270546 -0.480636 0
M  V30 35 H 0.995668 1.954712 0.405320 0
M  V30 36 H 1.100908 1.785925 2.745376 0
M  V30 37 H 0.036670 2.542073 4.904474 0
M  V30 38 H -2.384519 3.186548 4.816912 0
M  V30 39 H -2.615000 2.353613 0.673470 0
M  V30 40 H -2.084266 -3.794256 -0.624592 0
M  V30 END ATOM
M  V30 BEGIN BOND
M  V30 1 1 1 2
M  V30 2 2 2 3
M  V30 3 1 2 4
M  V30 4 2 4 5
M  V30 5 1 5 6
M  V30 6 1 6 7
M  V30 7 2 7 8
M  V30 8 1 7 9
M  V30 9 2 6 10
M  V30 10 1 10 11
M  V30 11 2 11 12
M  V30 12 1 12 13
M  V30 13 1 13 14
M  V30 14 1 14 15
M  V30 15 2 15 16
M  V30 16 1 16 17
M  V30 17 2 17 18
M  V30 18 1 18 19
M  V30 19 1 19 20
M  V30 20 1 20 21
M  V30 21 1 20 22
M  V30 22 1 20 23
M  V30 23 2 19 24
M  V30 24 1 12 25
M  V30 25 2 25 26
M  V30 26 1 26 27
M  V30 27 2 27 28
M  V30 28 1 28 4
M  V30 29 1 28 11
M  V30 30 1 24 15
M  V30 31 1 1 29
M  V30 32 1 1 30
M  V30 33 1 5 31
M  V30 34 1 10 32
M  V30 35 1 13 33
M  V30 36 1 14 34
M  V30 37 1 14 35
M  V30 38 1 16 36
M  V30 39 1 17 37
M  V30 40 1 18 38
M  V30 41 1 24 39
M  V30 42 1 26 40
M  V30 END BOND
M  V30 END CTAB
M  END
>  <Dataset>  (571) 
ChEMBL_Kinases

>  <Ligand_Instance>  (571) 
nan

>  <PDB_ID>  (571) 
nan

>  <Standardized_SMILES>  (571) 
NC(=O)c1cc([N+](=O)[O-])cc2c(NCc3cccc(C(F)(F)F)c3)ncnc12

>  <Name>  (571) 
nan

>  <Pocket>  (571) 
nan

>  <ATP_Site>  (571) 
nan

>  <Peripheral>  (571) 
nan

>  <Num_H_Atoms_ProtBoundConf>  (571) 
nan

>  <Num_Resolved_Atoms>  (571) 
nan

>  <Num_Not_Resolved_Atoms>  (571) 
nan

$$$$
CHEMBL3675375
     RDKit          3D

  0  0  0  0  0  0  0  0  0  0999 V3000
M  V30 BEGIN CTAB
M  V30 COUNTS 40 42 0 0 0
M  V30 BEGIN ATOM
M  V30 1 N -0.832787 -6.061445 -0.586992 0
M  V30 2 C -0.430006 -4.943490 -1.368629 0
M  V30 3 O -0.207966 -5.184734 -2.582830 0
M  V30 4 C -0.307106 -3.647459 -0.734534 0
M  V30 5 C -0.577932 -3.491649 0.625482 0
M  V30 6 C -0.457799 -2.261305 1.211366 0
M  V30 7 N -0.729817 -2.081705 2.598354 0 CHG=1 VAL=4
M  V30 8 O -1.077333 -3.044483 3.278072 0
M  V30 9 O -0.603745 -0.840095 3.168309 0 CHG=-1 VAL=1
M  V30 10 C -0.067503 -1.199939 0.428321 0
M  V30 11 C 0.223709 -1.239626 -0.917214 0
M  V30 12 C 0.613087 -0.196192 -1.711034 0
M  V30 13 N 0.737092 1.083324 -1.102019 0
M  V30 14 C 0.861880 2.344967 -0.512734 0
M  V30 15 C 0.522499 2.394539 0.967975 0
M  V30 16 C -0.765648 2.653809 1.421403 0
M  V30 17 C -1.016112 2.686387 2.780591 0
M  V30 18 C -0.011418 2.466317 3.696653 0
M  V30 19 Cl -0.495618 2.542423 5.386534 0
M  V30 20 C 1.270967 2.208072 3.257122 0
M  V30 21 C 2.274130 1.986316 4.315713 0
M  V30 22 F 2.387119 3.105702 5.149434 0
M  V30 23 F 1.885217 0.883731 5.072840 0
M  V30 24 F 3.509311 1.713255 3.783916 0
M  V30 25 C 1.531042 2.173469 1.904775 0
M  V30 26 N 0.828916 -0.533671 -2.988692 0
M  V30 27 C 0.706850 -1.734523 -3.538813 0
M  V30 28 N 0.325789 -2.698531 -2.709632 0
M  V30 29 C 0.075806 -2.507936 -1.413150 0
M  V30 30 H -0.581022 -6.404959 0.377360 0
M  V30 31 H -1.522390 -6.758294 -0.945303 0
M  V30 32 H -0.883789 -4.329415 1.234020 0
M  V30 33 H 0.014422 -0.257183 0.923998 0
M  V30 34 H 1.037387 1.587198 -2.000829 0
M  V30 35 H 1.904579 2.791504 -0.579101 0
M  V30 36 H 0.125143 3.109336 -0.922643 0
M  V30 37 H -1.500393 2.816259 0.645611 0
M  V30 38 H -2.037978 2.892962 3.076662 0
M  V30 39 H 2.552399 1.966896 1.617616 0
M  V30 40 H 0.922496 -1.838277 -4.602149 0
M  V30 END ATOM
M  V30 BEGIN BOND
M  V30 1 1 1 2
M  V30 2 2 2 3
M  V30 3 1 2 4
M  V30 4 2 4 5
M  V30 5 1 5 6
M  V30 6 1 6 7
M  V30 7 2 7 8
M  V30 8 1 7 9
M  V30 9 2 6 10
M  V30 10 1 10 11
M  V30 11 2 11 12
M  V30 12 1 12 13
M  V30 13 1 13 14
M  V30 14 1 14 15
M  V30 15 2 15 16
M  V30 16 1 16 17
M  V30 17 2 17 18
M  V30 18 1 18 19
M  V30 19 1 18 20
M  V30 20 1 20 21
M  V30 21 1 21 22
M  V30 22 1 21 23
M  V30 23 1 21 24
M  V30 24 2 20 25
M  V30 25 1 12 26
M  V30 26 2 26 27
M  V30 27 1 27 28
M  V30 28 2 28 29
M  V30 29 1 29 4
M  V30 30 1 29 11
M  V30 31 1 25 15
M  V30 32 1 1 30
M  V30 33 1 1 31
M  V30 34 1 5 32
M  V30 35 1 10 33
M  V30 36 1 13 34
M  V30 37 1 14 35
M  V30 38 1 14 36
M  V30 39 1 16 37
M  V30 40 1 17 38
M  V30 41 1 25 39
M  V30 42 1 27 40
M  V30 END BOND
M  V30 END CTAB
M  END
>  <Dataset>  (572) 
ChEMBL_Kinases

>  <Ligand_Instance>  (572) 
nan

>  <PDB_ID>  (572) 
nan

>  <Standardized_SMILES>  (572) 
NC(=O)c1cc([N+](=O)[O-])cc2c(NCc3ccc(Cl)c(C(F)(F)F)c3)ncnc12

>  <Name>  (572) 
nan

>  <Pocket>  (572) 
nan

>  <ATP_Site>  (572) 
nan

>  <Peripheral>  (572) 
nan

>  <Num_H_Atoms_ProtBoundConf>  (572) 
nan

>  <Num_Resolved_Atoms>  (572) 
nan

>  <Num_Not_Resolved_Atoms>  (572) 
nan

$$$$
CHEMBL3675384
     RDKit          3D

  0  0  0  0  0  0  0  0  0  0999 V3000
M  V30 BEGIN CTAB
M  V30 COUNTS 54 57 0 0 0
M  V30 BEGIN ATOM
M  V30 1 N 5.367025 -3.536408 2.056375 0
M  V30 2 C 4.168228 -3.804489 1.347072 0
M  V30 3 O 4.053217 -5.030743 1.074026 0
M  V30 4 C 3.182183 -2.829833 0.967723 0
M  V30 5 C 3.330938 -1.511792 1.275094 0
M  V30 6 C 2.417345 -0.567087 0.930746 0
M  V30 7 N 2.689076 0.772866 1.309898 0
M  V30 8 C 1.963784 1.951808 1.109971 0
M  V30 9 O 0.870913 1.886956 0.494307 0
M  V30 10 N 2.318201 3.244462 1.526768 0
M  V30 11 C 1.444124 4.335704 1.229612 0
M  V30 12 C 1.738289 4.926558 0.008091 0
M  V30 13 C 1.011643 6.004730 -0.474754 0
M  V30 14 C -0.023099 6.482574 0.296245 0
M  V30 15 C -0.324405 5.903445 1.511469 0
M  V30 16 C 0.396896 4.830751 1.994141 0
M  V30 17 C 1.318237 -1.027578 0.243792 0
M  V30 18 C 1.112748 -2.343194 -0.094577 0
M  V30 19 C -0.005517 -2.751236 -0.783056 0
M  V30 20 N -1.022296 -1.872524 -1.201499 0
M  V30 21 C -2.240320 -2.176868 -1.924785 0
M  V30 22 C -3.058083 -3.084621 -1.076924 0
M  V30 23 C -3.159992 -4.441764 -1.062281 0
M  V30 24 C -3.979442 -5.089834 -0.166605 0
M  V30 25 C -4.746251 -4.424998 0.767128 0
M  V30 26 Cl -5.742019 -5.381015 1.842897 0
M  V30 27 C -4.665587 -3.050553 0.777485 0
M  V30 28 C -5.480759 -2.326611 1.771184 0
M  V30 29 F -6.821676 -2.639312 1.532199 0
M  V30 30 F -5.266166 -0.966551 1.674735 0
M  V30 31 F -5.127469 -2.779899 3.044116 0
M  V30 32 C -3.840085 -2.417131 -0.125904 0
M  V30 33 N -0.084545 -4.054103 -1.049115 0
M  V30 34 C 0.835646 -4.952281 -0.693152 0
M  V30 35 N 1.928624 -4.541431 -0.018195 0
M  V30 36 C 2.079871 -3.235871 0.288292 0
M  V30 37 H 5.565100 -2.787352 2.780997 0
M  V30 38 H 5.316664 -2.738320 2.724149 0
M  V30 39 H 4.231368 -1.247729 1.818551 0
M  V30 40 H 3.576480 0.995277 1.838832 0
M  V30 41 H 3.236625 3.350217 2.052836 0
M  V30 42 H 2.540001 4.608528 -0.661265 0
M  V30 43 H 1.226466 6.473997 -1.418895 0
M  V30 44 H -0.599134 7.321624 -0.064960 0
M  V30 45 H -1.133180 6.253539 2.146369 0
M  V30 46 H 0.254158 4.298997 2.924882 0
M  V30 47 H 0.583535 -0.295889 -0.037788 0
M  V30 48 H -0.975629 -0.860029 -1.009742 0
M  V30 49 H -1.981593 -2.688138 -2.900159 0
M  V30 50 H -2.844011 -1.277908 -2.159790 0
M  V30 51 H -2.561317 -4.942541 -1.806224 0
M  V30 52 H -3.997249 -6.182787 -0.228243 0
M  V30 53 H -3.851316 -1.335774 -0.031715 0
M  V30 54 H 0.664708 -5.971292 -0.961654 0
M  V30 END ATOM
M  V30 BEGIN BOND
M  V30 1 1 1 2
M  V30 2 2 2 3
M  V30 3 1 2 4
M  V30 4 2 4 5
M  V30 5 1 5 6
M  V30 6 1 6 7
M  V30 7 1 7 8
M  V30 8 2 8 9
M  V30 9 1 8 10
M  V30 10 1 10 11
M  V30 11 2 11 12
M  V30 12 1 12 13
M  V30 13 2 13 14
M  V30 14 1 14 15
M  V30 15 2 15 16
M  V30 16 2 6 17
M  V30 17 1 17 18
M  V30 18 2 18 19
M  V30 19 1 19 20
M  V30 20 1 20 21
M  V30 21 1 21 22
M  V30 22 2 22 23
M  V30 23 1 23 24
M  V30 24 2 24 25
M  V30 25 1 25 26
M  V30 26 1 25 27
M  V30 27 1 27 28
M  V30 28 1 28 29
M  V30 29 1 28 30
M  V30 30 1 28 31
M  V30 31 2 27 32
M  V30 32 1 19 33
M  V30 33 2 33 34
M  V30 34 1 34 35
M  V30 35 2 35 36
M  V30 36 1 36 4
M  V30 37 1 16 11
M  V30 38 1 36 18
M  V30 39 1 32 22
M  V30 40 1 1 37
M  V30 41 1 1 38
M  V30 42 1 5 39
M  V30 43 1 7 40
M  V30 44 1 10 41
M  V30 45 1 12 42
M  V30 46 1 13 43
M  V30 47 1 14 44
M  V30 48 1 15 45
M  V30 49 1 16 46
M  V30 50 1 17 47
M  V30 51 1 20 48
M  V30 52 1 21 49
M  V30 53 1 21 50
M  V30 54 1 23 51
M  V30 55 1 24 52
M  V30 56 1 32 53
M  V30 57 1 34 54
M  V30 END BOND
M  V30 END CTAB
M  END
>  <Dataset>  (573) 
ChEMBL_Kinases

>  <Ligand_Instance>  (573) 
nan

>  <PDB_ID>  (573) 
nan

>  <Standardized_SMILES>  (573) 
NC(=O)c1cc(NC(=O)Nc2ccccc2)cc2c(NCc3ccc(Cl)c(C(F)(F)F)c3)ncnc12

>  <Name>  (573) 
nan

>  <Pocket>  (573) 
nan

>  <ATP_Site>  (573) 
nan

>  <Peripheral>  (573) 
nan

>  <Num_H_Atoms_ProtBoundConf>  (573) 
nan

>  <Num_Resolved_Atoms>  (573) 
nan

>  <Num_Not_Resolved_Atoms>  (573) 
nan

$$$$
CHEMBL3675386
     RDKit          3D

  0  0  0  0  0  0  0  0  0  0999 V3000
M  V30 BEGIN CTAB
M  V30 COUNTS 58 61 0 0 0
M  V30 BEGIN ATOM
M  V30 1 N 0.286435 -0.172589 6.396218 0
M  V30 2 C 1.037970 0.270899 5.271855 0
M  V30 3 O 1.887976 1.201676 5.381653 0
M  V30 4 C 0.860176 -0.326995 3.950986 0
M  V30 5 C 1.624288 0.156516 2.909121 0
M  V30 6 C 1.445685 -0.417941 1.667198 0
M  V30 7 N 2.261248 0.111569 0.599595 0
M  V30 8 C 1.790829 1.217102 -0.201201 0
M  V30 9 O 0.655639 1.500725 0.259664 0
M  V30 10 C 2.794193 1.566759 -1.211110 0
M  V30 11 C 2.432842 2.697512 -2.113028 0
M  V30 12 C 2.183177 3.983719 -1.427093 0
M  V30 13 C 0.988329 4.474930 -0.943235 0
M  V30 14 C 0.885470 5.685873 -0.321030 0
M  V30 15 C 1.977630 6.497138 -0.137340 0
M  V30 16 C 3.194098 6.045474 -0.605982 0
M  V30 17 C 3.291106 4.817542 -1.235415 0
M  V30 18 C 0.533890 -1.436862 1.487696 0
M  V30 19 C -0.239851 -1.936858 2.509299 0
M  V30 20 C -1.129818 -2.957762 2.248438 0
M  V30 21 N -1.313423 -3.549537 0.967656 0
M  V30 22 C -2.296067 -4.612153 0.886415 0
M  V30 23 C -2.371753 -5.118455 -0.483843 0
M  V30 24 C -1.596705 -6.155955 -0.959371 0
M  V30 25 C -1.739150 -6.565737 -2.271131 0
M  V30 26 C -2.659655 -5.937487 -3.113718 0
M  V30 27 Cl -2.817897 -6.486284 -4.788824 0
M  V30 28 C -3.435068 -4.900043 -2.639280 0
M  V30 29 C -4.397484 -4.277209 -3.599707 0
M  V30 30 F -3.722199 -3.746679 -4.696931 0
M  V30 31 F -5.276540 -5.209738 -4.131631 0
M  V30 32 F -5.075111 -3.229467 -3.028486 0
M  V30 33 C -3.277698 -4.504714 -1.323782 0
M  V30 34 N -1.821433 -3.351730 3.331407 0
M  V30 35 C -1.686245 -2.826937 4.561149 0
M  V30 36 N -0.792554 -1.819082 4.767203 0
M  V30 37 C -0.042630 -1.346945 3.737621 0
M  V30 38 H 0.447491 -1.085005 6.877932 0
M  V30 39 H -0.396435 0.616259 6.562930 0
M  V30 40 H 2.339022 0.953857 3.044717 0
M  V30 41 H 3.120014 -0.482813 0.631763 0
M  V30 42 H 2.950129 0.670007 -1.843871 0
M  V30 43 H 3.773123 1.845650 -0.736943 0
M  V30 44 H 1.527952 2.427438 -2.697749 0
M  V30 45 H 3.273655 2.830005 -2.831322 0
M  V30 46 H 0.138499 3.825668 -1.096984 0
M  V30 47 H -0.108281 5.945956 0.007713 0
M  V30 48 H 1.778169 7.429645 0.366022 0
M  V30 49 H 4.035505 6.700648 -0.449522 0
M  V30 50 H 4.317302 4.587624 -1.555768 0
M  V30 51 H 0.470514 -1.812117 0.495378 0
M  V30 52 H -0.813562 -3.285517 0.118940 0
M  V30 53 H -2.046690 -5.423144 1.605242 0
M  V30 54 H -3.272770 -4.190271 1.235116 0
M  V30 55 H -0.885244 -6.625119 -0.269911 0
M  V30 56 H -1.107068 -7.393320 -2.615607 0
M  V30 57 H -3.927380 -3.678254 -1.025744 0
M  V30 58 H -2.309040 -3.235325 5.363898 0
M  V30 END ATOM
M  V30 BEGIN BOND
M  V30 1 1 1 2
M  V30 2 2 2 3
M  V30 3 1 2 4
M  V30 4 2 4 5
M  V30 5 1 5 6
M  V30 6 1 6 7
M  V30 7 1 7 8
M  V30 8 2 8 9
M  V30 9 1 8 10
M  V30 10 1 10 11
M  V30 11 1 11 12
M  V30 12 2 12 13
M  V30 13 1 13 14
M  V30 14 2 14 15
M  V30 15 1 15 16
M  V30 16 2 16 17
M  V30 17 2 6 18
M  V30 18 1 18 19
M  V30 19 2 19 20
M  V30 20 1 20 21
M  V30 21 1 21 22
M  V30 22 1 22 23
M  V30 23 2 23 24
M  V30 24 1 24 25
M  V30 25 2 25 26
M  V30 26 1 26 27
M  V30 27 1 26 28
M  V30 28 1 28 29
M  V30 29 1 29 30
M  V30 30 1 29 31
M  V30 31 1 29 32
M  V30 32 2 28 33
M  V30 33 1 20 34
M  V30 34 2 34 35
M  V30 35 1 35 36
M  V30 36 2 36 37
M  V30 37 1 37 4
M  V30 38 1 17 12
M  V30 39 1 37 19
M  V30 40 1 33 23
M  V30 41 1 1 38
M  V30 42 1 1 39
M  V30 43 1 5 40
M  V30 44 1 7 41
M  V30 45 1 10 42
M  V30 46 1 10 43
M  V30 47 1 11 44
M  V30 48 1 11 45
M  V30 49 1 13 46
M  V30 50 1 14 47
M  V30 51 1 15 48
M  V30 52 1 16 49
M  V30 53 1 17 50
M  V30 54 1 18 51
M  V30 55 1 21 52
M  V30 56 1 22 53
M  V30 57 1 22 54
M  V30 58 1 24 55
M  V30 59 1 25 56
M  V30 60 1 33 57
M  V30 61 1 35 58
M  V30 END BOND
M  V30 END CTAB
M  END
>  <Dataset>  (574) 
ChEMBL_Kinases

>  <Ligand_Instance>  (574) 
nan

>  <PDB_ID>  (574) 
nan

>  <Standardized_SMILES>  (574) 
NC(=O)c1cc(NC(=O)CCc2ccccc2)cc2c(NCc3ccc(Cl)c(C(F)(F)F)c3)ncnc12

>  <Name>  (574) 
nan

>  <Pocket>  (574) 
nan

>  <ATP_Site>  (574) 
nan

>  <Peripheral>  (574) 
nan

>  <Num_H_Atoms_ProtBoundConf>  (574) 
nan

>  <Num_Resolved_Atoms>  (574) 
nan

>  <Num_Not_Resolved_Atoms>  (574) 
nan

$$$$
CHEMBL3675390
     RDKit          3D

  0  0  0  0  0  0  0  0  0  0999 V3000
M  V30 BEGIN CTAB
M  V30 COUNTS 56 60 0 0 0
M  V30 BEGIN ATOM
M  V30 1 N 5.045738 -3.844362 3.315218 0
M  V30 2 C 4.692757 -2.711433 2.536088 0
M  V30 3 O 5.655577 -1.913945 2.448347 0
M  V30 4 C 3.424648 -2.413929 1.884498 0
M  V30 5 C 3.372070 -1.224915 1.190635 0
M  V30 6 C 2.162993 -0.923772 0.560241 0
M  V30 7 N 2.147763 0.330794 -0.159776 0
M  V30 8 C 1.719003 1.362904 0.741577 0
M  V30 9 O 1.466334 0.936381 1.908659 0
M  V30 10 C 1.588113 2.759301 0.353003 0
M  V30 11 C 1.168324 3.634220 1.333520 0
M  V30 12 N 1.021178 4.963357 1.051652 0
M  V30 13 C 1.288227 5.412752 -0.187899 0
M  V30 14 C 1.158318 6.760153 -0.542878 0
M  V30 15 C 1.431973 7.222846 -1.813849 0
M  V30 16 C 1.843507 6.278129 -2.722241 0
M  V30 17 C 2.008136 4.928623 -2.491577 0
M  V30 18 C 1.711255 4.546844 -1.185821 0
M  V30 19 N 1.851613 3.228180 -0.885614 0
M  V30 20 C 1.087500 -1.785390 0.639580 0
M  V30 21 C 1.160832 -2.968085 1.337586 0
M  V30 22 C 0.044930 -3.778569 1.371884 0
M  V30 23 N -1.192736 -3.495859 0.738882 0
M  V30 24 C -2.269874 -4.468387 0.879674 0
M  V30 25 C -3.483577 -4.032581 0.163096 0
M  V30 26 C -3.598422 -4.436820 -1.171123 0
M  V30 27 C -4.648253 -4.128511 -1.982292 0
M  V30 28 C -5.665540 -3.366119 -1.449985 0
M  V30 29 Cl -7.023578 -2.959711 -2.476349 0
M  V30 30 C -5.575155 -2.953760 -0.132076 0
M  V30 31 C -6.693087 -2.135833 0.397685 0
M  V30 32 F -7.892266 -2.851787 0.320412 0
M  V30 33 F -6.859187 -1.037688 -0.431735 0
M  V30 34 F -6.457415 -1.645469 1.648472 0
M  V30 35 C -4.507289 -3.274638 0.672347 0
M  V30 36 N 0.214689 -4.909990 2.077137 0
M  V30 37 C 1.350426 -5.247104 2.700174 0
M  V30 38 N 2.433187 -4.431723 2.650434 0
M  V30 39 C 2.350917 -3.274504 1.963817 0
M  V30 40 H 4.830258 -4.337288 4.210364 0
M  V30 41 H 4.373240 -3.639440 4.087968 0
M  V30 42 H 4.203204 -0.560283 1.129805 0
M  V30 43 H 2.369876 0.625619 -1.137066 0
M  V30 44 H 0.950379 3.287398 2.332841 0
M  V30 45 H 0.826840 7.408263 0.257100 0
M  V30 46 H 1.324537 8.264970 -2.062334 0
M  V30 47 H 2.064571 6.635876 -3.738625 0
M  V30 48 H 2.328689 4.220339 -3.217374 0
M  V30 49 H 0.194637 -1.472696 0.123029 0
M  V30 50 H -1.412033 -2.658017 0.179355 0
M  V30 51 H -2.451003 -4.628089 1.959543 0
M  V30 52 H -1.890930 -5.430441 0.476978 0
M  V30 53 H -2.813391 -5.040700 -1.626048 0
M  V30 54 H -4.690262 -4.467905 -3.015265 0
M  V30 55 H -4.417942 -2.966281 1.692770 0
M  V30 56 H 1.299208 -6.196790 3.218401 0
M  V30 END ATOM
M  V30 BEGIN BOND
M  V30 1 1 1 2
M  V30 2 2 2 3
M  V30 3 1 2 4
M  V30 4 2 4 5
M  V30 5 1 5 6
M  V30 6 1 6 7
M  V30 7 1 7 8
M  V30 8 2 8 9
M  V30 9 1 8 10
M  V30 10 2 10 11
M  V30 11 1 11 12
M  V30 12 2 12 13
M  V30 13 1 13 14
M  V30 14 2 14 15
M  V30 15 1 15 16
M  V30 16 2 16 17
M  V30 17 1 17 18
M  V30 18 2 18 19
M  V30 19 2 6 20
M  V30 20 1 20 21
M  V30 21 2 21 22
M  V30 22 1 22 23
M  V30 23 1 23 24
M  V30 24 1 24 25
M  V30 25 2 25 26
M  V30 26 1 26 27
M  V30 27 2 27 28
M  V30 28 1 28 29
M  V30 29 1 28 30
M  V30 30 1 30 31
M  V30 31 1 31 32
M  V30 32 1 31 33
M  V30 33 1 31 34
M  V30 34 2 30 35
M  V30 35 1 22 36
M  V30 36 2 36 37
M  V30 37 1 37 38
M  V30 38 2 38 39
M  V30 39 1 39 4
M  V30 40 1 19 10
M  V30 41 1 39 21
M  V30 42 1 18 13
M  V30 43 1 35 25
M  V30 44 1 1 40
M  V30 45 1 1 41
M  V30 46 1 5 42
M  V30 47 1 7 43
M  V30 48 1 11 44
M  V30 49 1 14 45
M  V30 50 1 15 46
M  V30 51 1 16 47
M  V30 52 1 17 48
M  V30 53 1 20 49
M  V30 54 1 23 50
M  V30 55 1 24 51
M  V30 56 1 24 52
M  V30 57 1 26 53
M  V30 58 1 27 54
M  V30 59 1 35 55
M  V30 60 1 37 56
M  V30 END BOND
M  V30 END CTAB
M  END
>  <Dataset>  (575) 
ChEMBL_Kinases

>  <Ligand_Instance>  (575) 
nan

>  <PDB_ID>  (575) 
nan

>  <Standardized_SMILES>  (575) 
NC(=O)c1cc(NC(=O)c2cnc3ccccc3n2)cc2c(NCc3ccc(Cl)c(C(F)(F)F)c3)ncnc12

>  <Name>  (575) 
nan

>  <Pocket>  (575) 
nan

>  <ATP_Site>  (575) 
nan

>  <Peripheral>  (575) 
nan

>  <Num_H_Atoms_ProtBoundConf>  (575) 
nan

>  <Num_Resolved_Atoms>  (575) 
nan

>  <Num_Not_Resolved_Atoms>  (575) 
nan

$$$$
CHEMBL3675400
     RDKit          3D

  0  0  0  0  0  0  0  0  0  0999 V3000
M  V30 BEGIN CTAB
M  V30 COUNTS 41 43 0 0 0
M  V30 BEGIN ATOM
M  V30 1 C 1.722289 -2.932584 6.464513 0
M  V30 2 C 1.790324 -2.314753 5.111502 0
M  V30 3 C 1.758810 -3.199670 4.042462 0
M  V30 4 C 1.822503 -2.618242 2.789557 0
M  V30 5 C 1.912617 -1.256696 2.540030 0
M  V30 6 C 1.971179 -0.816261 1.123938 0
M  V30 7 N 0.667610 -0.562655 0.547482 0
M  V30 8 C 0.599851 -0.138297 -0.803161 0
M  V30 9 N 1.712132 0.028415 -1.537723 0
M  V30 10 C 1.691235 0.429423 -2.819952 0
M  V30 11 N 0.557391 0.697241 -3.475122 0
M  V30 12 C -0.608603 0.549414 -2.791634 0
M  V30 13 C -1.813645 0.809819 -3.411192 0
M  V30 14 C -1.761260 1.237696 -4.793386 0
M  V30 15 N -2.894634 1.551632 -5.592731 0
M  V30 16 O -0.673671 1.365798 -5.403640 0
M  V30 17 C -3.031944 0.679959 -2.776883 0
M  V30 18 C -2.963359 0.265243 -1.459079 0
M  V30 19 C -1.769251 0.000091 -0.822314 0
M  V30 20 C -0.567432 0.137835 -1.479016 0
M  V30 21 C 1.941397 -0.408602 3.627469 0
M  V30 22 C 1.880388 -0.940533 4.899942 0
M  V30 23 C 1.909708 -0.044298 6.098365 0
M  V30 24 H 2.311335 -3.885110 6.446078 0
M  V30 25 H 2.232762 -2.272149 7.202533 0
M  V30 26 H 0.692226 -3.182734 6.771611 0
M  V30 27 H 1.689814 -4.271552 4.150833 0
M  V30 28 H 1.798386 -3.303766 1.943536 0
M  V30 29 H 2.609826 0.106719 1.077559 0
M  V30 30 H 2.527059 -1.596926 0.561786 0
M  V30 31 H -0.111713 -0.717152 1.185693 0
M  V30 32 H 2.679757 0.514959 -3.271797 0
M  V30 33 H -3.706948 2.204149 -5.666248 0
M  V30 34 H -3.046720 0.949267 -6.453240 0
M  V30 35 H -3.919645 0.903972 -3.336518 0
M  V30 36 H -3.910337 0.155243 -0.936897 0
M  V30 37 H -1.818763 -0.318073 0.206727 0
M  V30 38 H 2.011287 0.651634 3.443669 0
M  V30 39 H 2.930476 0.049356 6.522398 0
M  V30 40 H 1.231328 -0.528656 6.846301 0
M  V30 41 H 1.499072 0.924796 5.781630 0
M  V30 END ATOM
M  V30 BEGIN BOND
M  V30 1 1 1 2
M  V30 2 2 2 3
M  V30 3 1 3 4
M  V30 4 2 4 5
M  V30 5 1 5 6
M  V30 6 1 6 7
M  V30 7 1 7 8
M  V30 8 2 8 9
M  V30 9 1 9 10
M  V30 10 2 10 11
M  V30 11 1 11 12
M  V30 12 2 12 13
M  V30 13 1 13 14
M  V30 14 1 14 15
M  V30 15 2 14 16
M  V30 16 1 13 17
M  V30 17 2 17 18
M  V30 18 1 18 19
M  V30 19 2 19 20
M  V30 20 1 5 21
M  V30 21 2 21 22
M  V30 22 1 22 23
M  V30 23 1 22 2
M  V30 24 1 20 8
M  V30 25 1 20 12
M  V30 26 1 1 24
M  V30 27 1 1 25
M  V30 28 1 1 26
M  V30 29 1 3 27
M  V30 30 1 4 28
M  V30 31 1 6 29
M  V30 32 1 6 30
M  V30 33 1 7 31
M  V30 34 1 10 32
M  V30 35 1 15 33
M  V30 36 1 15 34
M  V30 37 1 17 35
M  V30 38 1 18 36
M  V30 39 1 19 37
M  V30 40 1 21 38
M  V30 41 1 23 39
M  V30 42 1 23 40
M  V30 43 1 23 41
M  V30 END BOND
M  V30 END CTAB
M  END
>  <Dataset>  (576) 
ChEMBL_Kinases

>  <Ligand_Instance>  (576) 
nan

>  <PDB_ID>  (576) 
nan

>  <Standardized_SMILES>  (576) 
Cc1ccc(CNc2ncnc3c(C(N)=O)cccc23)cc1C

>  <Name>  (576) 
nan

>  <Pocket>  (576) 
nan

>  <ATP_Site>  (576) 
nan

>  <Peripheral>  (576) 
nan

>  <Num_H_Atoms_ProtBoundConf>  (576) 
nan

>  <Num_Resolved_Atoms>  (576) 
nan

>  <Num_Not_Resolved_Atoms>  (576) 
nan

$$$$
CHEMBL3675429
     RDKit          3D

  0  0  0  0  0  0  0  0  0  0999 V3000
M  V30 BEGIN CTAB
M  V30 COUNTS 47 49 0 0 0
M  V30 BEGIN ATOM
M  V30 1 C -0.022742 -4.800915 3.663905 0
M  V30 2 N -0.205256 -3.724940 2.698837 0
M  V30 3 C -1.247687 -2.813738 3.108157 0
M  V30 4 C -1.416699 -1.704923 2.144723 0 CFG=1
M  V30 5 N -0.261685 -0.867474 1.938170 0
M  V30 6 C -0.406753 0.184772 0.999797 0
M  V30 7 N -1.540488 0.400721 0.331820 0
M  V30 8 C -1.729301 1.377647 -0.569495 0
M  V30 9 N -0.722635 2.242513 -0.863041 0
M  V30 10 C 0.464088 2.089756 -0.224955 0
M  V30 11 C 1.500055 2.946722 -0.497275 0
M  V30 12 C 1.201764 3.966669 -1.477934 0
M  V30 13 N 2.194492 4.881898 -1.872582 0
M  V30 14 O 0.517227 4.606448 -2.283435 0
M  V30 15 C 2.736457 2.882050 0.090880 0
M  V30 16 C 2.847516 1.850093 1.005659 0
M  V30 17 O 4.104714 1.754734 1.629668 0
M  V30 18 C 4.261585 0.714444 2.573973 0
M  V30 19 C 1.814680 0.993869 1.278307 0
M  V30 20 C 0.582681 1.078564 0.674748 0
M  V30 21 C -1.858996 -2.184741 0.810710 0
M  V30 22 C -0.986216 -2.607106 -0.182262 0
M  V30 23 C -1.419552 -3.052332 -1.423589 0
M  V30 24 C -2.763621 -3.088692 -1.713274 0
M  V30 25 C -3.672194 -2.681252 -0.765265 0
M  V30 26 C -3.203355 -2.251665 0.440069 0
M  V30 27 H 0.678497 -5.526095 3.172050 0
M  V30 28 H 0.464936 -4.475343 4.577197 0
M  V30 29 H -0.971991 -5.356631 3.816014 0
M  V30 30 H -0.375047 -4.116707 1.742851 0
M  V30 31 H -1.150783 -2.483878 4.147221 0
M  V30 32 H -2.194035 -3.430013 3.080363 0
M  V30 33 H -2.256704 -1.014163 2.477989 0
M  V30 34 H 0.571168 -1.117264 2.500157 0
M  V30 35 H -2.717679 1.387709 -1.000911 0
M  V30 36 H 2.863987 5.483175 -1.338961 0
M  V30 37 H 2.906852 5.539982 -2.218127 0
M  V30 38 H 3.452005 3.603587 -0.207041 0
M  V30 39 H 4.245693 -0.285983 2.074262 0
M  V30 40 H 3.467243 0.691866 3.339627 0
M  V30 41 H 5.261968 0.774481 3.080038 0
M  V30 42 H 1.999734 0.219416 2.009715 0
M  V30 43 H 0.076562 -2.592000 -0.007207 0
M  V30 44 H -0.733204 -3.379864 -2.192376 0
M  V30 45 H -3.112393 -3.432757 -2.675516 0
M  V30 46 H -4.734958 -2.699407 -0.966544 0
M  V30 47 H -3.919846 -1.927505 1.194477 0
M  V30 END ATOM
M  V30 BEGIN BOND
M  V30 1 1 1 2
M  V30 2 1 2 3
M  V30 3 1 3 4
M  V30 4 1 4 5
M  V30 5 1 5 6
M  V30 6 2 6 7
M  V30 7 1 7 8
M  V30 8 2 8 9
M  V30 9 1 9 10
M  V30 10 2 10 11
M  V30 11 1 11 12
M  V30 12 1 12 13
M  V30 13 2 12 14
M  V30 14 1 11 15
M  V30 15 2 15 16
M  V30 16 1 16 17
M  V30 17 1 17 18
M  V30 18 1 16 19
M  V30 19 2 19 20
M  V30 20 1 4 21
M  V30 21 2 21 22
M  V30 22 1 22 23
M  V30 23 2 23 24
M  V30 24 1 24 25
M  V30 25 2 25 26
M  V30 26 1 20 6
M  V30 27 1 26 21
M  V30 28 1 20 10
M  V30 29 1 1 27
M  V30 30 1 1 28
M  V30 31 1 1 29
M  V30 32 1 2 30
M  V30 33 1 3 31
M  V30 34 1 3 32
M  V30 35 1 4 33 CFG=1
M  V30 36 1 5 34
M  V30 37 1 8 35
M  V30 38 1 13 36
M  V30 39 1 13 37
M  V30 40 1 15 38
M  V30 41 1 18 39
M  V30 42 1 18 40
M  V30 43 1 18 41
M  V30 44 1 19 42
M  V30 45 1 22 43
M  V30 46 1 23 44
M  V30 47 1 24 45
M  V30 48 1 25 46
M  V30 49 1 26 47
M  V30 END BOND
M  V30 END CTAB
M  END
>  <Dataset>  (577) 
ChEMBL_Kinases

>  <Ligand_Instance>  (577) 
nan

>  <PDB_ID>  (577) 
nan

>  <Standardized_SMILES>  (577) 
CNC[C@@H](Nc1ncnc2c(C(N)=O)cc(OC)cc12)c1ccccc1

>  <Name>  (577) 
nan

>  <Pocket>  (577) 
nan

>  <ATP_Site>  (577) 
nan

>  <Peripheral>  (577) 
nan

>  <Num_H_Atoms_ProtBoundConf>  (577) 
nan

>  <Num_Resolved_Atoms>  (577) 
nan

>  <Num_Not_Resolved_Atoms>  (577) 
nan

$$$$
CHEMBL3675498
     RDKit          3D

  0  0  0  0  0  0  0  0  0  0999 V3000
M  V30 BEGIN CTAB
M  V30 COUNTS 52 55 0 0 0
M  V30 BEGIN ATOM
M  V30 1 C -1.011603 -0.248799 4.284325 0
M  V30 2 C -1.925619 0.391815 3.260880 0 CFG=1
M  V30 3 N -1.238246 1.461814 2.569883 0
M  V30 4 C 0.117570 1.390577 2.146247 0
M  V30 5 N 0.916064 0.338277 2.388697 0
M  V30 6 C 2.201930 0.281584 2.016082 0
M  V30 7 N 2.801301 1.298561 1.356268 0
M  V30 8 C 2.052391 2.404039 1.073600 0
M  V30 9 C 2.648460 3.447774 0.401865 0
M  V30 10 C 4.048870 3.368283 0.004236 0
M  V30 11 N 4.853682 2.229855 0.285352 0
M  V30 12 O 4.613365 4.309851 -0.610099 0
M  V30 13 C 1.940362 4.587160 0.090217 0
M  V30 14 C 0.610289 4.639582 0.478489 0
M  V30 15 C 0.070669 3.564228 1.147455 0
M  V30 16 C 0.733528 2.424180 1.473492 0
M  V30 17 C -2.424236 -0.645767 2.349957 0
M  V30 18 C -3.674825 -1.212928 2.656911 0
M  V30 19 C -4.352227 -2.186495 1.955968 0
M  V30 20 C -3.743452 -2.669165 0.819127 0
M  V30 21 C -2.516760 -2.166520 0.447868 0
M  V30 22 N -1.851480 -2.640175 -0.724573 0
M  V30 23 C -0.971088 -3.741045 -0.617327 0
M  V30 24 O -0.950574 -4.116328 0.607978 0
M  V30 25 C -0.205171 -4.371836 -1.667528 0
M  V30 26 C 0.581203 -5.452835 -1.239141 0
M  V30 27 C 1.367111 -6.155752 -2.123831 0
M  V30 28 F 2.110670 -7.190995 -1.673110 0
M  V30 29 C 1.437162 -5.854575 -3.468175 0
M  V30 30 C 0.666113 -4.795776 -3.884299 0
M  V30 31 C -0.120896 -4.088432 -3.010328 0
M  V30 32 F -0.868517 -3.062723 -3.410334 0
M  V30 33 C -1.911570 -1.193645 1.207928 0
M  V30 34 H -0.535762 -1.185252 3.887022 0
M  V30 35 H -0.262656 0.473258 4.649191 0
M  V30 36 H -1.576136 -0.586819 5.186050 0
M  V30 37 H -2.832240 0.822817 3.807188 0
M  V30 38 H -1.823596 2.297576 2.404520 0
M  V30 39 H 2.681979 -0.644339 2.298509 0
M  V30 40 H 4.782486 1.205941 0.021066 0
M  V30 41 H 4.760347 1.213323 0.008242 0
M  V30 42 H 2.448324 5.380284 -0.437273 0
M  V30 43 H 0.080825 5.547518 0.219346 0
M  V30 44 H -0.964665 3.727045 1.392190 0
M  V30 45 H -4.208756 -0.865651 3.555628 0
M  V30 46 H -5.312556 -2.554440 2.279563 0
M  V30 47 H -4.183453 -3.427325 0.200372 0
M  V30 48 H -1.984445 -2.209742 -1.665405 0
M  V30 49 H 0.599768 -5.776908 -0.190683 0
M  V30 50 H 2.025322 -6.362840 -4.191875 0
M  V30 51 H 0.637578 -4.464664 -4.914922 0
M  V30 52 H -0.972500 -0.830115 0.880880 0
M  V30 END ATOM
M  V30 BEGIN BOND
M  V30 1 1 1 2
M  V30 2 1 2 3
M  V30 3 1 3 4
M  V30 4 2 4 5
M  V30 5 1 5 6
M  V30 6 2 6 7
M  V30 7 1 7 8
M  V30 8 2 8 9
M  V30 9 1 9 10
M  V30 10 1 10 11
M  V30 11 2 10 12
M  V30 12 1 9 13
M  V30 13 2 13 14
M  V30 14 1 14 15
M  V30 15 2 15 16
M  V30 16 1 2 17
M  V30 17 2 17 18
M  V30 18 1 18 19
M  V30 19 2 19 20
M  V30 20 1 20 21
M  V30 21 1 21 22
M  V30 22 1 22 23
M  V30 23 2 23 24
M  V30 24 1 23 25
M  V30 25 2 25 26
M  V30 26 1 26 27
M  V30 27 1 27 28
M  V30 28 2 27 29
M  V30 29 1 29 30
M  V30 30 2 30 31
M  V30 31 1 31 32
M  V30 32 2 21 33
M  V30 33 1 16 4
M  V30 34 1 33 17
M  V30 35 1 16 8
M  V30 36 1 31 25
M  V30 37 1 1 34
M  V30 38 1 1 35
M  V30 39 1 1 36
M  V30 40 1 2 37 CFG=1
M  V30 41 1 3 38
M  V30 42 1 6 39
M  V30 43 1 11 40
M  V30 44 1 11 41
M  V30 45 1 13 42
M  V30 46 1 14 43
M  V30 47 1 15 44
M  V30 48 1 18 45
M  V30 49 1 19 46
M  V30 50 1 20 47
M  V30 51 1 22 48
M  V30 52 1 26 49
M  V30 53 1 29 50
M  V30 54 1 30 51
M  V30 55 1 33 52
M  V30 END BOND
M  V30 END CTAB
M  END
>  <Dataset>  (578) 
ChEMBL_Kinases

>  <Ligand_Instance>  (578) 
nan

>  <PDB_ID>  (578) 
nan

>  <Standardized_SMILES>  (578) 
C[C@@H](Nc1ncnc2c(C(N)=O)cccc12)c1cccc(NC(=O)c2cc(F)ccc2F)c1

>  <Name>  (578) 
nan

>  <Pocket>  (578) 
nan

>  <ATP_Site>  (578) 
nan

>  <Peripheral>  (578) 
nan

>  <Num_H_Atoms_ProtBoundConf>  (578) 
nan

>  <Num_Resolved_Atoms>  (578) 
nan

>  <Num_Not_Resolved_Atoms>  (578) 
nan

$$$$
CHEMBL3675460
     RDKit          3D

  0  0  0  0  0  0  0  0  0  0999 V3000
M  V30 BEGIN CTAB
M  V30 COUNTS 52 55 0 0 0
M  V30 BEGIN ATOM
M  V30 1 C -0.577040 0.400860 4.663458 0
M  V30 2 C -1.460503 0.827232 3.511445 0 CFG=1
M  V30 3 N -0.721861 1.622550 2.578312 0
M  V30 4 C 0.581694 1.364948 2.102746 0
M  V30 5 N 1.361967 0.342261 2.486535 0
M  V30 6 C 2.608613 0.110921 2.054680 0
M  V30 7 N 3.206212 0.919979 1.162217 0
M  V30 8 C 2.490658 1.971795 0.725341 0
M  V30 9 C 3.107258 2.787831 -0.181872 0
M  V30 10 C 4.462518 2.526439 -0.643800 0
M  V30 11 N 5.261990 1.431449 -0.214904 0
M  V30 12 O 5.054836 3.250896 -1.470962 0
M  V30 13 C 2.468135 3.891313 -0.694718 0
M  V30 14 C 1.172856 4.134982 -0.248560 0
M  V30 15 C 0.600893 3.285543 0.661902 0
M  V30 16 C 1.209727 2.183354 1.188521 0
M  V30 17 C -2.121033 -0.347006 2.934329 0
M  V30 18 C -3.406197 -0.677064 3.374749 0
M  V30 19 C -4.202465 -1.723306 2.964072 0
M  V30 20 C -3.682664 -2.557972 1.999767 0
M  V30 21 C -2.421090 -2.313704 1.502581 0
M  V30 22 N -1.849565 -3.153944 0.505639 0
M  V30 23 C -1.936463 -3.026124 -0.900805 0
M  V30 24 O -2.568001 -2.097546 -1.466711 0
M  V30 25 C -1.283919 -3.985560 -1.784346 0
M  V30 26 C -1.397779 -3.817425 -3.149469 0
M  V30 27 C -0.780993 -4.724235 -4.020702 0
M  V30 28 C -0.049963 -5.799769 -3.560173 0
M  V30 29 C 0.586650 -6.735836 -4.438256 0
M  V30 30 N 1.106867 -7.515118 -5.143946 0
M  V30 31 N 0.041835 -5.935452 -2.204915 0
M  V30 32 C -0.546649 -5.070253 -1.361267 0
M  V30 33 C -1.703944 -1.240668 1.978459 0
M  V30 34 H -1.212293 0.023730 5.512938 0
M  V30 35 H 0.015154 1.276472 4.985435 0
M  V30 36 H 0.105411 -0.437113 4.368577 0
M  V30 37 H -2.281125 1.447883 4.000083 0
M  V30 38 H -1.246495 2.449393 2.257019 0
M  V30 39 H 3.118768 -0.762992 2.458599 0
M  V30 40 H 6.286885 1.483596 -0.053595 0
M  V30 41 H 5.250877 0.423056 0.052218 0
M  V30 42 H 2.959596 4.519052 -1.400900 0
M  V30 43 H 0.691551 5.009127 -0.666987 0
M  V30 44 H -0.391340 3.574602 0.926797 0
M  V30 45 H -3.878893 -0.047096 4.147227 0
M  V30 46 H -5.184350 -1.889930 3.369990 0
M  V30 47 H -4.215819 -3.391566 1.616796 0
M  V30 48 H -1.325156 -3.925091 0.974129 0
M  V30 49 H -1.940968 -3.018276 -3.626546 0
M  V30 50 H -0.833590 -4.646168 -5.094923 0
M  V30 51 H -0.437015 -5.232065 -0.312163 0
M  V30 52 H -0.729434 -1.084531 1.559650 0
M  V30 END ATOM
M  V30 BEGIN BOND
M  V30 1 1 1 2
M  V30 2 1 2 3
M  V30 3 1 3 4
M  V30 4 2 4 5
M  V30 5 1 5 6
M  V30 6 2 6 7
M  V30 7 1 7 8
M  V30 8 2 8 9
M  V30 9 1 9 10
M  V30 10 1 10 11
M  V30 11 2 10 12
M  V30 12 1 9 13
M  V30 13 2 13 14
M  V30 14 1 14 15
M  V30 15 2 15 16
M  V30 16 1 2 17
M  V30 17 2 17 18
M  V30 18 1 18 19
M  V30 19 2 19 20
M  V30 20 1 20 21
M  V30 21 1 21 22
M  V30 22 1 22 23
M  V30 23 2 23 24
M  V30 24 1 23 25
M  V30 25 2 25 26
M  V30 26 1 26 27
M  V30 27 2 27 28
M  V30 28 1 28 29
M  V30 29 3 29 30
M  V30 30 1 28 31
M  V30 31 2 31 32
M  V30 32 2 21 33
M  V30 33 1 16 4
M  V30 34 1 33 17
M  V30 35 1 16 8
M  V30 36 1 32 25
M  V30 37 1 1 34
M  V30 38 1 1 35
M  V30 39 1 1 36
M  V30 40 1 2 37 CFG=1
M  V30 41 1 3 38
M  V30 42 1 6 39
M  V30 43 1 11 40
M  V30 44 1 11 41
M  V30 45 1 13 42
M  V30 46 1 14 43
M  V30 47 1 15 44
M  V30 48 1 18 45
M  V30 49 1 19 46
M  V30 50 1 20 47
M  V30 51 1 22 48
M  V30 52 1 26 49
M  V30 53 1 27 50
M  V30 54 1 32 51
M  V30 55 1 33 52
M  V30 END BOND
M  V30 END CTAB
M  END
>  <Dataset>  (579) 
ChEMBL_Kinases

>  <Ligand_Instance>  (579) 
nan

>  <PDB_ID>  (579) 
nan

>  <Standardized_SMILES>  (579) 
C[C@@H](Nc1ncnc2c(C(N)=O)cccc12)c1cccc(NC(=O)c2ccc(C#N)nc2)c1

>  <Name>  (579) 
nan

>  <Pocket>  (579) 
nan

>  <ATP_Site>  (579) 
nan

>  <Peripheral>  (579) 
nan

>  <Num_H_Atoms_ProtBoundConf>  (579) 
nan

>  <Num_Resolved_Atoms>  (579) 
nan

>  <Num_Not_Resolved_Atoms>  (579) 
nan

$$$$
CHEMBL3675461
     RDKit          3D

  0  0  0  0  0  0  0  0  0  0999 V3000
M  V30 BEGIN CTAB
M  V30 COUNTS 55 58 0 0 0
M  V30 BEGIN ATOM
M  V30 1 C 5.824338 -2.695142 5.994380 0
M  V30 2 O 5.538862 -1.312210 6.117078 0
M  V30 3 C 4.769334 -0.664810 5.166501 0
M  V30 4 N 4.289325 -1.358269 4.117207 0
M  V30 5 C 3.530945 -0.803113 3.145918 0
M  V30 6 C 3.231482 0.542197 3.230672 0
M  V30 7 C 2.435521 1.341152 2.300550 0
M  V30 8 O 2.167268 2.578456 2.392801 0
M  V30 9 N 1.879957 0.709210 1.152788 0
M  V30 10 C 1.079885 1.254738 0.109833 0
M  V30 11 C 1.777506 1.756715 -0.978627 0
M  V30 12 C 1.126287 2.318476 -2.068080 0
M  V30 13 C -0.245264 2.355464 -2.020494 0
M  V30 14 C -0.979521 1.867849 -0.958044 0
M  V30 15 C -2.444165 1.864233 -0.819546 0 CFG=1
M  V30 16 C -3.020588 2.259275 -2.174277 0
M  V30 17 N -2.983691 0.612388 -0.339439 0
M  V30 18 C -2.751775 -0.563342 -1.110164 0
M  V30 19 N -2.047357 -0.498059 -2.253245 0
M  V30 20 C -1.795547 -1.568824 -3.021944 0
M  V30 21 N -2.241790 -2.815676 -2.694599 0
M  V30 22 C -2.942331 -2.937898 -1.576592 0
M  V30 23 C -3.417390 -4.182530 -1.201288 0
M  V30 24 C -3.156244 -5.361096 -2.020363 0
M  V30 25 N -2.402827 -5.244093 -3.222528 0
M  V30 26 O -3.564246 -6.502171 -1.725072 0
M  V30 27 C -4.147763 -4.318596 -0.039032 0
M  V30 28 C -4.419354 -3.212461 0.773973 0
M  V30 29 C -3.926452 -1.990795 0.361610 0
M  V30 30 C -3.194891 -1.830818 -0.794708 0
M  V30 31 C -0.313648 1.316250 0.109339 0
M  V30 32 C 3.712726 1.274816 4.298201 0
M  V30 33 C 4.493017 0.689016 5.291498 0
M  V30 34 Cl 5.116543 1.614643 6.664654 0
M  V30 35 H 6.914656 -2.770854 5.724681 0
M  V30 36 H 5.271404 -3.121634 5.126641 0
M  V30 37 H 5.627204 -3.238058 6.930361 0
M  V30 38 H 3.123236 -1.297418 2.294143 0
M  V30 39 H 1.996846 -0.300149 0.915615 0
M  V30 40 H 2.875667 1.726307 -1.015115 0
M  V30 41 H 1.679126 2.704431 -2.906445 0
M  V30 42 H -0.823879 2.777963 -2.832117 0
M  V30 43 H -2.706562 2.694415 -0.138378 0
M  V30 44 H -2.556163 1.703496 -3.014834 0
M  V30 45 H -4.132201 2.158119 -2.175489 0
M  V30 46 H -2.724588 3.319170 -2.316748 0
M  V30 47 H -3.516473 0.646962 0.553328 0
M  V30 48 H -1.213203 -1.400163 -3.929254 0
M  V30 49 H -1.394600 -4.995168 -3.452253 0
M  V30 50 H -2.594252 -5.363904 -4.257255 0
M  V30 51 H -4.523850 -5.307626 0.256936 0
M  V30 52 H -4.987708 -3.408410 1.648773 0
M  V30 53 H -4.156881 -1.183778 1.008067 0
M  V30 54 H -0.728742 0.889988 1.017632 0
M  V30 55 H 3.537892 2.330398 4.459992 0
M  V30 END ATOM
M  V30 BEGIN BOND
M  V30 1 1 1 2
M  V30 2 1 2 3
M  V30 3 2 3 4
M  V30 4 1 4 5
M  V30 5 2 5 6
M  V30 6 1 6 7
M  V30 7 2 7 8
M  V30 8 1 7 9
M  V30 9 1 9 10
M  V30 10 2 10 11
M  V30 11 1 11 12
M  V30 12 2 12 13
M  V30 13 1 13 14
M  V30 14 1 14 15
M  V30 15 1 15 16
M  V30 16 1 15 17
M  V30 17 1 17 18
M  V30 18 2 18 19
M  V30 19 1 19 20
M  V30 20 2 20 21
M  V30 21 1 21 22
M  V30 22 2 22 23
M  V30 23 1 23 24
M  V30 24 1 24 25
M  V30 25 2 24 26
M  V30 26 1 23 27
M  V30 27 2 27 28
M  V30 28 1 28 29
M  V30 29 2 29 30
M  V30 30 2 14 31
M  V30 31 1 6 32
M  V30 32 2 32 33
M  V30 33 1 33 34
M  V30 34 1 33 3
M  V30 35 1 31 10
M  V30 36 1 30 18
M  V30 37 1 30 22
M  V30 38 1 1 35
M  V30 39 1 1 36
M  V30 40 1 1 37
M  V30 41 1 5 38
M  V30 42 1 9 39
M  V30 43 1 11 40
M  V30 44 1 12 41
M  V30 45 1 13 42
M  V30 46 1 15 43 CFG=1
M  V30 47 1 16 44
M  V30 48 1 16 45
M  V30 49 1 16 46
M  V30 50 1 17 47
M  V30 51 1 20 48
M  V30 52 1 25 49
M  V30 53 1 25 50
M  V30 54 1 27 51
M  V30 55 1 28 52
M  V30 56 1 29 53
M  V30 57 1 31 54
M  V30 58 1 32 55
M  V30 END BOND
M  V30 END CTAB
M  END
>  <Dataset>  (580) 
ChEMBL_Kinases

>  <Ligand_Instance>  (580) 
nan

>  <PDB_ID>  (580) 
nan

>  <Standardized_SMILES>  (580) 
COc1ncc(C(=O)Nc2cccc([C@@H](C)Nc3ncnc4c(C(N)=O)cccc34)c2)cc1Cl

>  <Name>  (580) 
nan

>  <Pocket>  (580) 
nan

>  <ATP_Site>  (580) 
nan

>  <Peripheral>  (580) 
nan

>  <Num_H_Atoms_ProtBoundConf>  (580) 
nan

>  <Num_Resolved_Atoms>  (580) 
nan

>  <Num_Not_Resolved_Atoms>  (580) 
nan

$$$$
CHEMBL3675464
     RDKit          3D

  0  0  0  0  0  0  0  0  0  0999 V3000
M  V30 BEGIN CTAB
M  V30 COUNTS 55 59 0 0 0
M  V30 BEGIN ATOM
M  V30 1 C 1.261422 -0.909345 4.775364 0
M  V30 2 C 0.012664 -0.199424 4.308964 0 CFG=1
M  V30 3 N 0.366175 0.996957 3.585443 0
M  V30 4 C 1.384079 0.958415 2.560010 0
M  V30 5 N 2.065906 -0.135333 2.249342 0
M  V30 6 C 3.023303 -0.192630 1.323404 0
M  V30 7 N 3.364057 0.925736 0.616575 0
M  V30 8 C 2.720604 2.089764 0.865827 0
M  V30 9 C 3.065892 3.209324 0.153261 0
M  V30 10 C 4.116762 3.170823 -0.870572 0
M  V30 11 N 4.836033 1.993373 -1.187138 0
M  V30 12 O 4.439272 4.171559 -1.522797 0
M  V30 13 C 2.431246 4.406480 0.381937 0
M  V30 14 C 1.443548 4.425101 1.350487 0
M  V30 15 C 1.134398 3.278331 2.036508 0
M  V30 16 C 1.745914 2.070834 1.834102 0
M  V30 17 C -0.964658 -1.074644 3.668112 0
M  V30 18 C -1.927930 -1.671198 4.479784 0
M  V30 19 C -2.926979 -2.507033 4.086203 0
M  V30 20 C -3.019825 -2.813940 2.745261 0
M  V30 21 C -2.105533 -2.265607 1.872055 0
M  V30 22 N -2.170132 -2.557509 0.484443 0
M  V30 23 C -1.603697 -3.557442 -0.334313 0
M  V30 24 O -0.867312 -4.441458 0.117572 0
M  V30 25 C -1.897478 -3.547306 -1.762359 0
M  V30 26 C -1.316323 -4.545178 -2.516400 0
M  V30 27 C -1.502038 -4.670552 -3.898739 0
M  V30 28 C -2.308190 -3.748402 -4.541217 0
M  V30 29 C -2.891226 -2.749979 -3.794572 0
M  V30 30 C -2.693081 -2.643156 -2.418058 0
M  V30 31 O -3.649441 -1.956661 -4.669517 0
M  V30 32 C -3.189064 -2.204660 -6.005817 0
M  V30 33 O -2.721303 -3.547049 -5.861489 0
M  V30 34 C -1.131617 -1.433748 2.352127 0
M  V30 35 H 2.043816 -0.164682 4.987514 0
M  V30 36 H 1.562288 -1.655439 4.004905 0
M  V30 37 H 1.024477 -1.442768 5.722042 0
M  V30 38 H -0.458586 0.187166 5.288512 0
M  V30 39 H -0.122514 1.867282 3.815955 0
M  V30 40 H 3.494872 -1.168809 1.181446 0
M  V30 41 H 4.822376 0.967024 -1.302894 0
M  V30 42 H 4.782216 0.953685 -1.294352 0
M  V30 43 H 2.722048 5.267323 -0.190819 0
M  V30 44 H 0.960238 5.389798 1.506963 0
M  V30 45 H 0.352313 3.428690 2.757904 0
M  V30 46 H -1.913718 -1.471246 5.555462 0
M  V30 47 H -3.642089 -2.934798 4.774426 0
M  V30 48 H -3.765918 -3.463025 2.311182 0
M  V30 49 H -2.797279 -1.785453 0.169481 0
M  V30 50 H -0.669594 -5.311907 -2.099664 0
M  V30 51 H -1.038532 -5.457136 -4.466510 0
M  V30 52 H -3.147128 -1.864145 -1.830749 0
M  V30 53 H -3.997900 -2.109375 -6.744951 0
M  V30 54 H -2.356340 -1.481353 -6.146273 0
M  V30 55 H -0.435414 -1.016208 1.643876 0
M  V30 END ATOM
M  V30 BEGIN BOND
M  V30 1 1 1 2
M  V30 2 1 2 3
M  V30 3 1 3 4
M  V30 4 2 4 5
M  V30 5 1 5 6
M  V30 6 2 6 7
M  V30 7 1 7 8
M  V30 8 2 8 9
M  V30 9 1 9 10
M  V30 10 1 10 11
M  V30 11 2 10 12
M  V30 12 1 9 13
M  V30 13 2 13 14
M  V30 14 1 14 15
M  V30 15 2 15 16
M  V30 16 1 2 17
M  V30 17 2 17 18
M  V30 18 1 18 19
M  V30 19 2 19 20
M  V30 20 1 20 21
M  V30 21 1 21 22
M  V30 22 1 22 23
M  V30 23 2 23 24
M  V30 24 1 23 25
M  V30 25 2 25 26
M  V30 26 1 26 27
M  V30 27 2 27 28
M  V30 28 1 28 29
M  V30 29 2 29 30
M  V30 30 1 29 31
M  V30 31 1 31 32
M  V30 32 1 32 33
M  V30 33 2 21 34
M  V30 34 1 16 4
M  V30 35 1 34 17
M  V30 36 1 16 8
M  V30 37 1 30 25
M  V30 38 1 33 28
M  V30 39 1 1 35
M  V30 40 1 1 36
M  V30 41 1 1 37
M  V30 42 1 2 38 CFG=1
M  V30 43 1 3 39
M  V30 44 1 6 40
M  V30 45 1 11 41
M  V30 46 1 11 42
M  V30 47 1 13 43
M  V30 48 1 14 44
M  V30 49 1 15 45
M  V30 50 1 18 46
M  V30 51 1 19 47
M  V30 52 1 20 48
M  V30 53 1 22 49
M  V30 54 1 26 50
M  V30 55 1 27 51
M  V30 56 1 30 52
M  V30 57 1 32 53
M  V30 58 1 32 54
M  V30 59 1 34 55
M  V30 END BOND
M  V30 END CTAB
M  END
>  <Dataset>  (581) 
ChEMBL_Kinases

>  <Ligand_Instance>  (581) 
nan

>  <PDB_ID>  (581) 
nan

>  <Standardized_SMILES>  (581) 
C[C@@H](Nc1ncnc2c(C(N)=O)cccc12)c1cccc(NC(=O)c2ccc3c(c2)OCO3)c1

>  <Name>  (581) 
nan

>  <Pocket>  (581) 
nan

>  <ATP_Site>  (581) 
nan

>  <Peripheral>  (581) 
nan

>  <Num_H_Atoms_ProtBoundConf>  (581) 
nan

>  <Num_Resolved_Atoms>  (581) 
nan

>  <Num_Not_Resolved_Atoms>  (581) 
nan

$$$$
CHEMBL3675472
     RDKit          3D

  0  0  0  0  0  0  0  0  0  0999 V3000
M  V30 BEGIN CTAB
M  V30 COUNTS 59 62 0 0 0
M  V30 BEGIN ATOM
M  V30 1 C 3.696116 -4.340146 3.951983 0
M  V30 2 O 2.890839 -3.710983 4.941752 0
M  V30 3 C 2.287364 -2.503871 4.697561 0
M  V30 4 C 2.380584 -1.775482 3.507380 0
M  V30 5 C 1.707821 -0.573281 3.428007 0
M  V30 6 C 1.824152 0.163553 2.172285 0
M  V30 7 O 2.512532 -0.343303 1.249694 0
M  V30 8 N 1.207448 1.421048 1.924859 0
M  V30 9 C 1.437542 1.983501 0.636461 0
M  V30 10 C 2.518350 2.806820 0.427492 0
M  V30 11 C 2.697916 3.326840 -0.835067 0
M  V30 12 C 1.807538 3.015898 -1.839556 0
M  V30 13 C 0.687672 2.180866 -1.680837 0
M  V30 14 C -0.163529 1.941918 -2.863626 0 CFG=1
M  V30 15 C 0.521762 2.491505 -4.094824 0
M  V30 16 N -0.641769 0.594357 -3.020861 0
M  V30 17 C -1.699560 -0.080024 -2.362245 0
M  V30 18 N -2.508321 0.447276 -1.463964 0
M  V30 19 C -3.524260 -0.182499 -0.861532 0
M  V30 20 N -3.800610 -1.465560 -1.150241 0
M  V30 21 C -3.015436 -2.069480 -2.059639 0
M  V30 22 C -3.305638 -3.377259 -2.346218 0
M  V30 23 C -4.423335 -4.055158 -1.678423 0
M  V30 24 N -5.206887 -3.372941 -0.739015 0
M  V30 25 O -4.707367 -5.254371 -1.926682 0
M  V30 26 C -2.569034 -4.099785 -3.262216 0
M  V30 27 C -1.534291 -3.461469 -3.876744 0
M  V30 28 C -1.266719 -2.144733 -3.567495 0
M  V30 29 C -1.978541 -1.392173 -2.660410 0
M  V30 30 C 0.589212 1.715348 -0.411031 0
M  V30 31 C 0.963627 -0.101096 4.491212 0
M  V30 32 N 0.894219 -0.826207 5.622574 0
M  V30 33 C 1.539921 -2.019283 5.751408 0
M  V30 34 O 1.396257 -2.687139 6.975307 0
M  V30 35 C 0.617930 -2.153505 8.033299 0
M  V30 36 H 3.074857 -4.901318 3.225339 0
M  V30 37 H 4.295961 -3.610856 3.373277 0
M  V30 38 H 4.391365 -5.090820 4.410023 0
M  V30 39 H 2.975652 -2.202106 2.722454 0
M  V30 40 H 0.639775 1.853727 2.666622 0
M  V30 41 H 3.182137 3.018190 1.240500 0
M  V30 42 H 3.561929 3.965130 -0.939513 0
M  V30 43 H 2.094213 3.506783 -2.763486 0
M  V30 44 H -1.087153 2.593248 -2.672248 0
M  V30 45 H -0.080909 2.237230 -4.994167 0
M  V30 46 H 1.545226 2.125761 -4.135291 0
M  V30 47 H 0.515314 3.594246 -4.029413 0
M  V30 48 H -0.052178 0.141096 -3.744387 0
M  V30 49 H -4.041929 0.479060 -0.154752 0
M  V30 50 H -5.236485 -3.044657 0.269193 0
M  V30 51 H -6.111490 -2.871848 -0.575924 0
M  V30 52 H -2.834185 -5.124602 -3.454951 0
M  V30 53 H -0.952725 -4.027020 -4.597714 0
M  V30 54 H -0.434213 -1.722854 -4.098683 0
M  V30 55 H -0.225402 1.067854 -0.184956 0
M  V30 56 H 0.438264 0.841501 4.424852 0
M  V30 57 H 0.084539 -1.219448 7.705981 0
M  V30 58 H -0.154194 -2.886099 8.303667 0
M  V30 59 H 1.246994 -1.836317 8.902479 0
M  V30 END ATOM
M  V30 BEGIN BOND
M  V30 1 1 1 2
M  V30 2 1 2 3
M  V30 3 2 3 4
M  V30 4 1 4 5
M  V30 5 1 5 6
M  V30 6 2 6 7
M  V30 7 1 6 8
M  V30 8 1 8 9
M  V30 9 2 9 10
M  V30 10 1 10 11
M  V30 11 2 11 12
M  V30 12 1 12 13
M  V30 13 1 13 14
M  V30 14 1 14 15
M  V30 15 1 14 16
M  V30 16 1 16 17
M  V30 17 2 17 18
M  V30 18 1 18 19
M  V30 19 2 19 20
M  V30 20 1 20 21
M  V30 21 2 21 22
M  V30 22 1 22 23
M  V30 23 1 23 24
M  V30 24 2 23 25
M  V30 25 1 22 26
M  V30 26 2 26 27
M  V30 27 1 27 28
M  V30 28 2 28 29
M  V30 29 2 13 30
M  V30 30 2 5 31
M  V30 31 1 31 32
M  V30 32 2 32 33
M  V30 33 1 33 34
M  V30 34 1 34 35
M  V30 35 1 33 3
M  V30 36 1 30 9
M  V30 37 1 29 17
M  V30 38 1 29 21
M  V30 39 1 1 36
M  V30 40 1 1 37
M  V30 41 1 1 38
M  V30 42 1 4 39
M  V30 43 1 8 40
M  V30 44 1 10 41
M  V30 45 1 11 42
M  V30 46 1 12 43
M  V30 47 1 14 44 CFG=1
M  V30 48 1 15 45
M  V30 49 1 15 46
M  V30 50 1 15 47
M  V30 51 1 16 48
M  V30 52 1 19 49
M  V30 53 1 24 50
M  V30 54 1 24 51
M  V30 55 1 26 52
M  V30 56 1 27 53
M  V30 57 1 28 54
M  V30 58 1 30 55
M  V30 59 1 31 56
M  V30 60 1 35 57
M  V30 61 1 35 58
M  V30 62 1 35 59
M  V30 END BOND
M  V30 END CTAB
M  END
>  <Dataset>  (582) 
ChEMBL_Kinases

>  <Ligand_Instance>  (582) 
nan

>  <PDB_ID>  (582) 
nan

>  <Standardized_SMILES>  (582) 
COc1cc(C(=O)Nc2cccc([C@@H](C)Nc3ncnc4c(C(N)=O)cccc34)c2)cnc1OC

>  <Name>  (582) 
nan

>  <Pocket>  (582) 
nan

>  <ATP_Site>  (582) 
nan

>  <Peripheral>  (582) 
nan

>  <Num_H_Atoms_ProtBoundConf>  (582) 
nan

>  <Num_Resolved_Atoms>  (582) 
nan

>  <Num_Not_Resolved_Atoms>  (582) 
nan

$$$$
CHEMBL3675476
     RDKit          3D

  0  0  0  0  0  0  0  0  0  0999 V3000
M  V30 BEGIN CTAB
M  V30 COUNTS 52 55 0 0 0
M  V30 BEGIN ATOM
M  V30 1 C 0.535542 -1.859005 3.389422 0
M  V30 2 C 0.086427 -0.432355 3.655803 0 CFG=1
M  V30 3 N 1.202190 0.466570 3.413496 0
M  V30 4 C 1.808804 0.561594 2.141844 0
M  V30 5 N 1.306295 -0.223029 1.141347 0
M  V30 6 C 1.898906 -0.114145 -0.059615 0
M  V30 7 N 2.930836 0.688531 -0.362895 0
M  V30 8 C 3.449256 1.476669 0.606750 0
M  V30 9 C 4.504424 2.314463 0.340402 0
M  V30 10 C 5.111226 2.402160 -0.957099 0
M  V30 11 N 4.897777 1.779394 -2.202990 0
M  V30 12 O 6.082793 3.168836 -1.231579 0
M  V30 13 C 5.047009 3.133507 1.332206 0
M  V30 14 C 4.437104 3.025700 2.580644 0
M  V30 15 C 3.392523 2.192718 2.834102 0
M  V30 16 C 2.866086 1.390167 1.848812 0
M  V30 17 C -1.045267 -0.160169 2.729661 0
M  V30 18 C -1.487363 1.115992 2.436411 0
M  V30 19 C -2.542954 1.405851 1.580800 0
M  V30 20 C -3.201025 0.324809 0.976507 0
M  V30 21 C -2.819957 -1.002178 1.216582 0
M  V30 22 N -3.477865 -2.109232 0.612493 0
M  V30 23 C -2.993516 -2.572115 -0.632995 0
M  V30 24 O -2.005447 -1.858917 -0.981858 0
M  V30 25 C -3.495433 -3.675698 -1.435883 0
M  V30 26 C -4.539385 -4.536295 -1.209342 0
M  V30 27 F -5.205576 -4.326001 -0.058586 0
M  V30 28 C -4.952946 -5.561753 -2.024043 0
M  V30 29 C -4.233225 -5.749156 -3.211678 0
M  V30 30 C -3.175411 -4.909055 -3.483433 0
M  V30 31 C -2.802340 -3.897635 -2.634270 0
M  V30 32 F -1.734783 -3.110117 -2.988759 0
M  V30 33 C -1.761621 -1.140887 2.082820 0
M  V30 34 H 0.545628 -2.123522 2.318118 0
M  V30 35 H 1.480727 -2.098925 3.915331 0
M  V30 36 H -0.226011 -2.554260 3.849557 0
M  V30 37 H -0.297231 -0.417698 4.676038 0
M  V30 38 H 1.472527 0.998193 4.263115 0
M  V30 39 H 1.585689 -0.690312 -0.941301 0
M  V30 40 H 5.227105 0.927919 -2.685747 0
M  V30 41 H 4.347948 1.937089 -3.074019 0
M  V30 42 H 5.875135 3.788791 1.118293 0
M  V30 43 H 4.851463 3.659875 3.362772 0
M  V30 44 H 3.008701 2.195106 3.823518 0
M  V30 45 H -0.946876 1.941162 2.927696 0
M  V30 46 H -2.862257 2.412933 1.373033 0
M  V30 47 H -4.037032 0.473822 0.293493 0
M  V30 48 H -4.296923 -2.602297 1.031135 0
M  V30 49 H -5.796723 -6.160596 -1.712181 0
M  V30 50 H -4.554343 -6.555759 -3.857551 0
M  V30 51 H -2.611659 -5.043854 -4.396924 0
M  V30 52 H -1.484610 -2.193428 2.254236 0
M  V30 END ATOM
M  V30 BEGIN BOND
M  V30 1 1 1 2
M  V30 2 1 2 3
M  V30 3 1 3 4
M  V30 4 2 4 5
M  V30 5 1 5 6
M  V30 6 2 6 7
M  V30 7 1 7 8
M  V30 8 2 8 9
M  V30 9 1 9 10
M  V30 10 1 10 11
M  V30 11 2 10 12
M  V30 12 1 9 13
M  V30 13 2 13 14
M  V30 14 1 14 15
M  V30 15 2 15 16
M  V30 16 1 2 17
M  V30 17 2 17 18
M  V30 18 1 18 19
M  V30 19 2 19 20
M  V30 20 1 20 21
M  V30 21 1 21 22
M  V30 22 1 22 23
M  V30 23 2 23 24
M  V30 24 1 23 25
M  V30 25 2 25 26
M  V30 26 1 26 27
M  V30 27 1 26 28
M  V30 28 2 28 29
M  V30 29 1 29 30
M  V30 30 2 30 31
M  V30 31 1 31 32
M  V30 32 2 21 33
M  V30 33 1 16 4
M  V30 34 1 33 17
M  V30 35 1 16 8
M  V30 36 1 31 25
M  V30 37 1 1 34
M  V30 38 1 1 35
M  V30 39 1 1 36
M  V30 40 1 2 37 CFG=1
M  V30 41 1 3 38
M  V30 42 1 6 39
M  V30 43 1 11 40
M  V30 44 1 11 41
M  V30 45 1 13 42
M  V30 46 1 14 43
M  V30 47 1 15 44
M  V30 48 1 18 45
M  V30 49 1 19 46
M  V30 50 1 20 47
M  V30 51 1 22 48
M  V30 52 1 28 49
M  V30 53 1 29 50
M  V30 54 1 30 51
M  V30 55 1 33 52
M  V30 END BOND
M  V30 END CTAB
M  END
>  <Dataset>  (583) 
ChEMBL_Kinases

>  <Ligand_Instance>  (583) 
nan

>  <PDB_ID>  (583) 
nan

>  <Standardized_SMILES>  (583) 
C[C@@H](Nc1ncnc2c(C(N)=O)cccc12)c1cccc(NC(=O)c2c(F)cccc2F)c1

>  <Name>  (583) 
nan

>  <Pocket>  (583) 
nan

>  <ATP_Site>  (583) 
nan

>  <Peripheral>  (583) 
nan

>  <Num_H_Atoms_ProtBoundConf>  (583) 
nan

>  <Num_Resolved_Atoms>  (583) 
nan

>  <Num_Not_Resolved_Atoms>  (583) 
nan

$$$$
CHEMBL3675477
     RDKit          3D

  0  0  0  0  0  0  0  0  0  0999 V3000
M  V30 BEGIN CTAB
M  V30 COUNTS 56 59 0 0 0
M  V30 BEGIN ATOM
M  V30 1 C 6.365373 -4.609694 3.338200 0
M  V30 2 O 6.008006 -4.102643 2.051604 0
M  V30 3 C 5.146941 -3.036531 1.898082 0
M  V30 4 C 4.557196 -2.367306 2.948284 0
M  V30 5 C 3.709754 -1.312577 2.692261 0
M  V30 6 F 3.128382 -0.651697 3.710302 0
M  V30 7 C 3.386542 -0.848981 1.434613 0
M  V30 8 C 2.522094 0.233401 1.041978 0
M  V30 9 O 2.321042 0.546599 -0.184107 0
M  V30 10 N 1.776084 1.104894 1.858213 0
M  V30 11 C 0.978578 2.116537 1.253272 0
M  V30 12 C 1.487106 3.365517 0.990128 0
M  V30 13 C 0.651672 4.288423 0.403563 0
M  V30 14 C -0.644396 3.929397 0.107037 0
M  V30 15 C -1.221650 2.671532 0.351084 0
M  V30 16 C -2.629237 2.514595 -0.058658 0 CFG=1
M  V30 17 C -3.053506 3.674650 -0.934873 0
M  V30 18 N -2.875717 1.224498 -0.664961 0
M  V30 19 C -3.077638 -0.043225 -0.099074 0
M  V30 20 N -3.121807 -0.281115 1.219946 0
M  V30 21 C -3.341016 -1.473891 1.765067 0
M  V30 22 N -3.538271 -2.549894 1.007717 0
M  V30 23 C -3.507055 -2.382761 -0.340917 0
M  V30 24 C -3.712915 -3.506758 -1.105699 0
M  V30 25 C -3.951754 -4.804319 -0.452551 0
M  V30 26 N -4.165625 -5.973961 -1.231452 0
M  V30 27 O -3.966628 -4.878522 0.804088 0
M  V30 28 C -3.701685 -3.450186 -2.484133 0
M  V30 29 C -3.472689 -2.204848 -3.062373 0
M  V30 30 C -3.272891 -1.113507 -2.250923 0
M  V30 31 C -3.278900 -1.141298 -0.892712 0
M  V30 32 C -0.324399 1.817118 0.933989 0
M  V30 33 C 3.998494 -1.545510 0.385568 0
M  V30 34 F 3.773466 -1.200731 -0.906363 0
M  V30 35 C 4.848945 -2.603166 0.624740 0
M  V30 36 H 7.071112 -3.925687 3.839930 0
M  V30 37 H 6.758154 -5.636747 3.260466 0
M  V30 38 H 5.429489 -4.629144 3.947055 0
M  V30 39 H 4.756270 -2.664783 3.948282 0
M  V30 40 H 1.834645 0.977332 2.886897 0
M  V30 41 H 2.500429 3.542064 1.257759 0
M  V30 42 H 1.086989 5.256071 0.213061 0
M  V30 43 H -1.179356 4.775112 -0.355061 0
M  V30 44 H -3.260222 2.557981 0.888036 0
M  V30 45 H -3.196917 4.556088 -0.312064 0
M  V30 46 H -4.008846 3.346587 -1.435167 0
M  V30 47 H -2.357788 3.886900 -1.748893 0
M  V30 48 H -2.883489 1.361441 -1.692976 0
M  V30 49 H -3.356781 -1.557019 2.827622 0
M  V30 50 H -3.349710 -6.628321 -1.370950 0
M  V30 51 H -3.188573 -6.375967 -1.166417 0
M  V30 52 H -3.870465 -4.371442 -3.023926 0
M  V30 53 H -3.469667 -2.192030 -4.141615 0
M  V30 54 H -3.107142 -0.215178 -2.790405 0
M  V30 55 H -0.686154 0.839731 1.146795 0
M  V30 56 H 5.299628 -3.112896 -0.206524 0
M  V30 END ATOM
M  V30 BEGIN BOND
M  V30 1 1 1 2
M  V30 2 1 2 3
M  V30 3 2 3 4
M  V30 4 1 4 5
M  V30 5 1 5 6
M  V30 6 2 5 7
M  V30 7 1 7 8
M  V30 8 2 8 9
M  V30 9 1 8 10
M  V30 10 1 10 11
M  V30 11 2 11 12
M  V30 12 1 12 13
M  V30 13 2 13 14
M  V30 14 1 14 15
M  V30 15 1 15 16
M  V30 16 1 16 17
M  V30 17 1 16 18
M  V30 18 1 18 19
M  V30 19 2 19 20
M  V30 20 1 20 21
M  V30 21 2 21 22
M  V30 22 1 22 23
M  V30 23 2 23 24
M  V30 24 1 24 25
M  V30 25 1 25 26
M  V30 26 2 25 27
M  V30 27 1 24 28
M  V30 28 2 28 29
M  V30 29 1 29 30
M  V30 30 2 30 31
M  V30 31 2 15 32
M  V30 32 1 7 33
M  V30 33 1 33 34
M  V30 34 2 33 35
M  V30 35 1 35 3
M  V30 36 1 32 11
M  V30 37 1 31 19
M  V30 38 1 31 23
M  V30 39 1 1 36
M  V30 40 1 1 37
M  V30 41 1 1 38
M  V30 42 1 4 39
M  V30 43 1 10 40
M  V30 44 1 12 41
M  V30 45 1 13 42
M  V30 46 1 14 43
M  V30 47 1 16 44 CFG=1
M  V30 48 1 17 45
M  V30 49 1 17 46
M  V30 50 1 17 47
M  V30 51 1 18 48
M  V30 52 1 21 49
M  V30 53 1 26 50
M  V30 54 1 26 51
M  V30 55 1 28 52
M  V30 56 1 29 53
M  V30 57 1 30 54
M  V30 58 1 32 55
M  V30 59 1 35 56
M  V30 END BOND
M  V30 END CTAB
M  END
>  <Dataset>  (584) 
ChEMBL_Kinases

>  <Ligand_Instance>  (584) 
nan

>  <PDB_ID>  (584) 
nan

>  <Standardized_SMILES>  (584) 
COc1cc(F)c(C(=O)Nc2cccc([C@@H](C)Nc3ncnc4c(C(N)=O)cccc34)c2)c(F)c1

>  <Name>  (584) 
nan

>  <Pocket>  (584) 
nan

>  <ATP_Site>  (584) 
nan

>  <Peripheral>  (584) 
nan

>  <Num_H_Atoms_ProtBoundConf>  (584) 
nan

>  <Num_Resolved_Atoms>  (584) 
nan

>  <Num_Not_Resolved_Atoms>  (584) 
nan

$$$$
CHEMBL3675494
     RDKit          3D

  0  0  0  0  0  0  0  0  0  0999 V3000
M  V30 BEGIN CTAB
M  V30 COUNTS 41 43 0 0 0
M  V30 BEGIN ATOM
M  V30 1 C -1.264296 -4.856858 1.472295 0
M  V30 2 C -0.190975 -3.884696 1.857333 0
M  V30 3 C -0.112575 -2.678019 0.948056 0
M  V30 4 N 0.945986 -1.781185 1.378725 0
M  V30 5 C 1.144395 -0.596306 0.619601 0
M  V30 6 N 0.387067 -0.313951 -0.451845 0
M  V30 7 C 0.547775 0.796785 -1.191561 0
M  V30 8 N 1.506618 1.716233 -0.889887 0
M  V30 9 C 2.318440 1.510142 0.178893 0
M  V30 10 C 3.298751 2.422194 0.510396 0
M  V30 11 C 3.467886 3.630521 -0.300513 0
M  V30 12 N 2.632713 3.863159 -1.417017 0
M  V30 13 O 4.358770 4.461636 -0.001060 0
M  V30 14 C 4.119114 2.203333 1.599091 0
M  V30 15 C 3.934661 1.053877 2.344474 0
M  V30 16 C 2.941376 0.172001 1.973708 0
M  V30 17 C 2.103354 0.353436 0.896400 0
M  V30 18 C -1.424605 -1.989460 0.873599 0
M  V30 19 C -1.807218 -1.159979 1.929258 0
M  V30 20 C -3.029481 -0.487213 1.911288 0
M  V30 21 C -3.880398 -0.649599 0.817134 0
M  V30 22 C -3.523753 -1.472185 -0.251622 0
M  V30 23 F -4.357997 -1.622201 -1.308495 0
M  V30 24 C -2.304197 -2.113184 -0.181816 0
M  V30 25 H -0.840626 -5.844380 1.152049 0
M  V30 26 H -1.838558 -4.484800 0.623740 0
M  V30 27 H -1.928492 -5.101916 2.335443 0
M  V30 28 H -0.265557 -3.587789 2.921499 0
M  V30 29 H 0.794234 -4.420512 1.779857 0
M  V30 30 H 0.152943 -3.066263 -0.061022 0
M  V30 31 H 1.488897 -2.068175 2.216667 0
M  V30 32 H -0.131181 0.900337 -2.028536 0
M  V30 33 H 1.671156 4.264271 -1.422309 0
M  V30 34 H 1.688693 4.281452 -1.186640 0
M  V30 35 H 4.880232 2.935088 1.836922 0
M  V30 36 H 4.595793 0.934071 3.175093 0
M  V30 37 H 2.873432 -0.690367 2.610931 0
M  V30 38 H -1.182069 -0.999433 2.803835 0
M  V30 39 H -3.347348 0.164315 2.723732 0
M  V30 40 H -4.834433 -0.142588 0.772033 0
M  V30 41 H -2.035692 -2.747843 -1.014646 0
M  V30 END ATOM
M  V30 BEGIN BOND
M  V30 1 1 1 2
M  V30 2 1 2 3
M  V30 3 1 3 4
M  V30 4 1 4 5
M  V30 5 2 5 6
M  V30 6 1 6 7
M  V30 7 2 7 8
M  V30 8 1 8 9
M  V30 9 2 9 10
M  V30 10 1 10 11
M  V30 11 1 11 12
M  V30 12 2 11 13
M  V30 13 1 10 14
M  V30 14 2 14 15
M  V30 15 1 15 16
M  V30 16 2 16 17
M  V30 17 1 3 18
M  V30 18 2 18 19
M  V30 19 1 19 20
M  V30 20 2 20 21
M  V30 21 1 21 22
M  V30 22 1 22 23
M  V30 23 2 22 24
M  V30 24 1 17 5
M  V30 25 1 24 18
M  V30 26 1 17 9
M  V30 27 1 1 25
M  V30 28 1 1 26
M  V30 29 1 1 27
M  V30 30 1 2 28
M  V30 31 1 2 29
M  V30 32 1 3 30
M  V30 33 1 4 31
M  V30 34 1 7 32
M  V30 35 1 12 33
M  V30 36 1 12 34
M  V30 37 1 14 35
M  V30 38 1 15 36
M  V30 39 1 16 37
M  V30 40 1 19 38
M  V30 41 1 20 39
M  V30 42 1 21 40
M  V30 43 1 24 41
M  V30 END BOND
M  V30 END CTAB
M  END
>  <Dataset>  (585) 
ChEMBL_Kinases

>  <Ligand_Instance>  (585) 
nan

>  <PDB_ID>  (585) 
nan

>  <Standardized_SMILES>  (585) 
CCC(Nc1ncnc2c(C(N)=O)cccc12)c1cccc(F)c1

>  <Name>  (585) 
nan

>  <Pocket>  (585) 
nan

>  <ATP_Site>  (585) 
nan

>  <Peripheral>  (585) 
nan

>  <Num_H_Atoms_ProtBoundConf>  (585) 
nan

>  <Num_Resolved_Atoms>  (585) 
nan

>  <Num_Not_Resolved_Atoms>  (585) 
nan

$$$$
CHEMBL3675495
     RDKit          3D

  0  0  0  0  0  0  0  0  0  0999 V3000
M  V30 BEGIN CTAB
M  V30 COUNTS 52 55 0 0 0
M  V30 BEGIN ATOM
M  V30 1 C -0.695221 0.179288 4.720760 0
M  V30 2 C -1.535511 0.508233 3.505324 0 CFG=1
M  V30 3 N -0.864004 1.375223 2.578652 0
M  V30 4 C 0.497945 1.230616 2.181366 0
M  V30 5 N 1.311181 0.297096 2.660736 0
M  V30 6 C 2.598454 0.176692 2.306228 0
M  V30 7 N 3.183833 1.019775 1.408560 0
M  V30 8 C 2.408136 1.992366 0.883903 0
M  V30 9 C 2.991604 2.846559 -0.022564 0
M  V30 10 C 4.387936 2.697722 -0.392880 0
M  V30 11 N 5.215675 1.672144 0.153866 0
M  V30 12 O 4.945855 3.462365 -1.214556 0
M  V30 13 C 2.263183 3.858599 -0.596695 0
M  V30 14 C 0.938630 3.978015 -0.228298 0
M  V30 15 C 0.395580 3.100664 0.683013 0
M  V30 16 C 1.093756 2.076799 1.277498 0
M  V30 17 C -2.050390 -0.735984 2.919593 0
M  V30 18 C -3.306224 -1.208836 3.341298 0
M  V30 19 C -3.980416 -2.336249 2.924792 0
M  V30 20 C -3.340165 -3.099105 1.971020 0
M  V30 21 C -2.104552 -2.725359 1.488661 0
M  V30 22 N -1.419854 -3.492087 0.504465 0
M  V30 23 C -1.646400 -3.187721 -0.850648 0
M  V30 24 O -2.476731 -2.219748 -0.912086 0
M  V30 25 C -1.064294 -3.829450 -2.025094 0
M  V30 26 C -1.488375 -3.282957 -3.242067 0
M  V30 27 C -1.025677 -3.781638 -4.439279 0
M  V30 28 C -0.134150 -4.828672 -4.516113 0
M  V30 29 C 0.274227 -5.355596 -3.326141 0
M  V30 30 F 1.149584 -6.389465 -3.258889 0
M  V30 31 C -0.173263 -4.874949 -2.126036 0
M  V30 32 F 0.216725 -5.379974 -0.951834 0
M  V30 33 C -1.520416 -1.579474 1.973746 0
M  V30 34 H 0.008629 -0.667606 4.526505 0
M  V30 35 H -0.149859 1.071541 5.105076 0
M  V30 36 H -1.335989 -0.151509 5.563733 0
M  V30 37 H -2.436636 1.042741 3.954015 0
M  V30 38 H -1.471095 2.134206 2.212409 0
M  V30 39 H 3.251576 -0.592653 2.707351 0
M  V30 40 H 5.661174 1.353097 1.040265 0
M  V30 41 H 5.466209 1.001429 -0.596699 0
M  V30 42 H 2.740204 4.518970 -1.306712 0
M  V30 43 H 0.394509 4.786255 -0.700108 0
M  V30 44 H -0.628500 3.292351 0.885675 0
M  V30 45 H -3.850462 -0.626215 4.104050 0
M  V30 46 H -4.932498 -2.604056 3.311180 0
M  V30 47 H -3.767600 -4.004403 1.566810 0
M  V30 48 H -0.758447 -4.268104 0.728725 0
M  V30 49 H -2.197012 -2.446598 -3.288643 0
M  V30 50 H -1.374954 -3.334711 -5.359834 0
M  V30 51 H 0.257327 -5.254676 -5.422601 0
M  V30 52 H -0.558898 -1.311495 1.572192 0
M  V30 END ATOM
M  V30 BEGIN BOND
M  V30 1 1 1 2
M  V30 2 1 2 3
M  V30 3 1 3 4
M  V30 4 2 4 5
M  V30 5 1 5 6
M  V30 6 2 6 7
M  V30 7 1 7 8
M  V30 8 2 8 9
M  V30 9 1 9 10
M  V30 10 1 10 11
M  V30 11 2 10 12
M  V30 12 1 9 13
M  V30 13 2 13 14
M  V30 14 1 14 15
M  V30 15 2 15 16
M  V30 16 1 2 17
M  V30 17 2 17 18
M  V30 18 1 18 19
M  V30 19 2 19 20
M  V30 20 1 20 21
M  V30 21 1 21 22
M  V30 22 1 22 23
M  V30 23 2 23 24
M  V30 24 1 23 25
M  V30 25 2 25 26
M  V30 26 1 26 27
M  V30 27 2 27 28
M  V30 28 1 28 29
M  V30 29 1 29 30
M  V30 30 2 29 31
M  V30 31 1 31 32
M  V30 32 2 21 33
M  V30 33 1 16 4
M  V30 34 1 33 17
M  V30 35 1 16 8
M  V30 36 1 31 25
M  V30 37 1 1 34
M  V30 38 1 1 35
M  V30 39 1 1 36
M  V30 40 1 2 37 CFG=1
M  V30 41 1 3 38
M  V30 42 1 6 39
M  V30 43 1 11 40
M  V30 44 1 11 41
M  V30 45 1 13 42
M  V30 46 1 14 43
M  V30 47 1 15 44
M  V30 48 1 18 45
M  V30 49 1 19 46
M  V30 50 1 20 47
M  V30 51 1 22 48
M  V30 52 1 26 49
M  V30 53 1 27 50
M  V30 54 1 28 51
M  V30 55 1 33 52
M  V30 END BOND
M  V30 END CTAB
M  END
>  <Dataset>  (586) 
ChEMBL_Kinases

>  <Ligand_Instance>  (586) 
nan

>  <PDB_ID>  (586) 
nan

>  <Standardized_SMILES>  (586) 
C[C@@H](Nc1ncnc2c(C(N)=O)cccc12)c1cccc(NC(=O)c2cccc(F)c2F)c1

>  <Name>  (586) 
nan

>  <Pocket>  (586) 
nan

>  <ATP_Site>  (586) 
nan

>  <Peripheral>  (586) 
nan

>  <Num_H_Atoms_ProtBoundConf>  (586) 
nan

>  <Num_Resolved_Atoms>  (586) 
nan

>  <Num_Not_Resolved_Atoms>  (586) 
nan

$$$$
CHEMBL3675452
     RDKit          3D

  0  0  0  0  0  0  0  0  0  0999 V3000
M  V30 BEGIN CTAB
M  V30 COUNTS 42 45 0 0 0
M  V30 BEGIN ATOM
M  V30 1 N 1.395974 -6.775508 -0.495920 0
M  V30 2 C 2.168864 -6.164928 0.526831 0
M  V30 3 O 2.481155 -7.336320 0.802864 0
M  V30 4 C 2.315381 -4.755399 0.845833 0
M  V30 5 C 3.129050 -4.423293 1.902714 0
M  V30 6 C 3.254275 -3.080312 2.188045 0
M  V30 7 C 2.570114 -2.155656 1.414423 0
M  V30 8 C 1.777011 -2.552745 0.377597 0
M  V30 9 C 1.102237 -1.622479 -0.384477 0
M  V30 10 N 1.185969 -0.220578 -0.147365 0
M  V30 11 C 0.468277 0.707361 -0.965948 0
M  V30 12 C 0.633680 2.142619 -0.644100 0
M  V30 13 C 0.237936 2.584661 0.680170 0
M  V30 14 C 1.029291 2.902599 1.767407 0
M  V30 15 N 0.318636 3.279616 2.848755 0
M  V30 16 C -0.970220 3.218175 2.494813 0
M  V30 17 C -2.090471 3.502697 3.235525 0
M  V30 18 C -3.333466 3.364583 2.648501 0
M  V30 19 C -3.458416 2.941587 1.320142 0
M  V30 20 C -2.298533 2.666208 0.613022 0
M  V30 21 C -1.038280 2.792684 1.165554 0
M  V30 22 N 0.331135 -2.053006 -1.398157 0
M  V30 23 C 0.179782 -3.350890 -1.713085 0
M  V30 24 N 0.829965 -4.299598 -0.983303 0
M  V30 25 C 1.608209 -3.895759 0.036741 0
M  V30 26 H 0.364228 -6.926838 -0.685685 0
M  V30 27 H 0.393570 -6.964830 -0.753559 0
M  V30 28 H 3.635423 -5.219050 2.466795 0
M  V30 29 H 3.883597 -2.772763 3.011088 0
M  V30 30 H 2.696622 -1.114488 1.674255 0
M  V30 31 H 1.734020 0.264669 0.592071 0
M  V30 32 H 0.763647 0.534905 -2.023651 0
M  V30 33 H -0.644192 0.506291 -0.964952 0
M  V30 34 H 0.128533 2.767162 -1.415586 0
M  V30 35 H 1.728181 2.392489 -0.773742 0
M  V30 36 H 2.129958 2.853368 1.750965 0
M  V30 37 H 0.756597 3.557079 3.764952 0
M  V30 38 H -2.004080 3.827172 4.252901 0
M  V30 39 H -4.251783 3.564014 3.153680 0
M  V30 40 H -4.416198 2.820660 0.819712 0
M  V30 41 H -2.397700 2.336117 -0.423241 0
M  V30 42 H -0.463090 -3.634824 -2.550873 0
M  V30 END ATOM
M  V30 BEGIN BOND
M  V30 1 1 1 2
M  V30 2 2 2 3
M  V30 3 1 2 4
M  V30 4 2 4 5
M  V30 5 1 5 6
M  V30 6 2 6 7
M  V30 7 1 7 8
M  V30 8 2 8 9
M  V30 9 1 9 10
M  V30 10 1 10 11
M  V30 11 1 11 12
M  V30 12 1 12 13
M  V30 13 2 13 14
M  V30 14 1 14 15
M  V30 15 1 15 16
M  V30 16 2 16 17
M  V30 17 1 17 18
M  V30 18 2 18 19
M  V30 19 1 19 20
M  V30 20 2 20 21
M  V30 21 1 9 22
M  V30 22 2 22 23
M  V30 23 1 23 24
M  V30 24 2 24 25
M  V30 25 1 25 4
M  V30 26 1 25 8
M  V30 27 1 21 13
M  V30 28 1 21 16
M  V30 29 1 1 26
M  V30 30 1 1 27
M  V30 31 1 5 28
M  V30 32 1 6 29
M  V30 33 1 7 30
M  V30 34 1 10 31
M  V30 35 1 11 32
M  V30 36 1 11 33
M  V30 37 1 12 34
M  V30 38 1 12 35
M  V30 39 1 14 36
M  V30 40 1 15 37
M  V30 41 1 17 38
M  V30 42 1 18 39
M  V30 43 1 19 40
M  V30 44 1 20 41
M  V30 45 1 23 42
M  V30 END BOND
M  V30 END CTAB
M  END
>  <Dataset>  (587) 
ChEMBL_Kinases

>  <Ligand_Instance>  (587) 
nan

>  <PDB_ID>  (587) 
nan

>  <Standardized_SMILES>  (587) 
NC(=O)c1cccc2c(NCCc3c[nH]c4ccccc34)ncnc12

>  <Name>  (587) 
nan

>  <Pocket>  (587) 
nan

>  <ATP_Site>  (587) 
nan

>  <Peripheral>  (587) 
nan

>  <Num_H_Atoms_ProtBoundConf>  (587) 
nan

>  <Num_Resolved_Atoms>  (587) 
nan

>  <Num_Not_Resolved_Atoms>  (587) 
nan

$$$$
CHEMBL3676125
     RDKit          3D

  0  0  0  0  0  0  0  0  0  0999 V3000
M  V30 BEGIN CTAB
M  V30 COUNTS 40 42 0 0 0
M  V30 BEGIN ATOM
M  V30 1 C -0.490365 -5.980847 3.684626 0
M  V30 2 N 0.745261 -5.400036 4.188721 0
M  V30 3 C 1.188242 -4.153631 3.664608 0
M  V30 4 N 0.493509 -3.513267 2.724743 0
M  V30 5 C 0.823098 -2.339277 2.167341 0
M  V30 6 N -0.039871 -1.802145 1.175271 0
M  V30 7 C 0.086086 -0.593164 0.445750 0
M  V30 8 C 1.122211 0.304042 0.589209 0
M  V30 9 C 1.282092 1.488131 -0.098857 0
M  V30 10 C 0.316493 1.820767 -1.026383 0
M  V30 11 C 0.371258 3.043451 -1.816894 0
M  V30 12 C 0.153205 3.255813 -3.161153 0
M  V30 13 N 0.313778 4.555638 -3.458522 0
M  V30 14 N 0.629561 5.196508 -2.350169 0
M  V30 15 N 0.658238 4.287444 -1.394473 0
M  V30 16 C 0.984671 4.691943 -0.020661 0
M  V30 17 C -0.741508 0.955780 -1.207623 0
M  V30 18 C -0.857419 -0.215386 -0.496383 0
M  V30 19 O -1.941008 -1.033704 -0.727906 0
M  V30 20 C -2.923220 -0.699840 -1.668308 0
M  V30 21 N 1.938787 -1.788009 2.604259 0
M  V30 22 C 2.702017 -2.355596 3.544517 0
M  V30 23 C 2.337575 -3.559088 4.096608 0
M  V30 24 Cl 3.339145 -4.294551 5.324153 0
M  V30 25 H -1.325689 -5.378449 4.106416 0
M  V30 26 H -0.497687 -5.843620 2.570435 0
M  V30 27 H -0.561366 -7.058014 3.864779 0
M  V30 28 H 1.323447 -5.863196 4.923581 0
M  V30 29 H -0.908776 -2.365707 0.926393 0
M  V30 30 H 1.914898 0.118107 1.291447 0
M  V30 31 H 2.094701 2.156907 0.037340 0
M  V30 32 H -0.112944 2.465742 -3.874390 0
M  V30 33 H 2.089280 4.765342 0.032574 0
M  V30 34 H 0.565766 5.685426 0.201454 0
M  V30 35 H 0.575177 3.946290 0.707743 0
M  V30 36 H -1.518650 1.194402 -1.934364 0
M  V30 37 H -3.772337 -1.387419 -1.655130 0
M  V30 38 H -3.295892 0.329054 -1.430924 0
M  V30 39 H -2.461904 -0.657904 -2.684749 0
M  V30 40 H 3.603618 -1.826381 3.840749 0
M  V30 END ATOM
M  V30 BEGIN BOND
M  V30 1 1 1 2
M  V30 2 1 2 3
M  V30 3 2 3 4
M  V30 4 1 4 5
M  V30 5 1 5 6
M  V30 6 1 6 7
M  V30 7 2 7 8
M  V30 8 1 8 9
M  V30 9 2 9 10
M  V30 10 1 10 11
M  V30 11 2 11 12
M  V30 12 1 12 13
M  V30 13 2 13 14
M  V30 14 1 14 15
M  V30 15 1 15 16
M  V30 16 1 10 17
M  V30 17 2 17 18
M  V30 18 1 18 19
M  V30 19 1 19 20
M  V30 20 2 5 21
M  V30 21 1 21 22
M  V30 22 2 22 23
M  V30 23 1 23 24
M  V30 24 1 23 3
M  V30 25 1 18 7
M  V30 26 1 15 11
M  V30 27 1 1 25
M  V30 28 1 1 26
M  V30 29 1 1 27
M  V30 30 1 2 28
M  V30 31 1 6 29
M  V30 32 1 8 30
M  V30 33 1 9 31
M  V30 34 1 12 32
M  V30 35 1 16 33
M  V30 36 1 16 34
M  V30 37 1 16 35
M  V30 38 1 17 36
M  V30 39 1 20 37
M  V30 40 1 20 38
M  V30 41 1 20 39
M  V30 42 1 22 40
M  V30 END BOND
M  V30 END CTAB
M  END
>  <Dataset>  (588) 
ChEMBL_Kinases

>  <Ligand_Instance>  (588) 
nan

>  <PDB_ID>  (588) 
nan

>  <Standardized_SMILES>  (588) 
CNc1nc(Nc2ccc(-c3cnnn3C)cc2OC)ncc1Cl

>  <Name>  (588) 
nan

>  <Pocket>  (588) 
nan

>  <ATP_Site>  (588) 
nan

>  <Peripheral>  (588) 
nan

>  <Num_H_Atoms_ProtBoundConf>  (588) 
nan

>  <Num_Resolved_Atoms>  (588) 
nan

>  <Num_Not_Resolved_Atoms>  (588) 
nan

$$$$
CHEMBL3676124
     RDKit          3D

  0  0  0  0  0  0  0  0  0  0999 V3000
M  V30 BEGIN CTAB
M  V30 COUNTS 42 44 0 0 0
M  V30 BEGIN ATOM
M  V30 1 C -1.747894 -5.081818 2.924780 0
M  V30 2 N -0.984217 -5.461132 1.753747 0
M  V30 3 C -0.539205 -4.536629 0.772477 0
M  V30 4 N -0.856741 -3.257633 0.973462 0
M  V30 5 C -0.510069 -2.252676 0.147756 0
M  V30 6 N -0.917411 -0.932374 0.464396 0
M  V30 7 C -0.157569 0.247826 0.482199 0
M  V30 8 C 1.188991 0.169288 0.222300 0
M  V30 9 C 1.995228 1.282924 0.242898 0
M  V30 10 F 3.284977 1.082437 -0.067428 0
M  V30 11 C 1.541979 2.546388 0.518900 0
M  V30 12 C 2.236294 3.808903 0.552440 0
M  V30 13 N 1.605396 4.974782 0.397436 0
M  V30 14 N 2.419740 6.006921 0.507129 0
M  V30 15 N 3.592418 5.496763 0.737900 0
M  V30 16 N 3.499999 4.167328 0.769475 0
M  V30 17 C 4.636620 3.330968 1.053716 0
M  V30 18 C 0.190890 2.565496 0.768483 0
M  V30 19 C -0.692150 1.514361 0.771002 0
M  V30 20 O -2.036770 1.461402 1.008802 0
M  V30 21 C -2.810034 2.587133 1.316009 0
M  V30 22 N 0.213233 -2.554587 -0.970433 0
M  V30 23 C 0.570139 -3.822961 -1.240169 0
M  V30 24 C 0.200302 -4.825421 -0.376718 0
M  V30 25 C 0.518882 -6.276729 -0.535092 0
M  V30 26 F -0.700499 -6.946775 -0.596631 0
M  V30 27 F 1.195943 -6.501177 -1.699430 0
M  V30 28 F 1.228854 -6.788212 0.513769 0
M  V30 29 H -1.416533 -5.714014 3.764922 0
M  V30 30 H -1.552978 -4.007154 3.124537 0
M  V30 31 H -2.803965 -5.306675 2.722295 0
M  V30 32 H -0.765311 -6.494079 1.657328 0
M  V30 33 H -1.940516 -0.880683 0.713278 0
M  V30 34 H 1.634506 -0.808920 -0.007590 0
M  V30 35 H 5.420974 3.924560 1.624015 0
M  V30 36 H 4.404477 2.493219 1.737309 0
M  V30 37 H 5.061580 2.933595 0.128660 0
M  V30 38 H -0.315431 3.509771 1.003413 0
M  V30 39 H -3.631078 2.715678 0.567916 0
M  V30 40 H -2.272721 3.547191 1.340440 0
M  V30 41 H -3.260939 2.431561 2.338082 0
M  V30 42 H 1.135502 -4.141392 -2.096069 0
M  V30 END ATOM
M  V30 BEGIN BOND
M  V30 1 1 1 2
M  V30 2 1 2 3
M  V30 3 2 3 4
M  V30 4 1 4 5
M  V30 5 1 5 6
M  V30 6 1 6 7
M  V30 7 2 7 8
M  V30 8 1 8 9
M  V30 9 1 9 10
M  V30 10 2 9 11
M  V30 11 1 11 12
M  V30 12 2 12 13
M  V30 13 1 13 14
M  V30 14 2 14 15
M  V30 15 1 15 16
M  V30 16 1 16 17
M  V30 17 1 11 18
M  V30 18 2 18 19
M  V30 19 1 19 20
M  V30 20 1 20 21
M  V30 21 2 5 22
M  V30 22 1 22 23
M  V30 23 2 23 24
M  V30 24 1 24 25
M  V30 25 1 25 26
M  V30 26 1 25 27
M  V30 27 1 25 28
M  V30 28 1 24 3
M  V30 29 1 19 7
M  V30 30 1 16 12
M  V30 31 1 1 29
M  V30 32 1 1 30
M  V30 33 1 1 31
M  V30 34 1 2 32
M  V30 35 1 6 33
M  V30 36 1 8 34
M  V30 37 1 17 35
M  V30 38 1 17 36
M  V30 39 1 17 37
M  V30 40 1 18 38
M  V30 41 1 21 39
M  V30 42 1 21 40
M  V30 43 1 21 41
M  V30 44 1 23 42
M  V30 END BOND
M  V30 END CTAB
M  END
>  <Dataset>  (589) 
ChEMBL_Kinases

>  <Ligand_Instance>  (589) 
nan

>  <PDB_ID>  (589) 
nan

>  <Standardized_SMILES>  (589) 
CNc1nc(Nc2cc(F)c(-c3nnnn3C)cc2OC)ncc1C(F)(F)F

>  <Name>  (589) 
nan

>  <Pocket>  (589) 
nan

>  <ATP_Site>  (589) 
nan

>  <Peripheral>  (589) 
nan

>  <Num_H_Atoms_ProtBoundConf>  (589) 
nan

>  <Num_Resolved_Atoms>  (589) 
nan

>  <Num_Not_Resolved_Atoms>  (589) 
nan

$$$$
CHEMBL3676123
     RDKit          3D

  0  0  0  0  0  0  0  0  0  0999 V3000
M  V30 BEGIN CTAB
M  V30 COUNTS 44 46 0 0 0
M  V30 BEGIN ATOM
M  V30 1 C -2.561029 -4.208779 1.696160 0
M  V30 2 N -1.961695 -4.495115 0.397169 0
M  V30 3 C -1.616050 -3.492990 -0.539028 0
M  V30 4 N -1.869920 -2.203021 -0.176063 0
M  V30 5 C -1.558557 -1.207192 -1.034313 0
M  V30 6 N -1.826329 0.151084 -0.651115 0
M  V30 7 C -0.834786 0.903341 0.039589 0
M  V30 8 C 0.379360 0.322280 0.337309 0
M  V30 9 C 1.378674 1.000236 1.004206 0
M  V30 10 O 2.608918 0.443415 1.316747 0
M  V30 11 C 2.851357 -0.896231 0.929501 0
M  V30 12 C 1.204817 2.306374 1.407972 0
M  V30 13 C 2.137714 3.165578 2.119400 0
M  V30 14 C 2.342305 4.481344 1.682542 0
M  V30 15 N 3.237035 5.081130 2.489134 0
M  V30 16 C 3.595146 4.174279 3.416677 0
M  V30 17 N 2.936842 3.037275 3.190145 0
M  V30 18 C 3.010784 1.820682 3.931679 0
M  V30 19 C -0.044963 2.849926 1.081501 0
M  V30 20 C -1.063084 2.208040 0.419771 0
M  V30 21 Cl -2.571418 3.003972 0.076817 0
M  V30 22 N -1.002689 -1.450754 -2.242620 0
M  V30 23 C -0.738219 -2.724366 -2.631990 0
M  V30 24 C -1.048158 -3.777165 -1.767807 0
M  V30 25 C -0.777627 -5.200917 -2.146694 0
M  V30 26 F 0.087548 -5.793624 -1.256874 0
M  V30 27 F -0.329322 -5.216702 -3.438639 0
M  V30 28 F -2.010780 -5.844716 -2.106962 0
M  V30 29 H -2.175200 -3.250296 2.111561 0
M  V30 30 H -2.286008 -5.002251 2.407238 0
M  V30 31 H -3.657082 -4.152521 1.643184 0
M  V30 32 H -1.785404 -5.497922 0.162281 0
M  V30 33 H -2.742798 0.586765 -0.876853 0
M  V30 34 H 0.574696 -0.711496 0.042126 0
M  V30 35 H 3.835289 -1.257837 1.229590 0
M  V30 36 H 2.702062 -1.016317 -0.178367 0
M  V30 37 H 2.059861 -1.567952 1.368121 0
M  V30 38 H 1.942369 5.082856 0.863596 0
M  V30 39 H 4.300331 4.319391 4.225053 0
M  V30 40 H 2.106755 1.186985 3.905218 0
M  V30 41 H 3.874135 1.194259 3.628398 0
M  V30 42 H 3.249953 2.125708 4.995673 0
M  V30 43 H -0.255340 3.881290 1.369482 0
M  V30 44 H -0.301607 -3.028867 -3.562929 0
M  V30 END ATOM
M  V30 BEGIN BOND
M  V30 1 1 1 2
M  V30 2 1 2 3
M  V30 3 2 3 4
M  V30 4 1 4 5
M  V30 5 1 5 6
M  V30 6 1 6 7
M  V30 7 2 7 8
M  V30 8 1 8 9
M  V30 9 1 9 10
M  V30 10 1 10 11
M  V30 11 2 9 12
M  V30 12 1 12 13
M  V30 13 2 13 14
M  V30 14 1 14 15
M  V30 15 2 15 16
M  V30 16 1 16 17
M  V30 17 1 17 18
M  V30 18 1 12 19
M  V30 19 2 19 20
M  V30 20 1 20 21
M  V30 21 2 5 22
M  V30 22 1 22 23
M  V30 23 2 23 24
M  V30 24 1 24 25
M  V30 25 1 25 26
M  V30 26 1 25 27
M  V30 27 1 25 28
M  V30 28 1 24 3
M  V30 29 1 20 7
M  V30 30 1 17 13
M  V30 31 1 1 29
M  V30 32 1 1 30
M  V30 33 1 1 31
M  V30 34 1 2 32
M  V30 35 1 6 33
M  V30 36 1 8 34
M  V30 37 1 11 35
M  V30 38 1 11 36
M  V30 39 1 11 37
M  V30 40 1 14 38
M  V30 41 1 16 39
M  V30 42 1 18 40
M  V30 43 1 18 41
M  V30 44 1 18 42
M  V30 45 1 19 43
M  V30 46 1 23 44
M  V30 END BOND
M  V30 END CTAB
M  END
>  <Dataset>  (590) 
ChEMBL_Kinases

>  <Ligand_Instance>  (590) 
nan

>  <PDB_ID>  (590) 
nan

>  <Standardized_SMILES>  (590) 
CNc1nc(Nc2cc(OC)c(-c3cncn3C)cc2Cl)ncc1C(F)(F)F

>  <Name>  (590) 
nan

>  <Pocket>  (590) 
nan

>  <ATP_Site>  (590) 
nan

>  <Peripheral>  (590) 
nan

>  <Num_H_Atoms_ProtBoundConf>  (590) 
nan

>  <Num_Resolved_Atoms>  (590) 
nan

>  <Num_Not_Resolved_Atoms>  (590) 
nan

$$$$
CHEMBL3676122
     RDKit          3D

  0  0  0  0  0  0  0  0  0  0999 V3000
M  V30 BEGIN CTAB
M  V30 COUNTS 42 44 0 0 0
M  V30 BEGIN ATOM
M  V30 1 C -0.641891 -5.879853 2.942636 0
M  V30 2 N -0.200350 -5.999068 1.557936 0
M  V30 3 C 0.078482 -4.862652 0.764732 0
M  V30 4 N -0.059085 -3.640015 1.275710 0
M  V30 5 C 0.178628 -2.496922 0.611202 0
M  V30 6 N -0.012077 -1.263086 1.288736 0
M  V30 7 C 0.167429 0.062530 0.818201 0
M  V30 8 C 0.582308 0.387146 -0.453794 0
M  V30 9 C 0.769850 1.658711 -0.953013 0
M  V30 10 C 0.520658 2.717241 -0.104558 0
M  V30 11 C 0.701077 4.086153 -0.574982 0
M  V30 12 N -0.109150 4.649575 -1.504912 0
M  V30 13 N 0.294403 5.873640 -1.723919 0
M  V30 14 N 1.337956 6.095961 -0.955979 0
M  V30 15 N 1.612803 5.019563 -0.239171 0
M  V30 16 C 2.667981 4.811234 0.733689 0
M  V30 17 C 0.103134 2.441194 1.178956 0
M  V30 18 C -0.075592 1.161735 1.650143 0
M  V30 19 O -0.493104 0.943176 2.937496 0
M  V30 20 C -0.742879 2.033361 3.789919 0
M  V30 21 N 0.582856 -2.624670 -0.657773 0
M  V30 22 C 0.750792 -3.807207 -1.260753 0
M  V30 23 C 0.495882 -4.952756 -0.542792 0
M  V30 24 C 0.674192 -6.266519 -1.186958 0
M  V30 25 F -0.519249 -6.956139 -1.187034 0
M  V30 26 F 1.119079 -6.118278 -2.480335 0
M  V30 27 F 1.595531 -7.035639 -0.485139 0
M  V30 28 H 0.174148 -6.077818 3.648893 0
M  V30 29 H -1.446975 -6.620835 3.152820 0
M  V30 30 H -1.090392 -4.875678 3.123500 0
M  V30 31 H -0.084581 -6.944242 1.133607 0
M  V30 32 H -0.338035 -1.321859 2.301069 0
M  V30 33 H 0.797817 -0.383267 -1.177792 0
M  V30 34 H 1.098127 1.859026 -1.963305 0
M  V30 35 H 2.333461 5.073583 1.751953 0
M  V30 36 H 2.943440 3.740808 0.718005 0
M  V30 37 H 3.597217 5.357163 0.465762 0
M  V30 38 H -0.105127 3.251953 1.883058 0
M  V30 39 H 0.186325 2.584138 3.963795 0
M  V30 40 H -1.155581 1.613509 4.735012 0
M  V30 41 H -1.506454 2.706388 3.349166 0
M  V30 42 H 1.081840 -3.793829 -2.292071 0
M  V30 END ATOM
M  V30 BEGIN BOND
M  V30 1 1 1 2
M  V30 2 1 2 3
M  V30 3 2 3 4
M  V30 4 1 4 5
M  V30 5 1 5 6
M  V30 6 1 6 7
M  V30 7 2 7 8
M  V30 8 1 8 9
M  V30 9 2 9 10
M  V30 10 1 10 11
M  V30 11 2 11 12
M  V30 12 1 12 13
M  V30 13 2 13 14
M  V30 14 1 14 15
M  V30 15 1 15 16
M  V30 16 1 10 17
M  V30 17 2 17 18
M  V30 18 1 18 19
M  V30 19 1 19 20
M  V30 20 2 5 21
M  V30 21 1 21 22
M  V30 22 2 22 23
M  V30 23 1 23 24
M  V30 24 1 24 25
M  V30 25 1 24 26
M  V30 26 1 24 27
M  V30 27 1 23 3
M  V30 28 1 18 7
M  V30 29 1 15 11
M  V30 30 1 1 28
M  V30 31 1 1 29
M  V30 32 1 1 30
M  V30 33 1 2 31
M  V30 34 1 6 32
M  V30 35 1 8 33
M  V30 36 1 9 34
M  V30 37 1 16 35
M  V30 38 1 16 36
M  V30 39 1 16 37
M  V30 40 1 17 38
M  V30 41 1 20 39
M  V30 42 1 20 40
M  V30 43 1 20 41
M  V30 44 1 22 42
M  V30 END BOND
M  V30 END CTAB
M  END
>  <Dataset>  (591) 
ChEMBL_Kinases

>  <Ligand_Instance>  (591) 
nan

>  <PDB_ID>  (591) 
nan

>  <Standardized_SMILES>  (591) 
CNc1nc(Nc2ccc(-c3nnnn3C)cc2OC)ncc1C(F)(F)F

>  <Name>  (591) 
nan

>  <Pocket>  (591) 
nan

>  <ATP_Site>  (591) 
nan

>  <Peripheral>  (591) 
nan

>  <Num_H_Atoms_ProtBoundConf>  (591) 
nan

>  <Num_Resolved_Atoms>  (591) 
nan

>  <Num_Not_Resolved_Atoms>  (591) 
nan

$$$$
CHEMBL3676121
     RDKit          3D

  0  0  0  0  0  0  0  0  0  0999 V3000
M  V30 BEGIN CTAB
M  V30 COUNTS 44 46 0 0 0
M  V30 BEGIN ATOM
M  V30 1 C -2.687202 -3.948563 1.692349 0
M  V30 2 N -2.093608 -4.344590 0.447873 0
M  V30 3 C -1.704283 -3.412580 -0.540605 0
M  V30 4 N -1.886557 -2.083152 -0.340586 0
M  V30 5 C -1.528526 -1.151523 -1.262489 0
M  V30 6 N -1.801354 0.198973 -0.874381 0
M  V30 7 C -0.837798 0.907946 -0.107868 0
M  V30 8 C 0.332692 0.300197 0.268584 0
M  V30 9 C 1.269743 0.971295 1.014790 0
M  V30 10 O 2.392176 0.293365 1.331493 0
M  V30 11 C 2.621977 -1.035449 0.939299 0
M  V30 12 C 1.147211 2.261157 1.447933 0
M  V30 13 C 2.049693 3.093015 2.204402 0
M  V30 14 N 1.912251 4.422926 2.175601 0
M  V30 15 C 2.784715 5.071008 2.942847 0
M  V30 16 C 3.526750 4.060180 3.496690 0
M  V30 17 N 3.064860 2.867704 3.037266 0
M  V30 18 C 3.590844 1.614565 3.447549 0
M  V30 19 C -0.063415 2.831285 1.034543 0
M  V30 20 C -1.031777 2.207386 0.289619 0
M  V30 21 Cl -2.513083 2.966667 -0.188778 0
M  V30 22 N -0.966120 -1.534718 -2.435142 0
M  V30 23 C -0.760993 -2.837325 -2.689078 0
M  V30 24 C -1.122840 -3.785521 -1.756060 0
M  V30 25 C -0.891842 -5.247411 -2.031324 0
M  V30 26 F -0.051738 -5.809731 -1.089121 0
M  V30 27 F -0.408136 -5.375878 -3.305361 0
M  V30 28 F -2.135265 -5.855614 -1.959305 0
M  V30 29 H -2.748362 -2.844944 1.723592 0
M  V30 30 H -2.086616 -4.360057 2.545718 0
M  V30 31 H -3.735754 -4.320804 1.761510 0
M  V30 32 H -1.949731 -5.363892 0.280653 0
M  V30 33 H -2.695276 0.680315 -1.142126 0
M  V30 34 H 0.507449 -0.722250 -0.034887 0
M  V30 35 H 3.494727 -1.485692 1.498768 0
M  V30 36 H 2.713799 -1.166672 -0.155136 0
M  V30 37 H 1.765650 -1.703071 1.239565 0
M  V30 38 H 2.865232 6.140922 3.077528 0
M  V30 39 H 4.353580 4.214217 4.194550 0
M  V30 40 H 4.357530 1.156997 2.808756 0
M  V30 41 H 4.184307 1.806276 4.418919 0
M  V30 42 H 2.826816 0.878351 3.822501 0
M  V30 43 H -0.352343 3.862919 1.280138 0
M  V30 44 H -0.311496 -3.089048 -3.633203 0
M  V30 END ATOM
M  V30 BEGIN BOND
M  V30 1 1 1 2
M  V30 2 1 2 3
M  V30 3 2 3 4
M  V30 4 1 4 5
M  V30 5 1 5 6
M  V30 6 1 6 7
M  V30 7 2 7 8
M  V30 8 1 8 9
M  V30 9 1 9 10
M  V30 10 1 10 11
M  V30 11 2 9 12
M  V30 12 1 12 13
M  V30 13 2 13 14
M  V30 14 1 14 15
M  V30 15 2 15 16
M  V30 16 1 16 17
M  V30 17 1 17 18
M  V30 18 1 12 19
M  V30 19 2 19 20
M  V30 20 1 20 21
M  V30 21 2 5 22
M  V30 22 1 22 23
M  V30 23 2 23 24
M  V30 24 1 24 25
M  V30 25 1 25 26
M  V30 26 1 25 27
M  V30 27 1 25 28
M  V30 28 1 24 3
M  V30 29 1 20 7
M  V30 30 1 17 13
M  V30 31 1 1 29
M  V30 32 1 1 30
M  V30 33 1 1 31
M  V30 34 1 2 32
M  V30 35 1 6 33
M  V30 36 1 8 34
M  V30 37 1 11 35
M  V30 38 1 11 36
M  V30 39 1 11 37
M  V30 40 1 15 38
M  V30 41 1 16 39
M  V30 42 1 18 40
M  V30 43 1 18 41
M  V30 44 1 18 42
M  V30 45 1 19 43
M  V30 46 1 23 44
M  V30 END BOND
M  V30 END CTAB
M  END
>  <Dataset>  (592) 
ChEMBL_Kinases

>  <Ligand_Instance>  (592) 
nan

>  <PDB_ID>  (592) 
nan

>  <Standardized_SMILES>  (592) 
CNc1nc(Nc2cc(OC)c(-c3nccn3C)cc2Cl)ncc1C(F)(F)F

>  <Name>  (592) 
nan

>  <Pocket>  (592) 
nan

>  <ATP_Site>  (592) 
nan

>  <Peripheral>  (592) 
nan

>  <Num_H_Atoms_ProtBoundConf>  (592) 
nan

>  <Num_Resolved_Atoms>  (592) 
nan

>  <Num_Not_Resolved_Atoms>  (592) 
nan

$$$$
CHEMBL3676120
     RDKit          3D

  0  0  0  0  0  0  0  0  0  0999 V3000
M  V30 BEGIN CTAB
M  V30 COUNTS 42 44 0 0 0
M  V30 BEGIN ATOM
M  V30 1 C 3.347450 -5.297811 1.602460 0
M  V30 2 N 2.036893 -4.806155 1.443327 0
M  V30 3 C 0.760307 -4.206862 1.208502 0
M  V30 4 N 0.337304 -3.129571 0.560233 0
M  V30 5 C -0.898260 -2.716132 0.460002 0
M  V30 6 N -0.962869 -1.538717 -0.317821 0
M  V30 7 C -0.516046 -0.209344 -0.102873 0
M  V30 8 C 0.170090 -0.002131 1.071836 0
M  V30 9 C 0.643462 1.284267 1.300382 0
M  V30 10 C 0.403340 2.269897 0.350691 0
M  V30 11 C 0.941604 3.593582 0.658017 0
M  V30 12 N 1.473382 4.399737 -0.303259 0
M  V30 13 N 1.863376 5.496136 0.296019 0
M  V30 14 N 1.616717 5.458432 1.608682 0
M  V30 15 C 1.918955 6.498358 2.571334 0
M  V30 16 N 1.043118 4.268805 1.819260 0
M  V30 17 C -0.296013 2.017706 -0.824362 0
M  V30 18 C -0.772287 0.745882 -1.063852 0
M  V30 19 O -1.474409 0.335223 -2.162408 0
M  V30 20 C -1.853119 1.132499 -3.259221 0
M  V30 21 N -1.770342 -3.491888 1.086833 0
M  V30 22 C -1.506370 -4.603097 1.776115 0
M  V30 23 C -0.170560 -5.021132 1.866795 0
M  V30 24 C 0.091532 -6.261766 2.642403 0
M  V30 25 F -1.109249 -6.748500 3.103985 0
M  V30 26 F 0.607037 -7.207785 1.770082 0
M  V30 27 F 1.001804 -6.075417 3.656138 0
M  V30 28 H 4.090894 -4.537192 1.934199 0
M  V30 29 H 3.361217 -6.149119 2.373478 0
M  V30 30 H 3.670218 -5.838840 0.660938 0
M  V30 31 H 2.495483 -4.039302 0.845684 0
M  V30 32 H -1.467286 -1.916507 -1.171692 0
M  V30 33 H 0.363978 -0.752250 1.813142 0
M  V30 34 H 1.191255 1.516363 2.214075 0
M  V30 35 H 2.991001 6.728503 2.491847 0
M  V30 36 H 1.749742 6.038565 3.589605 0
M  V30 37 H 1.265544 7.384869 2.488817 0
M  V30 38 H -0.478204 2.784654 -1.551869 0
M  V30 39 H -2.973827 1.306754 -3.217508 0
M  V30 40 H -1.692933 0.529963 -4.193005 0
M  V30 41 H -1.277784 2.074774 -3.286038 0
M  V30 42 H -2.351253 -5.107997 2.220739 0
M  V30 END ATOM
M  V30 BEGIN BOND
M  V30 1 1 1 2
M  V30 2 1 2 3
M  V30 3 2 3 4
M  V30 4 1 4 5
M  V30 5 1 5 6
M  V30 6 1 6 7
M  V30 7 2 7 8
M  V30 8 1 8 9
M  V30 9 2 9 10
M  V30 10 1 10 11
M  V30 11 1 11 12
M  V30 12 2 12 13
M  V30 13 1 13 14
M  V30 14 1 14 15
M  V30 15 1 14 16
M  V30 16 1 10 17
M  V30 17 2 17 18
M  V30 18 1 18 19
M  V30 19 1 19 20
M  V30 20 2 5 21
M  V30 21 1 21 22
M  V30 22 2 22 23
M  V30 23 1 23 24
M  V30 24 1 24 25
M  V30 25 1 24 26
M  V30 26 1 24 27
M  V30 27 1 23 3
M  V30 28 1 18 7
M  V30 29 2 16 11
M  V30 30 1 1 28
M  V30 31 1 1 29
M  V30 32 1 1 30
M  V30 33 1 2 31
M  V30 34 1 6 32
M  V30 35 1 8 33
M  V30 36 1 9 34
M  V30 37 1 15 35
M  V30 38 1 15 36
M  V30 39 1 15 37
M  V30 40 1 17 38
M  V30 41 1 20 39
M  V30 42 1 20 40
M  V30 43 1 20 41
M  V30 44 1 22 42
M  V30 END BOND
M  V30 END CTAB
M  END
>  <Dataset>  (593) 
ChEMBL_Kinases

>  <Ligand_Instance>  (593) 
nan

>  <PDB_ID>  (593) 
nan

>  <Standardized_SMILES>  (593) 
CNc1nc(Nc2ccc(-c3nnn(C)n3)cc2OC)ncc1C(F)(F)F

>  <Name>  (593) 
nan

>  <Pocket>  (593) 
nan

>  <ATP_Site>  (593) 
nan

>  <Peripheral>  (593) 
nan

>  <Num_H_Atoms_ProtBoundConf>  (593) 
nan

>  <Num_Resolved_Atoms>  (593) 
nan

>  <Num_Not_Resolved_Atoms>  (593) 
nan

$$$$
CHEMBL3676119
     RDKit          3D

  0  0  0  0  0  0  0  0  0  0999 V3000
M  V30 BEGIN CTAB
M  V30 COUNTS 43 45 0 0 0
M  V30 BEGIN ATOM
M  V30 1 C -0.389068 -2.153742 4.694983 0
M  V30 2 N -1.812903 -2.023061 4.419323 0
M  V30 3 C -2.410816 -1.484379 3.246962 0
M  V30 4 N -1.652257 -1.026425 2.242956 0
M  V30 5 C -2.143264 -0.506747 1.112300 0
M  V30 6 N -1.394178 -0.006096 0.017147 0
M  V30 7 C 0.010523 0.063039 -0.143072 0
M  V30 8 C 0.915356 -0.374673 0.797844 0
M  V30 9 C 2.287418 -0.326225 0.683319 0
M  V30 10 C 2.832737 0.203263 -0.466532 0
M  V30 11 C 4.255882 0.329474 -0.752591 0
M  V30 12 C 4.805232 1.481182 -1.278006 0
M  V30 13 N 6.135410 1.305404 -1.436136 0
M  V30 14 N 6.402713 0.075362 -1.018880 0
M  V30 15 N 5.291731 -0.514778 -0.609861 0
M  V30 16 C 5.143984 -1.852661 -0.082393 0
M  V30 17 C 1.960846 0.652548 -1.432664 0
M  V30 18 C 0.593046 0.595725 -1.300109 0
M  V30 19 O -0.239722 1.055146 -2.288846 0
M  V30 20 C 0.114365 1.618999 -3.511790 0
M  V30 21 N -3.481603 -0.462813 1.024765 0
M  V30 22 C -4.331690 -0.891826 1.966004 0
M  V30 23 C -3.776883 -1.412709 3.099093 0
M  V30 24 C -4.650276 -1.906824 4.182597 0
M  V30 25 F -4.397648 -1.200245 5.342541 0
M  V30 26 F -5.986692 -1.638122 3.877372 0
M  V30 27 F -4.546196 -3.245653 4.416871 0
M  V30 28 H -0.133498 -3.185056 5.042966 0
M  V30 29 H -0.044434 -1.438959 5.472473 0
M  V30 30 H 0.232731 -1.972322 3.794720 0
M  V30 31 H -2.432041 -2.371026 5.183197 0
M  V30 32 H -1.936007 0.376054 -0.810686 0
M  V30 33 H 0.593995 -0.805496 1.732335 0
M  V30 34 H 2.969941 -0.676147 1.435228 0
M  V30 35 H 4.369247 2.428951 -1.560677 0
M  V30 36 H 5.019264 -1.846590 1.012695 0
M  V30 37 H 4.291543 -2.335336 -0.627551 0
M  V30 38 H 6.062594 -2.451028 -0.354972 0
M  V30 39 H 2.350312 1.081197 -2.361734 0
M  V30 40 H 0.111719 2.732092 -3.530990 0
M  V30 41 H 1.071118 1.261969 -3.932128 0
M  V30 42 H -0.681076 1.298631 -4.246014 0
M  V30 43 H -5.406484 -0.829478 1.836733 0
M  V30 END ATOM
M  V30 BEGIN BOND
M  V30 1 1 1 2
M  V30 2 1 2 3
M  V30 3 2 3 4
M  V30 4 1 4 5
M  V30 5 1 5 6
M  V30 6 1 6 7
M  V30 7 2 7 8
M  V30 8 1 8 9
M  V30 9 2 9 10
M  V30 10 1 10 11
M  V30 11 2 11 12
M  V30 12 1 12 13
M  V30 13 2 13 14
M  V30 14 1 14 15
M  V30 15 1 15 16
M  V30 16 1 10 17
M  V30 17 2 17 18
M  V30 18 1 18 19
M  V30 19 1 19 20
M  V30 20 2 5 21
M  V30 21 1 21 22
M  V30 22 2 22 23
M  V30 23 1 23 24
M  V30 24 1 24 25
M  V30 25 1 24 26
M  V30 26 1 24 27
M  V30 27 1 23 3
M  V30 28 1 18 7
M  V30 29 1 15 11
M  V30 30 1 1 28
M  V30 31 1 1 29
M  V30 32 1 1 30
M  V30 33 1 2 31
M  V30 34 1 6 32
M  V30 35 1 8 33
M  V30 36 1 9 34
M  V30 37 1 12 35
M  V30 38 1 16 36
M  V30 39 1 16 37
M  V30 40 1 16 38
M  V30 41 1 17 39
M  V30 42 1 20 40
M  V30 43 1 20 41
M  V30 44 1 20 42
M  V30 45 1 22 43
M  V30 END BOND
M  V30 END CTAB
M  END
>  <Dataset>  (594) 
ChEMBL_Kinases

>  <Ligand_Instance>  (594) 
nan

>  <PDB_ID>  (594) 
nan

>  <Standardized_SMILES>  (594) 
CNc1nc(Nc2ccc(-c3cnnn3C)cc2OC)ncc1C(F)(F)F

>  <Name>  (594) 
nan

>  <Pocket>  (594) 
nan

>  <ATP_Site>  (594) 
nan

>  <Peripheral>  (594) 
nan

>  <Num_H_Atoms_ProtBoundConf>  (594) 
nan

>  <Num_Resolved_Atoms>  (594) 
nan

>  <Num_Not_Resolved_Atoms>  (594) 
nan

$$$$
CHEMBL3676118
     RDKit          3D

  0  0  0  0  0  0  0  0  0  0999 V3000
M  V30 BEGIN CTAB
M  V30 COUNTS 41 43 0 0 0
M  V30 BEGIN ATOM
M  V30 1 C -0.027635 -6.419660 1.594852 0
M  V30 2 N 0.925890 -5.984136 2.609062 0
M  V30 3 C 1.043355 -4.626890 3.017813 0
M  V30 4 N 0.256902 -3.690293 2.463090 0
M  V30 5 C 0.390767 -2.405527 2.871216 0
M  V30 6 N -0.346325 -1.300890 2.401656 0
M  V30 7 C -0.208449 -0.351790 1.350658 0
M  V30 8 C 0.907096 -0.481155 0.547334 0
M  V30 9 C 1.077053 0.421194 -0.483002 0
M  V30 10 C 0.165494 1.430779 -0.716569 0
M  V30 11 C 0.299937 2.418900 -1.799371 0
M  V30 12 C -0.635006 2.886952 -2.702240 0
M  V30 13 N -0.039943 3.794220 -3.509819 0
M  V30 14 C 1.239146 3.881224 -3.108734 0
M  V30 15 N 1.455857 3.051282 -2.072067 0
M  V30 16 C 2.757055 2.984619 -1.484479 0
M  V30 17 C -0.919877 1.484803 0.135721 0
M  V30 18 C -1.169816 0.625618 1.190251 0
M  V30 19 O -2.281016 0.746566 1.998209 0
M  V30 20 C -3.216160 1.785527 1.755246 0
M  V30 21 N 1.296029 -2.037298 3.823893 0
M  V30 22 C 2.098283 -2.977200 4.393185 0
M  V30 23 C 1.974410 -4.284010 3.989914 0
M  V30 24 Cl 2.960211 -5.570280 4.660696 0
M  V30 25 H -0.892369 -5.720438 1.660536 0
M  V30 26 H 0.455887 -6.252940 0.612000 0
M  V30 27 H -0.308317 -7.466181 1.706245 0
M  V30 28 H 1.535214 -6.716556 3.037051 0
M  V30 29 H -1.167916 -1.285254 3.075931 0
M  V30 30 H 1.646435 -1.244274 0.681918 0
M  V30 31 H 1.931188 0.337594 -1.114526 0
M  V30 32 H -1.637348 2.484948 -2.633404 0
M  V30 33 H 1.862787 4.573578 -3.658660 0
M  V30 34 H 3.134891 4.036855 -1.322100 0
M  V30 35 H 3.451374 2.538051 -2.228271 0
M  V30 36 H 2.792624 2.487120 -0.498929 0
M  V30 37 H -1.637575 2.288890 -0.057604 0
M  V30 38 H -3.810332 1.903066 2.698215 0
M  V30 39 H -3.912461 1.551861 0.917243 0
M  V30 40 H -2.735639 2.759877 1.595230 0
M  V30 41 H 2.841133 -2.754804 5.157692 0
M  V30 END ATOM
M  V30 BEGIN BOND
M  V30 1 1 1 2
M  V30 2 1 2 3
M  V30 3 2 3 4
M  V30 4 1 4 5
M  V30 5 1 5 6
M  V30 6 1 6 7
M  V30 7 2 7 8
M  V30 8 1 8 9
M  V30 9 2 9 10
M  V30 10 1 10 11
M  V30 11 2 11 12
M  V30 12 1 12 13
M  V30 13 2 13 14
M  V30 14 1 14 15
M  V30 15 1 15 16
M  V30 16 1 10 17
M  V30 17 2 17 18
M  V30 18 1 18 19
M  V30 19 1 19 20
M  V30 20 2 5 21
M  V30 21 1 21 22
M  V30 22 2 22 23
M  V30 23 1 23 24
M  V30 24 1 23 3
M  V30 25 1 18 7
M  V30 26 1 15 11
M  V30 27 1 1 25
M  V30 28 1 1 26
M  V30 29 1 1 27
M  V30 30 1 2 28
M  V30 31 1 6 29
M  V30 32 1 8 30
M  V30 33 1 9 31
M  V30 34 1 12 32
M  V30 35 1 14 33
M  V30 36 1 16 34
M  V30 37 1 16 35
M  V30 38 1 16 36
M  V30 39 1 17 37
M  V30 40 1 20 38
M  V30 41 1 20 39
M  V30 42 1 20 40
M  V30 43 1 22 41
M  V30 END BOND
M  V30 END CTAB
M  END
>  <Dataset>  (595) 
ChEMBL_Kinases

>  <Ligand_Instance>  (595) 
nan

>  <PDB_ID>  (595) 
nan

>  <Standardized_SMILES>  (595) 
CNc1nc(Nc2ccc(-c3cncn3C)cc2OC)ncc1Cl

>  <Name>  (595) 
nan

>  <Pocket>  (595) 
nan

>  <ATP_Site>  (595) 
nan

>  <Peripheral>  (595) 
nan

>  <Num_H_Atoms_ProtBoundConf>  (595) 
nan

>  <Num_Resolved_Atoms>  (595) 
nan

>  <Num_Not_Resolved_Atoms>  (595) 
nan

$$$$
CHEMBL3676117
     RDKit          3D

  0  0  0  0  0  0  0  0  0  0999 V3000
M  V30 BEGIN CTAB
M  V30 COUNTS 41 43 0 0 0
M  V30 BEGIN ATOM
M  V30 1 C -0.240792 -6.692427 2.000515 0
M  V30 2 N 0.742821 -6.202231 2.952442 0
M  V30 3 C 0.958006 -4.816805 3.154400 0
M  V30 4 N 0.259043 -3.877336 2.473303 0
M  V30 5 C 0.538559 -2.567984 2.743457 0
M  V30 6 N -0.078108 -1.446852 2.135777 0
M  V30 7 C 0.073542 -0.479806 1.107589 0
M  V30 8 C 1.222829 -0.529240 0.348300 0
M  V30 9 C 1.434885 0.389798 -0.658247 0
M  V30 10 C 0.441197 1.357090 -0.864194 0
M  V30 11 C 0.472252 2.418091 -1.875007 0
M  V30 12 N -0.319648 2.429237 -2.958874 0
M  V30 13 C -0.093737 3.519817 -3.729979 0
M  V30 14 C 0.907727 4.227986 -3.071881 0
M  V30 15 N 1.213915 3.530717 -1.969476 0
M  V30 16 C 2.212419 3.918562 -0.998410 0
M  V30 17 C -0.689491 1.361426 -0.076425 0
M  V30 18 C -0.941643 0.466296 0.935435 0
M  V30 19 O -2.027619 0.381784 1.774695 0
M  V30 20 C -3.135704 1.246003 1.741451 0
M  V30 21 N 1.452824 -2.179860 3.632233 0
M  V30 22 C 2.197800 -3.069470 4.357548 0
M  V30 23 C 1.892394 -4.374877 4.062509 0
M  V30 24 Cl 2.799478 -5.603513 4.943441 0
M  V30 25 H -1.209762 -6.203666 2.267494 0
M  V30 26 H 0.020890 -6.304462 0.983891 0
M  V30 27 H -0.291903 -7.797361 2.052212 0
M  V30 28 H 1.303282 -6.886336 3.502477 0
M  V30 29 H -0.934924 -1.444547 2.761810 0
M  V30 30 H 2.012041 -1.234675 0.454066 0
M  V30 31 H 2.253304 0.512190 -1.346269 0
M  V30 32 H -0.655625 3.677403 -4.644680 0
M  V30 33 H 1.290627 5.156331 -3.468324 0
M  V30 34 H 2.094761 3.376450 -0.029700 0
M  V30 35 H 2.109992 5.007643 -0.771828 0
M  V30 36 H 3.244282 3.827248 -1.418193 0
M  V30 37 H -1.484403 2.111423 -0.220466 0
M  V30 38 H -3.228165 1.826098 2.701335 0
M  V30 39 H -4.090270 0.674389 1.558803 0
M  V30 40 H -3.115767 2.000175 0.932349 0
M  V30 41 H 2.941524 -2.800760 5.079502 0
M  V30 END ATOM
M  V30 BEGIN BOND
M  V30 1 1 1 2
M  V30 2 1 2 3
M  V30 3 2 3 4
M  V30 4 1 4 5
M  V30 5 1 5 6
M  V30 6 1 6 7
M  V30 7 2 7 8
M  V30 8 1 8 9
M  V30 9 2 9 10
M  V30 10 1 10 11
M  V30 11 2 11 12
M  V30 12 1 12 13
M  V30 13 2 13 14
M  V30 14 1 14 15
M  V30 15 1 15 16
M  V30 16 1 10 17
M  V30 17 2 17 18
M  V30 18 1 18 19
M  V30 19 1 19 20
M  V30 20 2 5 21
M  V30 21 1 21 22
M  V30 22 2 22 23
M  V30 23 1 23 24
M  V30 24 1 23 3
M  V30 25 1 18 7
M  V30 26 1 15 11
M  V30 27 1 1 25
M  V30 28 1 1 26
M  V30 29 1 1 27
M  V30 30 1 2 28
M  V30 31 1 6 29
M  V30 32 1 8 30
M  V30 33 1 9 31
M  V30 34 1 13 32
M  V30 35 1 14 33
M  V30 36 1 16 34
M  V30 37 1 16 35
M  V30 38 1 16 36
M  V30 39 1 17 37
M  V30 40 1 20 38
M  V30 41 1 20 39
M  V30 42 1 20 40
M  V30 43 1 22 41
M  V30 END BOND
M  V30 END CTAB
M  END
>  <Dataset>  (596) 
ChEMBL_Kinases

>  <Ligand_Instance>  (596) 
nan

>  <PDB_ID>  (596) 
nan

>  <Standardized_SMILES>  (596) 
CNc1nc(Nc2ccc(-c3nccn3C)cc2OC)ncc1Cl

>  <Name>  (596) 
nan

>  <Pocket>  (596) 
nan

>  <ATP_Site>  (596) 
nan

>  <Peripheral>  (596) 
nan

>  <Num_H_Atoms_ProtBoundConf>  (596) 
nan

>  <Num_Resolved_Atoms>  (596) 
nan

>  <Num_Not_Resolved_Atoms>  (596) 
nan

$$$$
CHEMBL3676116
     RDKit          3D

  0  0  0  0  0  0  0  0  0  0999 V3000
M  V30 BEGIN CTAB
M  V30 COUNTS 37 39 0 0 0
M  V30 BEGIN ATOM
M  V30 1 C -3.693498 -4.159672 4.383391 0
M  V30 2 N -2.717781 -3.266566 3.984364 0
M  V30 3 C -1.726007 -2.359729 3.578130 0
M  V30 4 N -0.752984 -2.240519 2.680037 0
M  V30 5 C 0.047869 -1.180438 2.586598 0
M  V30 6 N 0.995045 -1.315707 1.537072 0
M  V30 7 C 1.067242 -0.438739 0.398062 0
M  V30 8 C 0.175237 0.599814 0.369003 0
M  V30 9 C 0.246325 1.444682 -0.724240 0
M  V30 10 C 1.169646 1.243904 -1.726871 0
M  V30 11 C 1.297599 2.109782 -2.917061 0
M  V30 12 C 1.702950 1.764724 -4.178198 0
M  V30 13 N 1.652452 2.878745 -4.920317 0
M  V30 14 O 1.240696 3.891421 -4.195319 0
M  V30 15 C 1.014476 3.454055 -2.962066 0
M  V30 16 C 2.039630 0.156717 -1.611847 0
M  V30 17 C 2.029636 -0.741709 -0.537587 0
M  V30 18 O 2.916026 -1.793872 -0.484496 0
M  V30 19 C 3.875742 -2.067574 -1.458252 0
M  V30 20 N -0.125679 -0.167942 3.440026 0
M  V30 21 C -1.063280 -0.156854 4.388574 0
M  V30 22 C -1.893602 -1.283366 4.467304 0
M  V30 23 Cl -3.050880 -1.042612 5.790488 0
M  V30 24 H -4.329522 -3.775223 5.245168 0
M  V30 25 H -3.247799 -5.090498 4.844515 0
M  V30 26 H -4.412020 -4.549736 3.605234 0
M  V30 27 H -2.398659 -3.948640 3.212490 0
M  V30 28 H 1.660439 -2.135140 1.666713 0
M  V30 29 H -0.551315 0.764079 1.149493 0
M  V30 30 H -0.404450 2.288821 -0.848424 0
M  V30 31 H 2.005957 0.763596 -4.493678 0
M  V30 32 H 0.667651 4.109131 -2.184824 0
M  V30 33 H 2.767690 0.017756 -2.422927 0
M  V30 34 H 4.108516 -3.154787 -1.430952 0
M  V30 35 H 4.802489 -1.455156 -1.278082 0
M  V30 36 H 3.531307 -1.862955 -2.486747 0
M  V30 37 H -1.049495 0.743785 4.978197 0
M  V30 END ATOM
M  V30 BEGIN BOND
M  V30 1 1 1 2
M  V30 2 1 2 3
M  V30 3 2 3 4
M  V30 4 1 4 5
M  V30 5 1 5 6
M  V30 6 1 6 7
M  V30 7 2 7 8
M  V30 8 1 8 9
M  V30 9 2 9 10
M  V30 10 1 10 11
M  V30 11 1 11 12
M  V30 12 2 12 13
M  V30 13 1 13 14
M  V30 14 1 14 15
M  V30 15 1 10 16
M  V30 16 2 16 17
M  V30 17 1 17 18
M  V30 18 1 18 19
M  V30 19 2 5 20
M  V30 20 1 20 21
M  V30 21 2 21 22
M  V30 22 1 22 23
M  V30 23 1 22 3
M  V30 24 1 17 7
M  V30 25 2 15 11
M  V30 26 1 1 24
M  V30 27 1 1 25
M  V30 28 1 1 26
M  V30 29 1 2 27
M  V30 30 1 6 28
M  V30 31 1 8 29
M  V30 32 1 9 30
M  V30 33 1 12 31
M  V30 34 1 15 32
M  V30 35 1 16 33
M  V30 36 1 19 34
M  V30 37 1 19 35
M  V30 38 1 19 36
M  V30 39 1 21 37
M  V30 END BOND
M  V30 END CTAB
M  END
>  <Dataset>  (597) 
ChEMBL_Kinases

>  <Ligand_Instance>  (597) 
nan

>  <PDB_ID>  (597) 
nan

>  <Standardized_SMILES>  (597) 
CNc1nc(Nc2ccc(-c3cnoc3)cc2OC)ncc1Cl

>  <Name>  (597) 
nan

>  <Pocket>  (597) 
nan

>  <ATP_Site>  (597) 
nan

>  <Peripheral>  (597) 
nan

>  <Num_H_Atoms_ProtBoundConf>  (597) 
nan

>  <Num_Resolved_Atoms>  (597) 
nan

>  <Num_Not_Resolved_Atoms>  (597) 
nan

$$$$
CHEMBL3676115
     RDKit          3D

  0  0  0  0  0  0  0  0  0  0999 V3000
M  V30 BEGIN CTAB
M  V30 COUNTS 43 45 0 0 0
M  V30 BEGIN ATOM
M  V30 1 C -2.009761 -3.353348 3.367853 0
M  V30 2 N -1.781144 -4.145892 2.166455 0
M  V30 3 C -1.714426 -3.481245 0.918443 0
M  V30 4 N -1.857025 -2.143393 0.825015 0
M  V30 5 C -1.796502 -1.484966 -0.352630 0
M  V30 6 N -1.977149 -0.073532 -0.208181 0
M  V30 7 C -0.864797 0.799880 0.062480 0
M  V30 8 C 0.382904 0.215974 0.194170 0
M  V30 9 C 1.504755 0.970901 0.459189 0
M  V30 10 O 2.763979 0.439264 0.598350 0
M  V30 11 C 3.061878 -0.932225 0.488770 0
M  V30 12 C 1.432311 2.338633 0.604443 0
M  V30 13 C 2.477782 3.288976 0.886968 0
M  V30 14 C 2.689900 4.504286 0.243317 0
M  V30 15 N 3.762553 5.109509 0.793945 0
M  V30 16 N 4.225139 4.325415 1.749161 0
M  V30 17 N 3.461248 3.229452 1.813880 0
M  V30 18 C 3.699162 2.176631 2.756822 0
M  V30 19 C 0.174318 2.925420 0.471325 0
M  V30 20 C -0.958274 2.187345 0.206378 0
M  V30 21 Cl -2.551766 2.898815 0.033948 0
M  V30 22 N -1.585529 -2.141987 -1.527061 0
M  V30 23 C -1.434208 -3.487065 -1.503199 0
M  V30 24 C -1.498393 -4.145354 -0.293469 0
M  V30 25 C -1.331267 -5.640779 -0.249417 0
M  V30 26 F -1.129693 -6.111731 -1.540857 0
M  V30 27 F -0.224317 -5.883593 0.549726 0
M  V30 28 F -2.443192 -6.253548 0.259249 0
M  V30 29 H -1.258990 -2.531319 3.412765 0
M  V30 30 H -3.044431 -2.981321 3.319118 0
M  V30 31 H -1.862167 -3.950050 4.290397 0
M  V30 32 H -1.665302 -5.181571 2.192182 0
M  V30 33 H -2.944923 0.305928 -0.305605 0
M  V30 34 H 0.507326 -0.872960 0.089634 0
M  V30 35 H 2.994665 -1.425432 1.476156 0
M  V30 36 H 4.110739 -1.071303 0.130940 0
M  V30 37 H 2.428202 -1.470668 -0.240785 0
M  V30 38 H 2.106791 4.907380 -0.558611 0
M  V30 39 H 4.523895 1.529938 2.400170 0
M  V30 40 H 2.787189 1.632241 3.065565 0
M  V30 41 H 4.095307 2.613464 3.718820 0
M  V30 42 H -0.015302 3.990734 0.563019 0
M  V30 43 H -1.266518 -4.006286 -2.440050 0
M  V30 END ATOM
M  V30 BEGIN BOND
M  V30 1 1 1 2
M  V30 2 1 2 3
M  V30 3 2 3 4
M  V30 4 1 4 5
M  V30 5 1 5 6
M  V30 6 1 6 7
M  V30 7 2 7 8
M  V30 8 1 8 9
M  V30 9 1 9 10
M  V30 10 1 10 11
M  V30 11 2 9 12
M  V30 12 1 12 13
M  V30 13 2 13 14
M  V30 14 1 14 15
M  V30 15 2 15 16
M  V30 16 1 16 17
M  V30 17 1 17 18
M  V30 18 1 12 19
M  V30 19 2 19 20
M  V30 20 1 20 21
M  V30 21 2 5 22
M  V30 22 1 22 23
M  V30 23 2 23 24
M  V30 24 1 24 25
M  V30 25 1 25 26
M  V30 26 1 25 27
M  V30 27 1 25 28
M  V30 28 1 24 3
M  V30 29 1 20 7
M  V30 30 1 17 13
M  V30 31 1 1 29
M  V30 32 1 1 30
M  V30 33 1 1 31
M  V30 34 1 2 32
M  V30 35 1 6 33
M  V30 36 1 8 34
M  V30 37 1 11 35
M  V30 38 1 11 36
M  V30 39 1 11 37
M  V30 40 1 14 38
M  V30 41 1 18 39
M  V30 42 1 18 40
M  V30 43 1 18 41
M  V30 44 1 19 42
M  V30 45 1 23 43
M  V30 END BOND
M  V30 END CTAB
M  END
>  <Dataset>  (598) 
ChEMBL_Kinases

>  <Ligand_Instance>  (598) 
nan

>  <PDB_ID>  (598) 
nan

>  <Standardized_SMILES>  (598) 
CNc1nc(Nc2cc(OC)c(-c3cnnn3C)cc2Cl)ncc1C(F)(F)F

>  <Name>  (598) 
nan

>  <Pocket>  (598) 
nan

>  <ATP_Site>  (598) 
nan

>  <Peripheral>  (598) 
nan

>  <Num_H_Atoms_ProtBoundConf>  (598) 
nan

>  <Num_Resolved_Atoms>  (598) 
nan

>  <Num_Not_Resolved_Atoms>  (598) 
nan

$$$$
CHEMBL3676114
     RDKit          3D

  0  0  0  0  0  0  0  0  0  0999 V3000
M  V30 BEGIN CTAB
M  V30 COUNTS 39 41 0 0 0
M  V30 BEGIN ATOM
M  V30 1 C -3.043334 -2.826581 3.658942 0
M  V30 2 N -1.972658 -2.882849 4.664680 0
M  V30 3 C -0.617290 -2.726114 4.193752 0
M  V30 4 N -0.353219 -2.534534 2.867665 0
M  V30 5 C 0.930996 -2.394943 2.435221 0
M  V30 6 N 0.897473 -2.193764 1.021096 0
M  V30 7 C 1.078642 -0.953121 0.326068 0
M  V30 8 C 1.405791 0.079728 1.178695 0
M  V30 9 C 1.633877 1.342182 0.687368 0
M  V30 10 C 1.521706 1.518954 -0.681859 0
M  V30 11 C 1.712869 2.809638 -1.372353 0
M  V30 12 N 2.609358 3.693402 -1.849829 0
M  V30 13 N 1.977840 4.724960 -2.393004 0
M  V30 14 N 0.673565 4.535520 -2.280785 0
M  V30 15 N 0.492316 3.362723 -1.656125 0
M  V30 16 C -0.900349 2.981920 -1.440753 0
M  V30 17 C 1.195619 0.491412 -1.543038 0
M  V30 18 C 0.958347 -0.801984 -1.061366 0
M  V30 19 O 0.622513 -1.983199 -1.679172 0
M  V30 20 C 0.458318 -2.026464 -3.073854 0
M  V30 21 N 1.981141 -2.442423 3.310871 0
M  V30 22 C 1.719805 -2.632403 4.633873 0
M  V30 23 C 0.443127 -2.778501 5.115056 0
M  V30 24 Cl 0.122253 -3.021569 6.802457 0
M  V30 25 H -4.031045 -2.795377 4.147785 0
M  V30 26 H -2.983615 -1.943209 3.016392 0
M  V30 27 H -2.986454 -3.726444 2.998519 0
M  V30 28 H -2.123063 -3.025207 5.679863 0
M  V30 29 H 0.721804 -3.038743 0.434153 0
M  V30 30 H 1.505064 -0.009080 2.242911 0
M  V30 31 H 1.891951 2.207059 1.241810 0
M  V30 32 H -1.324634 2.712844 -2.410745 0
M  V30 33 H -0.936206 2.072614 -0.772075 0
M  V30 34 H -1.410868 3.825463 -0.965532 0
M  V30 35 H 1.102734 0.581271 -2.591004 0
M  V30 36 H -0.607759 -2.340999 -3.262913 0
M  V30 37 H 0.554298 -1.053150 -3.564680 0
M  V30 38 H 1.080720 -2.794070 -3.582689 0
M  V30 39 H 2.585329 -2.655767 5.270712 0
M  V30 END ATOM
M  V30 BEGIN BOND
M  V30 1 1 1 2
M  V30 2 1 2 3
M  V30 3 2 3 4
M  V30 4 1 4 5
M  V30 5 1 5 6
M  V30 6 1 6 7
M  V30 7 2 7 8
M  V30 8 1 8 9
M  V30 9 2 9 10
M  V30 10 1 10 11
M  V30 11 2 11 12
M  V30 12 1 12 13
M  V30 13 2 13 14
M  V30 14 1 14 15
M  V30 15 1 15 16
M  V30 16 1 10 17
M  V30 17 2 17 18
M  V30 18 1 18 19
M  V30 19 1 19 20
M  V30 20 2 5 21
M  V30 21 1 21 22
M  V30 22 2 22 23
M  V30 23 1 23 24
M  V30 24 1 23 3
M  V30 25 1 18 7
M  V30 26 1 15 11
M  V30 27 1 1 25
M  V30 28 1 1 26
M  V30 29 1 1 27
M  V30 30 1 2 28
M  V30 31 1 6 29
M  V30 32 1 8 30
M  V30 33 1 9 31
M  V30 34 1 16 32
M  V30 35 1 16 33
M  V30 36 1 16 34
M  V30 37 1 17 35
M  V30 38 1 20 36
M  V30 39 1 20 37
M  V30 40 1 20 38
M  V30 41 1 22 39
M  V30 END BOND
M  V30 END CTAB
M  END
>  <Dataset>  (599) 
ChEMBL_Kinases

>  <Ligand_Instance>  (599) 
nan

>  <PDB_ID>  (599) 
nan

>  <Standardized_SMILES>  (599) 
CNc1nc(Nc2ccc(-c3nnnn3C)cc2OC)ncc1Cl

>  <Name>  (599) 
nan

>  <Pocket>  (599) 
nan

>  <ATP_Site>  (599) 
nan

>  <Peripheral>  (599) 
nan

>  <Num_H_Atoms_ProtBoundConf>  (599) 
nan

>  <Num_Resolved_Atoms>  (599) 
nan

>  <Num_Not_Resolved_Atoms>  (599) 
nan

$$$$
CHEMBL3676113
     RDKit          3D

  0  0  0  0  0  0  0  0  0  0999 V3000
M  V30 BEGIN CTAB
M  V30 COUNTS 44 46 0 0 0
M  V30 BEGIN ATOM
M  V30 1 C 0.211734 -4.168379 3.717096 0
M  V30 2 N -0.991274 -4.329051 2.937337 0
M  V30 3 C -1.685139 -3.492495 2.069788 0
M  V30 4 N -1.097624 -2.299921 1.931670 0
M  V30 5 C -1.595024 -1.281482 1.115820 0
M  V30 6 N -0.987682 -0.112431 0.657919 0
M  V30 7 C -0.401768 1.040499 0.203814 0
M  V30 8 C -0.526040 2.309147 0.574335 0
M  V30 9 C 0.499519 3.160249 0.085306 0
M  V30 10 C 1.506130 2.663134 -0.693183 0
M  V30 11 C 2.718111 3.453712 -0.859891 0
M  V30 12 C 3.622316 4.191398 -1.528059 0
M  V30 13 N 4.714923 4.529734 -0.766835 0
M  V30 14 C 4.551325 3.989342 0.444471 0
M  V30 15 N 3.372474 3.349909 0.398088 0
M  V30 16 C 2.989751 2.553853 1.607399 0
M  V30 17 C 1.707389 1.391696 -1.134045 0
M  V30 18 C 0.660824 0.524546 -0.648581 0
M  V30 19 O 0.484670 -0.786193 -0.880613 0
M  V30 20 C 0.957235 -1.882181 -1.476439 0
M  V30 21 N -2.739330 -1.505632 0.431968 0
M  V30 22 C -3.404180 -2.618021 0.478477 0
M  V30 23 C -2.820852 -3.581758 1.321655 0
M  V30 24 C -3.431902 -4.974089 1.438816 0
M  V30 25 F -3.791006 -5.264125 2.711484 0
M  V30 26 F -4.463332 -5.097347 0.509934 0
M  V30 27 F -2.480539 -5.889982 1.052512 0
M  V30 28 H 0.970644 -4.905535 3.383783 0
M  V30 29 H 0.126602 -4.288804 4.787405 0
M  V30 30 H 0.589322 -3.135040 3.485739 0
M  V30 31 H -1.382335 -5.336973 3.175860 0
M  V30 32 H -0.277514 -0.274148 1.339740 0
M  V30 33 H -1.337389 2.640322 1.158284 0
M  V30 34 H 0.510453 4.197695 0.332261 0
M  V30 35 H 3.247609 4.371241 -2.528640 0
M  V30 36 H 5.246164 4.028603 1.300174 0
M  V30 37 H 3.743433 2.495864 2.357768 0
M  V30 38 H 1.973900 2.890592 1.915974 0
M  V30 39 H 2.786681 1.545770 1.107344 0
M  V30 40 H 2.466315 0.889321 -1.761730 0
M  V30 41 H 1.152688 -1.732901 -2.572817 0
M  V30 42 H 0.332874 -2.802637 -1.289837 0
M  V30 43 H 1.960334 -2.175080 -1.039734 0
M  V30 44 H -4.292607 -2.953241 0.025768 0
M  V30 END ATOM
M  V30 BEGIN BOND
M  V30 1 1 1 2
M  V30 2 1 2 3
M  V30 3 2 3 4
M  V30 4 1 4 5
M  V30 5 1 5 6
M  V30 6 1 6 7
M  V30 7 2 7 8
M  V30 8 1 8 9
M  V30 9 2 9 10
M  V30 10 1 10 11
M  V30 11 2 11 12
M  V30 12 1 12 13
M  V30 13 2 13 14
M  V30 14 1 14 15
M  V30 15 1 15 16
M  V30 16 1 10 17
M  V30 17 2 17 18
M  V30 18 1 18 19
M  V30 19 1 19 20
M  V30 20 2 5 21
M  V30 21 1 21 22
M  V30 22 2 22 23
M  V30 23 1 23 24
M  V30 24 1 24 25
M  V30 25 1 24 26
M  V30 26 1 24 27
M  V30 27 1 23 3
M  V30 28 1 18 7
M  V30 29 1 15 11
M  V30 30 1 1 28
M  V30 31 1 1 29
M  V30 32 1 1 30
M  V30 33 1 2 31
M  V30 34 1 6 32
M  V30 35 1 8 33
M  V30 36 1 9 34
M  V30 37 1 12 35
M  V30 38 1 14 36
M  V30 39 1 16 37
M  V30 40 1 16 38
M  V30 41 1 16 39
M  V30 42 1 17 40
M  V30 43 1 20 41
M  V30 44 1 20 42
M  V30 45 1 20 43
M  V30 46 1 22 44
M  V30 END BOND
M  V30 END CTAB
M  END
>  <Dataset>  (600) 
ChEMBL_Kinases

>  <Ligand_Instance>  (600) 
nan

>  <PDB_ID>  (600) 
nan

>  <Standardized_SMILES>  (600) 
CNc1nc(Nc2ccc(-c3cncn3C)cc2OC)ncc1C(F)(F)F

>  <Name>  (600) 
nan

>  <Pocket>  (600) 
nan

>  <ATP_Site>  (600) 
nan

>  <Peripheral>  (600) 
nan

>  <Num_H_Atoms_ProtBoundConf>  (600) 
nan

>  <Num_Resolved_Atoms>  (600) 
nan

>  <Num_Not_Resolved_Atoms>  (600) 
nan

$$$$
CHEMBL3676112
     RDKit          3D

  0  0  0  0  0  0  0  0  0  0999 V3000
M  V30 BEGIN CTAB
M  V30 COUNTS 42 44 0 0 0
M  V30 BEGIN ATOM
M  V30 1 C -1.402408 -4.864465 2.403401 0
M  V30 2 N -0.656158 -5.308406 1.232238 0
M  V30 3 C -0.453743 -4.430819 0.112884 0
M  V30 4 N -0.978165 -3.178486 0.179776 0
M  V30 5 C -0.837013 -2.294372 -0.820134 0
M  V30 6 N -1.429086 -1.014189 -0.635395 0
M  V30 7 C -0.777905 0.113873 -0.057923 0
M  V30 8 C 0.528711 0.035861 0.376958 0
M  V30 9 C 1.230137 1.079639 0.943866 0
M  V30 10 O 2.535705 1.012186 1.381634 0
M  V30 11 C 3.227077 -0.214754 1.247684 0
M  V30 12 C 0.537748 2.273318 1.067314 0
M  V30 13 C 1.230129 3.414481 1.660396 0
M  V30 14 N 2.490210 3.467228 2.115027 0
M  V30 15 N 2.733309 4.692217 2.577632 0
M  V30 16 C 1.597091 5.414235 2.405214 0
M  V30 17 C 1.380582 6.841120 2.770376 0
M  V30 18 O 0.708801 4.626095 1.852928 0
M  V30 19 C -0.770723 2.412914 0.650728 0
M  V30 20 C -1.446464 1.336733 0.082878 0
M  V30 21 Cl -3.112418 1.479963 -0.458148 0
M  V30 22 N -0.146810 -2.659336 -1.940027 0
M  V30 23 C 0.391653 -3.891868 -2.051599 0
M  V30 24 C 0.249922 -4.809328 -1.023696 0
M  V30 25 C 0.825577 -6.184641 -1.096723 0
M  V30 26 F -0.207366 -7.083580 -0.992697 0
M  V30 27 F 1.422139 -6.351633 -2.332994 0
M  V30 28 F 1.736393 -6.396732 -0.064765 0
M  V30 29 H -1.074231 -5.405811 3.310538 0
M  V30 30 H -1.281553 -3.779212 2.500657 0
M  V30 31 H -2.478618 -5.171093 2.262834 0
M  V30 32 H -0.244250 -6.263024 1.155706 0
M  V30 33 H -2.421490 -0.900501 -0.951120 0
M  V30 34 H 1.030440 -0.912255 0.262008 0
M  V30 35 H 2.826531 -0.897108 2.030578 0
M  V30 36 H 3.061200 -0.712608 0.273761 0
M  V30 37 H 4.327598 -0.080341 1.321060 0
M  V30 38 H 0.966592 6.979801 3.783745 0
M  V30 39 H 2.327092 7.390421 2.612572 0
M  V30 40 H 0.612581 7.285167 2.081115 0
M  V30 41 H -1.326884 3.328311 0.736441 0
M  V30 42 H 0.932960 -4.171548 -2.935015 0
M  V30 END ATOM
M  V30 BEGIN BOND
M  V30 1 1 1 2
M  V30 2 1 2 3
M  V30 3 2 3 4
M  V30 4 1 4 5
M  V30 5 1 5 6
M  V30 6 1 6 7
M  V30 7 2 7 8
M  V30 8 1 8 9
M  V30 9 1 9 10
M  V30 10 1 10 11
M  V30 11 2 9 12
M  V30 12 1 12 13
M  V30 13 2 13 14
M  V30 14 1 14 15
M  V30 15 2 15 16
M  V30 16 1 16 17
M  V30 17 1 16 18
M  V30 18 1 12 19
M  V30 19 2 19 20
M  V30 20 1 20 21
M  V30 21 2 5 22
M  V30 22 1 22 23
M  V30 23 2 23 24
M  V30 24 1 24 25
M  V30 25 1 25 26
M  V30 26 1 25 27
M  V30 27 1 25 28
M  V30 28 1 24 3
M  V30 29 1 20 7
M  V30 30 1 18 13
M  V30 31 1 1 29
M  V30 32 1 1 30
M  V30 33 1 1 31
M  V30 34 1 2 32
M  V30 35 1 6 33
M  V30 36 1 8 34
M  V30 37 1 11 35
M  V30 38 1 11 36
M  V30 39 1 11 37
M  V30 40 1 17 38
M  V30 41 1 17 39
M  V30 42 1 17 40
M  V30 43 1 19 41
M  V30 44 1 23 42
M  V30 END BOND
M  V30 END CTAB
M  END
>  <Dataset>  (601) 
ChEMBL_Kinases

>  <Ligand_Instance>  (601) 
nan

>  <PDB_ID>  (601) 
nan

>  <Standardized_SMILES>  (601) 
CNc1nc(Nc2cc(OC)c(-c3nnc(C)o3)cc2Cl)ncc1C(F)(F)F

>  <Name>  (601) 
nan

>  <Pocket>  (601) 
nan

>  <ATP_Site>  (601) 
nan

>  <Peripheral>  (601) 
nan

>  <Num_H_Atoms_ProtBoundConf>  (601) 
nan

>  <Num_Resolved_Atoms>  (601) 
nan

>  <Num_Not_Resolved_Atoms>  (601) 
nan

$$$$
CHEMBL3676111
     RDKit          3D

  0  0  0  0  0  0  0  0  0  0999 V3000
M  V30 BEGIN CTAB
M  V30 COUNTS 42 44 0 0 0
M  V30 BEGIN ATOM
M  V30 1 C -2.231722 -4.152831 3.518079 0
M  V30 2 N -2.388883 -4.585047 2.150624 0
M  V30 3 C -1.478667 -4.233915 1.143334 0
M  V30 4 N -0.417585 -3.466137 1.456504 0
M  V30 5 C 0.480974 -3.113444 0.489063 0
M  V30 6 N 1.629193 -2.291275 0.779104 0
M  V30 7 C 1.499956 -0.880521 0.644525 0
M  V30 8 C 0.303000 -0.308948 0.244341 0
M  V30 9 C 0.059582 1.041188 0.078426 0
M  V30 10 F -1.162118 1.449277 -0.317794 0
M  V30 11 C 1.129241 1.872184 0.344086 0
M  V30 12 C 0.927015 3.309252 0.182568 0
M  V30 13 N 1.802912 4.314293 0.378942 0
M  V30 14 C 1.188449 5.479877 0.110699 0
M  V30 15 C 1.774609 6.838136 0.194002 0
M  V30 16 N -0.070304 5.178337 -0.251208 0
M  V30 17 O -0.183767 3.894554 -0.196078 0
M  V30 18 C 2.358248 1.389967 0.747877 0
M  V30 19 C 2.535852 0.028542 0.894739 0
M  V30 20 O 3.734864 -0.537028 1.295132 0
M  V30 21 C 4.812512 0.353157 1.559289 0
M  V30 22 N 0.349513 -3.510969 -0.802419 0
M  V30 23 C -0.703415 -4.290897 -1.188092 0
M  V30 24 C -1.581703 -4.619407 -0.175703 0
M  V30 25 C -2.777797 -5.472891 -0.485322 0
M  V30 26 F -2.783909 -6.635797 0.228849 0
M  V30 27 F -3.922254 -4.711235 -0.236845 0
M  V30 28 F -2.795860 -5.763230 -1.828316 0
M  V30 29 H -3.230419 -3.957767 3.954675 0
M  V30 30 H -1.816229 -4.990901 4.149212 0
M  V30 31 H -1.531683 -3.293724 3.601730 0
M  V30 32 H -3.210583 -5.170281 1.948178 0
M  V30 33 H 2.569522 -2.633942 1.085396 0
M  V30 34 H -0.525344 -1.003328 0.042075 0
M  V30 35 H 0.986835 7.598078 0.108820 0
M  V30 36 H 2.340412 6.876545 1.152415 0
M  V30 37 H 2.558530 6.992178 -0.602268 0
M  V30 38 H 3.195762 2.069027 0.953906 0
M  V30 39 H 4.514170 1.093564 2.351299 0
M  V30 40 H 5.678387 -0.226431 1.900078 0
M  V30 41 H 5.096716 0.910676 0.632930 0
M  V30 42 H -0.849121 -4.631433 -2.205142 0
M  V30 END ATOM
M  V30 BEGIN BOND
M  V30 1 1 1 2
M  V30 2 1 2 3
M  V30 3 2 3 4
M  V30 4 1 4 5
M  V30 5 1 5 6
M  V30 6 1 6 7
M  V30 7 2 7 8
M  V30 8 1 8 9
M  V30 9 1 9 10
M  V30 10 2 9 11
M  V30 11 1 11 12
M  V30 12 2 12 13
M  V30 13 1 13 14
M  V30 14 1 14 15
M  V30 15 2 14 16
M  V30 16 1 16 17
M  V30 17 1 11 18
M  V30 18 2 18 19
M  V30 19 1 19 20
M  V30 20 1 20 21
M  V30 21 2 5 22
M  V30 22 1 22 23
M  V30 23 2 23 24
M  V30 24 1 24 25
M  V30 25 1 25 26
M  V30 26 1 25 27
M  V30 27 1 25 28
M  V30 28 1 24 3
M  V30 29 1 19 7
M  V30 30 1 17 12
M  V30 31 1 1 29
M  V30 32 1 1 30
M  V30 33 1 1 31
M  V30 34 1 2 32
M  V30 35 1 6 33
M  V30 36 1 8 34
M  V30 37 1 15 35
M  V30 38 1 15 36
M  V30 39 1 15 37
M  V30 40 1 18 38
M  V30 41 1 21 39
M  V30 42 1 21 40
M  V30 43 1 21 41
M  V30 44 1 23 42
M  V30 END BOND
M  V30 END CTAB
M  END
>  <Dataset>  (602) 
ChEMBL_Kinases

>  <Ligand_Instance>  (602) 
nan

>  <PDB_ID>  (602) 
nan

>  <Standardized_SMILES>  (602) 
CNc1nc(Nc2cc(F)c(-c3nc(C)no3)cc2OC)ncc1C(F)(F)F

>  <Name>  (602) 
nan

>  <Pocket>  (602) 
nan

>  <ATP_Site>  (602) 
nan

>  <Peripheral>  (602) 
nan

>  <Num_H_Atoms_ProtBoundConf>  (602) 
nan

>  <Num_Resolved_Atoms>  (602) 
nan

>  <Num_Not_Resolved_Atoms>  (602) 
nan

$$$$
CHEMBL3675709
     RDKit          3D

  0  0  0  0  0  0  0  0  0  0999 V3000
M  V30 BEGIN CTAB
M  V30 COUNTS 49 51 0 0 0
M  V30 BEGIN ATOM
M  V30 1 C 3.597223 -2.770455 3.271003 0
M  V30 2 C 4.530749 -3.066569 2.117907 0 CFG=1
M  V30 3 C 3.743874 -3.782138 1.050149 0
M  V30 4 O 4.584568 -4.209179 0.016816 0
M  V30 5 N 5.221552 -1.894377 1.625761 0
M  V30 6 C 4.522877 -0.754317 1.108179 0
M  V30 7 N 5.161381 0.350960 0.639689 0
M  V30 8 C 4.436577 1.381751 0.170161 0
M  V30 9 C 3.060290 1.287604 0.177433 0
M  V30 10 C 2.392565 0.178065 0.647087 0
M  V30 11 C 0.938064 0.058628 0.663930 0
M  V30 12 C 0.074866 1.036353 0.214093 0
M  V30 13 C -1.307684 0.820767 0.275328 0
M  V30 14 N -1.824633 -0.322836 0.764632 0
M  V30 15 C -3.260697 -0.556989 0.832730 0
M  V30 16 C -3.797893 -0.325690 2.215524 0
M  V30 17 O -3.613978 0.940530 2.709504 0
M  V30 18 C -4.011312 0.156856 -0.229267 0
M  V30 19 C -4.509664 1.439413 -0.133644 0
M  V30 20 C -5.202773 2.069929 -1.142438 0
M  V30 21 C -5.429633 1.400439 -2.339863 0
M  V30 22 C -4.960076 0.114428 -2.506908 0
M  V30 23 Cl -5.216697 -0.776429 -3.993912 0
M  V30 24 C -4.276300 -0.440121 -1.444790 0
M  V30 25 C -0.989837 -1.297566 1.212452 0
M  V30 26 O -1.498958 -2.358080 1.665485 0
M  V30 27 C 0.393966 -1.107848 1.162610 0
M  V30 28 N 3.193156 -0.804588 1.097379 0
M  V30 29 H 2.543127 -2.990549 3.022361 0
M  V30 30 H 3.835779 -3.414966 4.157947 0
M  V30 31 H 3.669684 -1.713769 3.552155 0
M  V30 32 H 5.326255 -3.777784 2.479628 0
M  V30 33 H 3.261810 -4.659860 1.551410 0
M  V30 34 H 2.924383 -3.133476 0.709873 0
M  V30 35 H 4.000125 -4.594191 -0.684489 0
M  V30 36 H 6.270082 -1.815446 1.621082 0
M  V30 37 H 4.904714 2.287861 -0.215293 0
M  V30 38 H 2.499754 2.128651 -0.204899 0
M  V30 39 H 0.474088 1.944769 -0.174991 0
M  V30 40 H -1.978902 1.612491 -0.088315 0
M  V30 41 H -3.463894 -1.654857 0.631898 0
M  V30 42 H -3.182733 -1.003491 2.879973 0
M  V30 43 H -4.829591 -0.706665 2.335286 0
M  V30 44 H -2.772263 1.052409 3.234211 0
M  V30 45 H -4.352086 1.988157 0.778685 0
M  V30 46 H -5.562695 3.080025 -0.990360 0
M  V30 47 H -5.974026 1.900372 -3.127517 0
M  V30 48 H -3.917091 -1.463986 -1.612353 0
M  V30 49 H 0.964806 -1.941687 1.542275 0
M  V30 END ATOM
M  V30 BEGIN BOND
M  V30 1 1 1 2
M  V30 2 1 2 3
M  V30 3 1 3 4
M  V30 4 1 2 5
M  V30 5 1 5 6
M  V30 6 2 6 7
M  V30 7 1 7 8
M  V30 8 2 8 9
M  V30 9 1 9 10
M  V30 10 1 10 11
M  V30 11 1 11 12
M  V30 12 2 12 13
M  V30 13 1 13 14
M  V30 14 1 14 15
M  V30 15 1 15 16
M  V30 16 1 16 17
M  V30 17 1 15 18
M  V30 18 2 18 19
M  V30 19 1 19 20
M  V30 20 2 20 21
M  V30 21 1 21 22
M  V30 22 1 22 23
M  V30 23 2 22 24
M  V30 24 1 14 25
M  V30 25 2 25 26
M  V30 26 1 25 27
M  V30 27 2 10 28
M  V30 28 1 28 6
M  V30 29 2 27 11
M  V30 30 1 24 18
M  V30 31 1 1 29
M  V30 32 1 1 30
M  V30 33 1 1 31
M  V30 34 1 2 32 CFG=1
M  V30 35 1 3 33
M  V30 36 1 3 34
M  V30 37 1 4 35
M  V30 38 1 5 36
M  V30 39 1 8 37
M  V30 40 1 9 38
M  V30 41 1 12 39
M  V30 42 1 13 40
M  V30 43 1 15 41
M  V30 44 1 16 42
M  V30 45 1 16 43
M  V30 46 1 17 44
M  V30 47 1 19 45
M  V30 48 1 20 46
M  V30 49 1 21 47
M  V30 50 1 24 48
M  V30 51 1 27 49
M  V30 END BOND
M  V30 END CTAB
M  END
>  <Dataset>  (603) 
ChEMBL_Kinases

>  <Ligand_Instance>  (603) 
nan

>  <PDB_ID>  (603) 
nan

>  <Standardized_SMILES>  (603) 
C[C@@H](CO)Nc1nccc(-c2ccn(C(CO)c3cccc(Cl)c3)c(=O)c2)n1

>  <Name>  (603) 
nan

>  <Pocket>  (603) 
nan

>  <ATP_Site>  (603) 
nan

>  <Peripheral>  (603) 
nan

>  <Num_H_Atoms_ProtBoundConf>  (603) 
nan

>  <Num_Resolved_Atoms>  (603) 
nan

>  <Num_Not_Resolved_Atoms>  (603) 
nan

$$$$
CHEMBL3675710
     RDKit          3D

  0  0  0  0  0  0  0  0  0  0999 V3000
M  V30 BEGIN CTAB
M  V30 COUNTS 49 51 0 0 0
M  V30 BEGIN ATOM
M  V30 1 C 3.005740 -1.478538 4.388534 0
M  V30 2 C 3.959957 -2.305486 3.574084 0 CFG=1
M  V30 3 C 3.130061 -3.280289 2.750320 0
M  V30 4 O 2.270373 -4.023515 3.565981 0
M  V30 5 N 4.853339 -1.530201 2.745601 0
M  V30 6 C 4.474425 -0.622535 1.716381 0
M  V30 7 N 5.300716 0.112403 0.926053 0
M  V30 8 C 4.810126 0.928542 -0.004508 0
M  V30 9 C 3.439806 1.015568 -0.153255 0
M  V30 10 C 2.576543 0.283927 0.631988 0
M  V30 11 C 1.126570 0.361651 0.490728 0
M  V30 12 C 0.471352 1.157207 -0.423293 0
M  V30 13 C -0.922510 1.178728 -0.499760 0
M  V30 14 N -1.628379 0.402201 0.341821 0
M  V30 15 C -3.068691 0.398097 0.291768 0
M  V30 16 C -3.677435 1.774225 0.151280 0
M  V30 17 O -5.068998 1.722959 0.107249 0
M  V30 18 C -3.574116 -0.486813 -0.805942 0
M  V30 19 C -3.833141 -1.835565 -0.543865 0
M  V30 20 C -4.299284 -2.728839 -1.486917 0
M  V30 21 C -4.512219 -2.229709 -2.754241 0
M  V30 22 F -4.973131 -3.116624 -3.683399 0
M  V30 23 C -4.275002 -0.897900 -3.083250 0
M  V30 24 Cl -4.565022 -0.323458 -4.711984 0
M  V30 25 C -3.808841 -0.060340 -2.088795 0
M  V30 26 C -1.039418 -0.393919 1.253985 0
M  V30 27 O -1.703250 -1.133499 2.055907 0
M  V30 28 C 0.340032 -0.408809 1.322493 0
M  V30 29 N 3.144206 -0.518944 1.550629 0
M  V30 30 H 2.188498 -2.184443 4.716167 0
M  V30 31 H 3.459532 -1.122183 5.342561 0
M  V30 32 H 2.484748 -0.688129 3.832884 0
M  V30 33 H 4.586244 -2.861512 4.286159 0
M  V30 34 H 3.823930 -3.980370 2.273408 0
M  V30 35 H 2.483099 -2.751744 2.031641 0
M  V30 36 H 2.047302 -4.840354 3.020286 0
M  V30 37 H 5.911606 -1.577213 2.842187 0
M  V30 38 H 5.531567 1.479285 -0.592853 0
M  V30 39 H 3.077609 1.674107 -0.902836 0
M  V30 40 H 1.053054 1.768830 -1.085118 0
M  V30 41 H -1.371352 1.822558 -1.236638 0
M  V30 42 H -3.517903 -0.026407 1.225678 0
M  V30 43 H -3.439805 2.321250 1.108251 0
M  V30 44 H -3.246050 2.368578 -0.654227 0
M  V30 45 H -5.469849 2.580848 0.413296 0
M  V30 46 H -3.664265 -2.233416 0.463509 0
M  V30 47 H -4.475074 -3.757633 -1.204482 0
M  V30 48 H -3.613375 0.991042 -2.317254 0
M  V30 49 H 0.789574 -1.051070 2.057386 0
M  V30 END ATOM
M  V30 BEGIN BOND
M  V30 1 1 1 2
M  V30 2 1 2 3
M  V30 3 1 3 4
M  V30 4 1 2 5
M  V30 5 1 5 6
M  V30 6 2 6 7
M  V30 7 1 7 8
M  V30 8 2 8 9
M  V30 9 1 9 10
M  V30 10 1 10 11
M  V30 11 1 11 12
M  V30 12 2 12 13
M  V30 13 1 13 14
M  V30 14 1 14 15
M  V30 15 1 15 16
M  V30 16 1 16 17
M  V30 17 1 15 18
M  V30 18 2 18 19
M  V30 19 1 19 20
M  V30 20 2 20 21
M  V30 21 1 21 22
M  V30 22 1 21 23
M  V30 23 1 23 24
M  V30 24 2 23 25
M  V30 25 1 14 26
M  V30 26 2 26 27
M  V30 27 1 26 28
M  V30 28 2 10 29
M  V30 29 1 29 6
M  V30 30 2 28 11
M  V30 31 1 25 18
M  V30 32 1 1 30
M  V30 33 1 1 31
M  V30 34 1 1 32
M  V30 35 1 2 33 CFG=1
M  V30 36 1 3 34
M  V30 37 1 3 35
M  V30 38 1 4 36
M  V30 39 1 5 37
M  V30 40 1 8 38
M  V30 41 1 9 39
M  V30 42 1 12 40
M  V30 43 1 13 41
M  V30 44 1 15 42
M  V30 45 1 16 43
M  V30 46 1 16 44
M  V30 47 1 17 45
M  V30 48 1 19 46
M  V30 49 1 20 47
M  V30 50 1 25 48
M  V30 51 1 28 49
M  V30 END BOND
M  V30 END CTAB
M  END
>  <Dataset>  (604) 
ChEMBL_Kinases

>  <Ligand_Instance>  (604) 
nan

>  <PDB_ID>  (604) 
nan

>  <Standardized_SMILES>  (604) 
C[C@@H](CO)Nc1nccc(-c2ccn(C(CO)c3ccc(F)c(Cl)c3)c(=O)c2)n1

>  <Name>  (604) 
nan

>  <Pocket>  (604) 
nan

>  <ATP_Site>  (604) 
nan

>  <Peripheral>  (604) 
nan

>  <Num_H_Atoms_ProtBoundConf>  (604) 
nan

>  <Num_Resolved_Atoms>  (604) 
nan

>  <Num_Not_Resolved_Atoms>  (604) 
nan

$$$$
CHEMBL3675711
     RDKit          3D

  0  0  0  0  0  0  0  0  0  0999 V3000
M  V30 BEGIN CTAB
M  V30 COUNTS 56 59 0 0 0
M  V30 BEGIN ATOM
M  V30 1 C -2.241742 -0.654472 -0.608859 0
M  V30 2 C -1.091951 -1.408975 -0.065125 0
M  V30 3 C -0.015639 -0.718601 0.489293 0
M  V30 4 C 1.089255 -1.355914 1.013517 0
M  V30 5 C 2.168154 -0.550265 1.572976 0
M  V30 6 C 3.308818 -1.095940 2.117812 0
M  V30 7 C 4.212832 -0.196544 2.593980 0
M  V30 8 N 4.055029 1.137486 2.560521 0
M  V30 9 C 2.932306 1.650112 2.023422 0
M  V30 10 N 2.611301 3.043949 1.909339 0
M  V30 11 C 1.439326 3.650568 1.354074 0
M  V30 12 C 1.552748 5.160743 1.433650 0
M  V30 13 C 0.118941 5.668633 1.563491 0
M  V30 14 O -0.316032 5.398681 2.840493 0
M  V30 15 C -0.258371 4.060123 3.147218 0
M  V30 16 C 0.143388 3.180823 1.978110 0
M  V30 17 N 2.021671 0.784480 1.545131 0
M  V30 18 C 1.083040 -2.733641 0.964470 0
M  V30 19 C -0.003037 -3.377332 0.406801 0
M  V30 20 O 0.060382 -4.612935 0.396858 0
M  V30 21 N -1.077678 -2.756441 -0.103009 0
M  V30 22 C -2.214058 -3.444681 -0.687255 0 CFG=2
M  V30 23 C -3.166086 -3.969687 0.331016 0
M  V30 24 O -2.662788 -4.869097 1.230862 0
M  V30 25 C -1.843739 -4.499853 -1.649268 0
M  V30 26 C -1.741784 -5.855622 -1.459101 0
M  V30 27 C -1.375817 -6.727672 -2.461724 0
M  V30 28 C -1.085667 -6.285509 -3.735264 0
M  V30 29 Cl -0.624911 -7.380862 -4.998507 0
M  V30 30 C -1.166629 -4.936360 -4.001705 0
M  V30 31 F -0.898932 -4.420101 -5.222392 0
M  V30 32 C -1.537046 -4.113762 -2.961300 0
M  V30 33 H -2.149329 0.418045 -0.307626 0
M  V30 34 H -3.160421 -1.062812 -0.141790 0
M  V30 35 H -2.352519 -0.758929 -1.698191 0
M  V30 36 H -0.089149 0.374583 0.489543 0
M  V30 37 H 3.442301 -2.155310 2.148433 0
M  V30 38 H 5.136612 -0.535139 3.038601 0
M  V30 39 H 3.383522 3.658780 2.306688 0
M  V30 40 H 1.411746 3.381448 0.277364 0
M  V30 41 H 1.980061 5.601566 0.511556 0
M  V30 42 H 2.059497 5.445172 2.357507 0
M  V30 43 H 0.165183 6.769993 1.440436 0
M  V30 44 H -0.536341 5.282531 0.758733 0
M  V30 45 H -1.283547 3.760368 3.454983 0
M  V30 46 H 0.393313 3.831763 4.037423 0
M  V30 47 H -0.647792 3.291007 1.207018 0
M  V30 48 H 0.243325 2.149181 2.318748 0
M  V30 49 H 1.924132 -3.262679 1.362058 0
M  V30 50 H -2.822858 -2.707198 -1.302301 0
M  V30 51 H -3.651916 -3.152822 0.925033 0
M  V30 52 H -4.031949 -4.406696 -0.249530 0
M  V30 53 H -3.383788 -5.443409 1.557705 0
M  V30 54 H -1.962250 -6.226527 -0.486359 0
M  V30 55 H -1.325801 -7.789455 -2.201012 0
M  V30 56 H -1.593808 -3.040659 -3.201704 0
M  V30 END ATOM
M  V30 BEGIN BOND
M  V30 1 1 1 2
M  V30 2 2 2 3
M  V30 3 1 3 4
M  V30 4 1 4 5
M  V30 5 2 5 6
M  V30 6 1 6 7
M  V30 7 2 7 8
M  V30 8 1 8 9
M  V30 9 1 9 10
M  V30 10 1 10 11
M  V30 11 1 11 12
M  V30 12 1 12 13
M  V30 13 1 13 14
M  V30 14 1 14 15
M  V30 15 1 15 16
M  V30 16 2 9 17
M  V30 17 2 4 18
M  V30 18 1 18 19
M  V30 19 2 19 20
M  V30 20 1 19 21
M  V30 21 1 21 22
M  V30 22 1 22 23
M  V30 23 1 23 24
M  V30 24 1 22 25
M  V30 25 2 25 26
M  V30 26 1 26 27
M  V30 27 2 27 28
M  V30 28 1 28 29
M  V30 29 1 28 30
M  V30 30 1 30 31
M  V30 31 2 30 32
M  V30 32 1 21 2
M  V30 33 1 32 25
M  V30 34 1 17 5
M  V30 35 1 16 11
M  V30 36 1 1 33
M  V30 37 1 1 34
M  V30 38 1 1 35
M  V30 39 1 3 36
M  V30 40 1 6 37
M  V30 41 1 7 38
M  V30 42 1 10 39
M  V30 43 1 11 40
M  V30 44 1 12 41
M  V30 45 1 12 42
M  V30 46 1 13 43
M  V30 47 1 13 44
M  V30 48 1 15 45
M  V30 49 1 15 46
M  V30 50 1 16 47
M  V30 51 1 16 48
M  V30 52 1 18 49
M  V30 53 1 22 50 CFG=3
M  V30 54 1 23 51
M  V30 55 1 23 52
M  V30 56 1 24 53
M  V30 57 1 26 54
M  V30 58 1 27 55
M  V30 59 1 32 56
M  V30 END BOND
M  V30 END CTAB
M  END
>  <Dataset>  (605) 
ChEMBL_Kinases

>  <Ligand_Instance>  (605) 
nan

>  <PDB_ID>  (605) 
nan

>  <Standardized_SMILES>  (605) 
Cc1cc(-c2ccnc(NC3CCOCC3)n2)cc(=O)n1[C@H](CO)c1ccc(Cl)c(F)c1

>  <Name>  (605) 
nan

>  <Pocket>  (605) 
nan

>  <ATP_Site>  (605) 
nan

>  <Peripheral>  (605) 
nan

>  <Num_H_Atoms_ProtBoundConf>  (605) 
nan

>  <Num_Resolved_Atoms>  (605) 
nan

>  <Num_Not_Resolved_Atoms>  (605) 
nan

$$$$
CHEMBL3675712
     RDKit          3D

  0  0  0  0  0  0  0  0  0  0999 V3000
M  V30 BEGIN CTAB
M  V30 COUNTS 61 65 0 0 0
M  V30 BEGIN ATOM
M  V30 1 O -2.441372 -3.656388 1.970021 0
M  V30 2 C -1.714307 -2.798591 1.406347 0
M  V30 3 C -0.721548 -2.240417 2.184655 0
M  V30 4 C 0.098836 -1.295187 1.605273 0
M  V30 5 C 1.190046 -0.621817 2.306637 0
M  V30 6 C 1.515911 -0.863302 3.623737 0
M  V30 7 C 2.547612 -0.223769 4.278414 0
M  V30 8 N 3.264305 0.686870 3.564981 0
M  V30 9 C 2.968927 0.941884 2.280524 0
M  V30 10 N 3.737128 1.902445 1.560749 0
M  V30 11 C 4.826164 2.582423 2.247178 0
M  V30 12 C 5.445027 3.538038 1.260904 0
M  V30 13 C 4.409929 4.555789 0.862436 0
M  V30 14 O 3.768802 5.134114 1.955626 0
M  V30 15 C 4.419496 4.856634 3.160788 0
M  V30 16 C 4.373794 3.355675 3.456874 0
M  V30 17 N 1.959847 0.294309 1.695461 0
M  V30 18 C -0.124727 -0.966944 0.283917 0
M  V30 19 C -1.142642 -1.573165 -0.427657 0
M  V30 20 N -1.958359 -2.500702 0.117110 0
M  V30 21 C -2.992187 -3.086041 -0.681430 0
M  V30 22 C -2.492429 -4.340165 -1.299958 0
M  V30 23 C -1.811285 -4.414491 -2.496612 0
M  V30 24 C -1.357717 -5.591431 -3.054900 0
M  V30 25 C -1.577208 -6.773645 -2.413879 0
M  V30 26 Cl -1.017317 -8.285729 -3.091629 0
M  V30 27 C -2.251947 -6.782038 -1.211131 0
M  V30 28 F -2.475852 -7.952420 -0.565311 0
M  V30 29 C -2.690291 -5.582651 -0.684751 0
M  V30 30 C -3.529508 -2.170171 -1.740442 0 CFG=2
M  V30 31 C -4.123116 -0.913360 -1.141854 0
M  V30 32 C -5.562067 -0.851055 -1.543303 0
M  V30 33 C -5.594976 -1.771753 -2.744555 0
M  V30 34 N -4.651910 -2.815807 -2.399148 0
M  V30 35 H -0.566140 -2.513707 3.218195 0
M  V30 36 H 0.955988 -1.577957 4.188512 0
M  V30 37 H 2.796505 -0.419875 5.313568 0
M  V30 38 H 3.490844 2.090018 0.547638 0
M  V30 39 H 5.573966 1.840459 2.627613 0
M  V30 40 H 5.750535 2.995159 0.344246 0
M  V30 41 H 6.305740 4.094872 1.712276 0
M  V30 42 H 4.839679 5.352626 0.206439 0
M  V30 43 H 3.593835 4.100090 0.257163 0
M  V30 44 H 3.887115 5.382278 3.964681 0
M  V30 45 H 5.444965 5.257749 3.148788 0
M  V30 46 H 5.071356 3.236078 4.329644 0
M  V30 47 H 3.350838 3.118063 3.776430 0
M  V30 48 H 0.527765 -0.213101 -0.181843 0
M  V30 49 H -1.228459 -1.242535 -1.452497 0
M  V30 50 H -3.887194 -3.369968 -0.049553 0
M  V30 51 H -1.616447 -3.519244 -3.031449 0
M  V30 52 H -0.830130 -5.567386 -3.998415 0
M  V30 53 H -3.211470 -5.658949 0.257032 0
M  V30 54 H -2.800030 -1.943940 -2.543627 0
M  V30 55 H -3.963060 -0.859669 -0.036670 0
M  V30 56 H -3.600905 -0.046754 -1.630287 0
M  V30 57 H -5.865177 0.163224 -1.871902 0
M  V30 58 H -6.266319 -1.255597 -0.791511 0
M  V30 59 H -5.353440 -1.216790 -3.658172 0
M  V30 60 H -6.592698 -2.248800 -2.845688 0
M  V30 61 H -5.130538 -3.414101 -1.690253 0
M  V30 END ATOM
M  V30 BEGIN BOND
M  V30 1 2 1 2
M  V30 2 1 2 3
M  V30 3 2 3 4
M  V30 4 1 4 5
M  V30 5 2 5 6
M  V30 6 1 6 7
M  V30 7 2 7 8
M  V30 8 1 8 9
M  V30 9 1 9 10
M  V30 10 1 10 11
M  V30 11 1 11 12
M  V30 12 1 12 13
M  V30 13 1 13 14
M  V30 14 1 14 15
M  V30 15 1 15 16
M  V30 16 2 9 17
M  V30 17 1 4 18
M  V30 18 2 18 19
M  V30 19 1 19 20
M  V30 20 1 20 21
M  V30 21 1 21 22
M  V30 22 2 22 23
M  V30 23 1 23 24
M  V30 24 2 24 25
M  V30 25 1 25 26
M  V30 26 1 25 27
M  V30 27 1 27 28
M  V30 28 2 27 29
M  V30 29 1 21 30
M  V30 30 1 30 31
M  V30 31 1 31 32
M  V30 32 1 32 33
M  V30 33 1 33 34
M  V30 34 1 20 2
M  V30 35 1 29 22
M  V30 36 1 34 30
M  V30 37 1 17 5
M  V30 38 1 16 11
M  V30 39 1 3 35
M  V30 40 1 6 36
M  V30 41 1 7 37
M  V30 42 1 10 38
M  V30 43 1 11 39
M  V30 44 1 12 40
M  V30 45 1 12 41
M  V30 46 1 13 42
M  V30 47 1 13 43
M  V30 48 1 15 44
M  V30 49 1 15 45
M  V30 50 1 16 46
M  V30 51 1 16 47
M  V30 52 1 18 48
M  V30 53 1 19 49
M  V30 54 1 21 50
M  V30 55 1 23 51
M  V30 56 1 24 52
M  V30 57 1 29 53
M  V30 58 1 30 54 CFG=3
M  V30 59 1 31 55
M  V30 60 1 31 56
M  V30 61 1 32 57
M  V30 62 1 32 58
M  V30 63 1 33 59
M  V30 64 1 33 60
M  V30 65 1 34 61
M  V30 END BOND
M  V30 END CTAB
M  END
>  <Dataset>  (606) 
ChEMBL_Kinases

>  <Ligand_Instance>  (606) 
nan

>  <PDB_ID>  (606) 
nan

>  <Standardized_SMILES>  (606) 
O=c1cc(-c2ccnc(NC3CCOCC3)n2)ccn1C(c1ccc(Cl)c(F)c1)[C@@H]1CCCN1

>  <Name>  (606) 
nan

>  <Pocket>  (606) 
nan

>  <ATP_Site>  (606) 
nan

>  <Peripheral>  (606) 
nan

>  <Num_H_Atoms_ProtBoundConf>  (606) 
nan

>  <Num_Resolved_Atoms>  (606) 
nan

>  <Num_Not_Resolved_Atoms>  (606) 
nan

$$$$
CHEMBL3675713
     RDKit          3D

  0  0  0  0  0  0  0  0  0  0999 V3000
M  V30 BEGIN CTAB
M  V30 COUNTS 53 56 0 0 0
M  V30 BEGIN ATOM
M  V30 1 O -3.049642 -0.083107 -1.295467 0
M  V30 2 C -2.323636 -0.904637 -0.668403 0
M  V30 3 C -1.133445 -0.488206 -0.065444 0
M  V30 4 C -0.325170 -1.367666 0.624201 0
M  V30 5 C 0.897681 -0.839698 1.219626 0
M  V30 6 C 1.795611 -1.603104 1.934289 0
M  V30 7 C 2.920503 -0.988010 2.450849 0
M  V30 8 N 3.129995 0.327055 2.257709 0
M  V30 9 C 2.267697 1.066880 1.569785 0
M  V30 10 N 2.471301 2.457693 1.354916 0
M  V30 11 C 3.638740 3.080476 1.895277 0
M  V30 12 C 3.758133 2.996858 3.397910 0
M  V30 13 C 5.221327 3.246029 3.719609 0
M  V30 14 O 5.676863 4.313030 2.951492 0
M  V30 15 C 4.651548 5.188062 2.568523 0
M  V30 16 C 3.740110 4.537244 1.539865 0
M  V30 17 N 1.160145 0.469099 1.059301 0
M  V30 18 C -0.707150 -2.689905 0.717193 0
M  V30 19 C -1.890261 -3.056946 0.106513 0
M  V30 20 N -2.687994 -2.206125 -0.569994 0
M  V30 21 C -3.926580 -2.616213 -1.203017 0 CFG=2
M  V30 22 C -5.110025 -2.416086 -0.260593 0
M  V30 23 O -5.229694 -1.087996 0.097780 0
M  V30 24 C -3.839829 -4.029122 -1.634747 0
M  V30 25 C -4.184347 -5.142778 -0.896178 0
M  V30 26 C -4.050898 -6.408320 -1.428568 0
M  V30 27 F -4.427005 -7.428519 -0.593859 0
M  V30 28 C -3.574957 -6.638117 -2.705567 0
M  V30 29 C -3.225951 -5.544241 -3.458733 0
M  V30 30 F -2.759057 -5.750119 -4.708607 0
M  V30 31 C -3.361530 -4.284969 -2.921670 0
M  V30 32 H -0.903424 0.559525 -0.182076 0
M  V30 33 H 1.607743 -2.643748 2.074086 0
M  V30 34 H 3.636390 -1.600308 3.021499 0
M  V30 35 H 1.777869 3.012401 0.811065 0
M  V30 36 H 4.541896 2.538482 1.491844 0
M  V30 37 H 3.369267 2.084011 3.843641 0
M  V30 38 H 3.193417 3.860774 3.856375 0
M  V30 39 H 5.776385 2.337442 3.367094 0
M  V30 40 H 5.405244 3.404136 4.800449 0
M  V30 41 H 4.114993 5.627271 3.418265 0
M  V30 42 H 5.175004 6.013742 2.024018 0
M  V30 43 H 2.735882 5.013029 1.657130 0
M  V30 44 H 4.143852 4.678790 0.515804 0
M  V30 45 H -0.098226 -3.384086 1.244365 0
M  V30 46 H -2.179997 -4.104160 0.187750 0
M  V30 47 H -4.071211 -1.980811 -2.090897 0
M  V30 48 H -5.027068 -3.037938 0.634475 0
M  V30 49 H -6.025599 -2.735785 -0.791226 0
M  V30 50 H -5.972420 -0.667813 -0.382737 0
M  V30 51 H -4.555256 -4.949595 0.101073 0
M  V30 52 H -3.512323 -7.671114 -3.019166 0
M  V30 53 H -3.068835 -3.476774 -3.569220 0
M  V30 END ATOM
M  V30 BEGIN BOND
M  V30 1 2 1 2
M  V30 2 1 2 3
M  V30 3 2 3 4
M  V30 4 1 4 5
M  V30 5 2 5 6
M  V30 6 1 6 7
M  V30 7 2 7 8
M  V30 8 1 8 9
M  V30 9 1 9 10
M  V30 10 1 10 11
M  V30 11 1 11 12
M  V30 12 1 12 13
M  V30 13 1 13 14
M  V30 14 1 14 15
M  V30 15 1 15 16
M  V30 16 2 9 17
M  V30 17 1 4 18
M  V30 18 2 18 19
M  V30 19 1 19 20
M  V30 20 1 20 21
M  V30 21 1 21 22
M  V30 22 1 22 23
M  V30 23 1 21 24
M  V30 24 2 24 25
M  V30 25 1 25 26
M  V30 26 1 26 27
M  V30 27 2 26 28
M  V30 28 1 28 29
M  V30 29 1 29 30
M  V30 30 2 29 31
M  V30 31 1 20 2
M  V30 32 1 31 24
M  V30 33 1 17 5
M  V30 34 1 16 11
M  V30 35 1 3 32
M  V30 36 1 6 33
M  V30 37 1 7 34
M  V30 38 1 10 35
M  V30 39 1 11 36
M  V30 40 1 12 37
M  V30 41 1 12 38
M  V30 42 1 13 39
M  V30 43 1 13 40
M  V30 44 1 15 41
M  V30 45 1 15 42
M  V30 46 1 16 43
M  V30 47 1 16 44
M  V30 48 1 18 45
M  V30 49 1 19 46
M  V30 50 1 21 47 CFG=3
M  V30 51 1 22 48
M  V30 52 1 22 49
M  V30 53 1 23 50
M  V30 54 1 25 51
M  V30 55 1 28 52
M  V30 56 1 31 53
M  V30 END BOND
M  V30 END CTAB
M  END
>  <Dataset>  (607) 
ChEMBL_Kinases

>  <Ligand_Instance>  (607) 
nan

>  <PDB_ID>  (607) 
nan

>  <Standardized_SMILES>  (607) 
O=c1cc(-c2ccnc(NC3CCOCC3)n2)ccn1[C@H](CO)c1cc(F)cc(F)c1

>  <Name>  (607) 
nan

>  <Pocket>  (607) 
nan

>  <ATP_Site>  (607) 
nan

>  <Peripheral>  (607) 
nan

>  <Num_H_Atoms_ProtBoundConf>  (607) 
nan

>  <Num_Resolved_Atoms>  (607) 
nan

>  <Num_Not_Resolved_Atoms>  (607) 
nan

$$$$
CHEMBL3675714
     RDKit          3D

  0  0  0  0  0  0  0  0  0  0999 V3000
M  V30 BEGIN CTAB
M  V30 COUNTS 53 56 0 0 0
M  V30 BEGIN ATOM
M  V30 1 O -4.605635 0.254756 -0.406915 0
M  V30 2 C -3.501738 -0.258383 -0.033384 0
M  V30 3 C -2.418045 0.580239 0.253181 0
M  V30 4 C -1.212436 0.045602 0.659631 0
M  V30 5 C -0.113317 0.963419 0.946344 0
M  V30 6 C 1.132865 0.542864 1.358630 0
M  V30 7 C 2.071685 1.523011 1.591905 0
M  V30 8 N 3.389565 1.131687 2.025016 0
M  V30 9 C 4.466250 2.065583 2.303320 0
M  V30 10 C 5.735052 1.381435 2.742531 0
M  V30 11 C 6.695181 1.062076 1.653786 0
M  V30 12 O 6.357697 1.519465 0.400058 0
M  V30 13 C 6.056106 2.871337 0.530782 0
M  V30 14 C 4.691716 3.019313 1.156916 0
M  V30 15 N 1.830228 2.837378 1.438516 0
M  V30 16 C 0.602862 3.211789 1.034816 0
M  V30 17 N -0.362334 2.276337 0.790679 0
M  V30 18 C -1.136513 -1.327591 0.765204 0
M  V30 19 C -2.197834 -2.160701 0.485237 0
M  V30 20 N -3.366733 -1.610138 0.089262 0
M  V30 21 C -4.561861 -2.384063 -0.235850 0 CFG=2
M  V30 22 C -5.523266 -2.498930 0.911709 0
M  V30 23 O -6.619401 -3.253756 0.497497 0
M  V30 24 C -4.170654 -3.745528 -0.662461 0
M  V30 25 C -3.984948 -4.847805 0.145870 0
M  V30 26 C -3.618290 -6.075900 -0.363290 0
M  V30 27 C -3.418293 -6.261616 -1.715286 0
M  V30 28 Cl -2.952762 -7.821823 -2.358479 0
M  V30 29 C -3.582631 -5.212286 -2.594545 0
M  V30 30 F -3.410718 -5.298577 -3.919956 0
M  V30 31 C -3.947770 -4.020434 -2.018581 0
M  V30 32 H -2.583581 1.660787 0.137312 0
M  V30 33 H 1.336860 -0.497020 1.484021 0
M  V30 34 H 3.621648 0.116611 2.158338 0
M  V30 35 H 4.119193 2.681498 3.168379 0
M  V30 36 H 6.244724 1.949609 3.547348 0
M  V30 37 H 5.399913 0.421720 3.227314 0
M  V30 38 H 6.858839 -0.052293 1.570640 0
M  V30 39 H 7.719630 1.464235 1.907927 0
M  V30 40 H 6.019176 3.280160 -0.514508 0
M  V30 41 H 6.805379 3.435169 1.086252 0
M  V30 42 H 4.575058 4.082007 1.446174 0
M  V30 43 H 3.946313 2.814568 0.351896 0
M  V30 44 H 0.288396 4.246220 0.875463 0
M  V30 45 H -0.202607 -1.765472 1.081472 0
M  V30 46 H -2.138174 -3.230324 0.567686 0
M  V30 47 H -5.057773 -1.914264 -1.136990 0
M  V30 48 H -5.834530 -1.507554 1.307936 0
M  V30 49 H -5.074023 -3.021017 1.777093 0
M  V30 50 H -7.073333 -2.891426 -0.284512 0
M  V30 51 H -4.136777 -4.714886 1.197098 0
M  V30 52 H -3.487120 -6.913802 0.339369 0
M  V30 53 H -4.085172 -3.167269 -2.700245 0
M  V30 END ATOM
M  V30 BEGIN BOND
M  V30 1 2 1 2
M  V30 2 1 2 3
M  V30 3 2 3 4
M  V30 4 1 4 5
M  V30 5 2 5 6
M  V30 6 1 6 7
M  V30 7 1 7 8
M  V30 8 1 8 9
M  V30 9 1 9 10
M  V30 10 1 10 11
M  V30 11 1 11 12
M  V30 12 1 12 13
M  V30 13 1 13 14
M  V30 14 2 7 15
M  V30 15 1 15 16
M  V30 16 2 16 17
M  V30 17 1 4 18
M  V30 18 2 18 19
M  V30 19 1 19 20
M  V30 20 1 20 21
M  V30 21 1 21 22
M  V30 22 1 22 23
M  V30 23 1 21 24
M  V30 24 2 24 25
M  V30 25 1 25 26
M  V30 26 2 26 27
M  V30 27 1 27 28
M  V30 28 1 27 29
M  V30 29 1 29 30
M  V30 30 2 29 31
M  V30 31 1 20 2
M  V30 32 1 31 24
M  V30 33 1 17 5
M  V30 34 1 14 9
M  V30 35 1 3 32
M  V30 36 1 6 33
M  V30 37 1 8 34
M  V30 38 1 9 35
M  V30 39 1 10 36
M  V30 40 1 10 37
M  V30 41 1 11 38
M  V30 42 1 11 39
M  V30 43 1 13 40
M  V30 44 1 13 41
M  V30 45 1 14 42
M  V30 46 1 14 43
M  V30 47 1 16 44
M  V30 48 1 18 45
M  V30 49 1 19 46
M  V30 50 1 21 47 CFG=3
M  V30 51 1 22 48
M  V30 52 1 22 49
M  V30 53 1 23 50
M  V30 54 1 25 51
M  V30 55 1 26 52
M  V30 56 1 31 53
M  V30 END BOND
M  V30 END CTAB
M  END
>  <Dataset>  (608) 
ChEMBL_Kinases

>  <Ligand_Instance>  (608) 
nan

>  <PDB_ID>  (608) 
nan

>  <Standardized_SMILES>  (608) 
O=c1cc(-c2cc(NC3CCOCC3)ncn2)ccn1[C@H](CO)c1ccc(Cl)c(F)c1

>  <Name>  (608) 
nan

>  <Pocket>  (608) 
nan

>  <ATP_Site>  (608) 
nan

>  <Peripheral>  (608) 
nan

>  <Num_H_Atoms_ProtBoundConf>  (608) 
nan

>  <Num_Resolved_Atoms>  (608) 
nan

>  <Num_Not_Resolved_Atoms>  (608) 
nan

$$$$
CHEMBL3675715
     RDKit          3D

  0  0  0  0  0  0  0  0  0  0999 V3000
M  V30 BEGIN CTAB
M  V30 COUNTS 51 53 0 0 0
M  V30 BEGIN ATOM
M  V30 1 C 0.944425 -1.825432 3.971646 0
M  V30 2 C 2.321585 -2.259549 3.517559 0
M  V30 3 C 3.399530 -1.381193 4.125092 0 CFG=1
M  V30 4 C 4.754072 -1.868819 3.629809 0
M  V30 5 O 5.728067 -1.095579 4.246726 0
M  V30 6 N 3.160799 0.014237 3.812599 0
M  V30 7 C 3.136481 0.640253 2.537886 0
M  V30 8 N 4.181928 1.300167 1.983167 0
M  V30 9 C 4.002879 1.839557 0.756020 0
M  V30 10 C 2.815591 1.761883 0.024637 0
M  V30 11 C 1.783942 1.078843 0.635656 0
M  V30 12 C 0.489406 0.905464 -0.013114 0
M  V30 13 C 0.174334 1.406540 -1.259976 0
M  V30 14 C -1.047214 1.230698 -1.872233 0
M  V30 15 N -1.954943 0.516752 -1.165603 0
M  V30 16 C -3.262151 0.305001 -1.807255 0
M  V30 17 C -4.265968 1.114950 -1.058388 0
M  V30 18 C -3.550170 -1.155753 -1.825088 0
M  V30 19 C -4.419273 -1.938185 -1.096578 0
M  V30 20 C -4.469757 -3.298164 -1.312009 0
M  V30 21 C -3.676755 -3.935159 -2.241690 0
M  V30 22 Cl -3.829137 -5.651295 -2.423750 0
M  V30 23 C -2.801606 -3.161727 -2.978249 0
M  V30 24 F -2.027094 -3.811737 -3.891901 0
M  V30 25 C -2.739855 -1.796593 -2.773411 0
M  V30 26 C -1.716720 0.001876 0.047622 0
M  V30 27 O -2.570549 -0.665692 0.703962 0
M  V30 28 C -0.502274 0.192123 0.625955 0
M  V30 29 N 2.004253 0.558786 1.854790 0
M  V30 30 H 0.993348 -0.713826 4.132148 0
M  V30 31 H 0.215797 -2.073925 3.199467 0
M  V30 32 H 0.676361 -2.357760 4.906457 0
M  V30 33 H 2.483610 -3.285178 3.953048 0
M  V30 34 H 2.418995 -2.311125 2.430062 0
M  V30 35 H 3.406873 -1.511565 5.217060 0
M  V30 36 H 4.815240 -2.927616 3.955088 0
M  V30 37 H 4.827485 -1.779819 2.521660 0
M  V30 38 H 5.375624 -0.402846 4.843266 0
M  V30 39 H 2.960417 0.852413 4.400580 0
M  V30 40 H 4.865493 2.355934 0.357645 0
M  V30 41 H 2.719326 2.207274 -0.950130 0
M  V30 42 H 0.907260 1.974808 -1.810192 0
M  V30 43 H -1.286571 1.626746 -2.846145 0
M  V30 44 H -3.254953 0.679623 -2.848800 0
M  V30 45 H -4.681814 0.654258 -0.158002 0
M  V30 46 H -5.074243 1.506669 -1.711952 0
M  V30 47 H -3.744194 2.046381 -0.693486 0
M  V30 48 H -4.986987 -1.336133 -0.402561 0
M  V30 49 H -5.180917 -3.833064 -0.697753 0
M  V30 50 H -1.999138 -1.311710 -3.429941 0
M  V30 51 H -0.273135 -0.208500 1.603259 0
M  V30 END ATOM
M  V30 BEGIN BOND
M  V30 1 1 1 2
M  V30 2 1 2 3
M  V30 3 1 3 4
M  V30 4 1 4 5
M  V30 5 1 3 6
M  V30 6 1 6 7
M  V30 7 2 7 8
M  V30 8 1 8 9
M  V30 9 2 9 10
M  V30 10 1 10 11
M  V30 11 1 11 12
M  V30 12 1 12 13
M  V30 13 2 13 14
M  V30 14 1 14 15
M  V30 15 1 15 16
M  V30 16 1 16 17
M  V30 17 1 16 18
M  V30 18 2 18 19
M  V30 19 1 19 20
M  V30 20 2 20 21
M  V30 21 1 21 22
M  V30 22 1 21 23
M  V30 23 1 23 24
M  V30 24 2 23 25
M  V30 25 1 15 26
M  V30 26 2 26 27
M  V30 27 1 26 28
M  V30 28 2 11 29
M  V30 29 1 29 7
M  V30 30 2 28 12
M  V30 31 1 25 18
M  V30 32 1 1 30
M  V30 33 1 1 31
M  V30 34 1 1 32
M  V30 35 1 2 33
M  V30 36 1 2 34
M  V30 37 1 3 35 CFG=1
M  V30 38 1 4 36
M  V30 39 1 4 37
M  V30 40 1 5 38
M  V30 41 1 6 39
M  V30 42 1 9 40
M  V30 43 1 10 41
M  V30 44 1 13 42
M  V30 45 1 14 43
M  V30 46 1 16 44
M  V30 47 1 17 45
M  V30 48 1 17 46
M  V30 49 1 17 47
M  V30 50 1 19 48
M  V30 51 1 20 49
M  V30 52 1 25 50
M  V30 53 1 28 51
M  V30 END BOND
M  V30 END CTAB
M  END
>  <Dataset>  (609) 
ChEMBL_Kinases

>  <Ligand_Instance>  (609) 
nan

>  <PDB_ID>  (609) 
nan

>  <Standardized_SMILES>  (609) 
CC[C@@H](CO)Nc1nccc(-c2ccn(C(C)c3ccc(Cl)c(F)c3)c(=O)c2)n1

>  <Name>  (609) 
nan

>  <Pocket>  (609) 
nan

>  <ATP_Site>  (609) 
nan

>  <Peripheral>  (609) 
nan

>  <Num_H_Atoms_ProtBoundConf>  (609) 
nan

>  <Num_Resolved_Atoms>  (609) 
nan

>  <Num_Not_Resolved_Atoms>  (609) 
nan

$$$$
CHEMBL3675716
     RDKit          3D

  0  0  0  0  0  0  0  0  0  0999 V3000
M  V30 BEGIN CTAB
M  V30 COUNTS 53 56 0 0 0
M  V30 BEGIN ATOM
M  V30 1 C 5.920891 -1.629692 4.848397 0
M  V30 2 C 6.719943 -0.841327 3.832460 0
M  V30 3 C 5.770229 -0.163827 2.913830 0
M  V30 4 N 5.330528 1.076288 3.222040 0
M  V30 5 C 4.470108 1.747123 2.434831 0
M  V30 6 C 4.022944 1.138001 1.267342 0
M  V30 7 C 4.464994 -0.139142 0.933403 0
M  V30 8 N 4.008756 -0.777643 -0.271610 0
M  V30 9 C 3.100477 0.004098 -1.045123 0
M  V30 10 N 3.494484 0.864855 -2.018782 0
M  V30 11 C 2.582726 1.573843 -2.712765 0
M  V30 12 C 1.232070 1.461887 -2.472606 0
M  V30 13 C 0.843083 0.594584 -1.492240 0
M  V30 14 C -0.548460 0.364869 -1.120115 0
M  V30 15 C -0.842730 -0.532737 -0.114995 0
M  V30 16 C -2.160285 -0.793968 0.284825 0
M  V30 17 N -3.191351 -0.166048 -0.310579 0
M  V30 18 C -4.502770 -0.474051 0.138982 0
M  V30 19 C -5.634246 -0.051245 -0.742022 0
M  V30 20 O -5.639260 -0.581144 -2.007621 0
M  V30 21 C -4.633833 -1.878363 0.607852 0
M  V30 22 C -4.440454 -2.260221 1.936356 0
M  V30 23 C -4.561968 -3.564470 2.370810 0
M  V30 24 C -4.889320 -4.560232 1.471755 0
M  V30 25 Cl -5.036601 -6.205612 2.050851 0
M  V30 26 C -5.093708 -4.239180 0.135473 0
M  V30 27 F -5.414446 -5.216594 -0.743973 0
M  V30 28 C -4.957436 -2.918939 -0.234766 0
M  V30 29 C -2.891584 0.701927 -1.283841 0
M  V30 30 O -3.806679 1.305792 -1.863130 0
M  V30 31 C -1.616524 0.999055 -1.719116 0
M  V30 32 N 1.796670 -0.079999 -0.839452 0
M  V30 33 N 5.324061 -0.717479 1.791790 0
M  V30 34 H 6.560754 -2.479125 5.176130 0
M  V30 35 H 5.694763 -0.943176 5.696322 0
M  V30 36 H 4.989900 -1.960446 4.342768 0
M  V30 37 H 7.435183 -1.489127 3.282183 0
M  V30 38 H 7.313048 -0.083636 4.382699 0
M  V30 39 H 4.108833 2.748116 2.673860 0
M  V30 40 H 3.321538 1.683104 0.624290 0
M  V30 41 H 4.390356 -1.735985 -0.445328 0
M  V30 42 H 2.942665 2.258194 -3.490991 0
M  V30 43 H 0.512372 2.020591 -3.019392 0
M  V30 44 H -0.012076 -1.055797 0.383380 0
M  V30 45 H -2.256780 -1.516950 1.082246 0
M  V30 46 H -4.644303 0.134588 1.084518 0
M  V30 47 H -6.555354 -0.488766 -0.248519 0
M  V30 48 H -5.786351 1.028265 -0.660728 0
M  V30 49 H -6.511684 -0.888594 -2.336581 0
M  V30 50 H -4.180621 -1.488456 2.665278 0
M  V30 51 H -4.393712 -3.766953 3.420046 0
M  V30 52 H -5.128893 -2.741231 -1.280961 0
M  V30 53 H -1.433882 1.710992 -2.511880 0
M  V30 END ATOM
M  V30 BEGIN BOND
M  V30 1 1 1 2
M  V30 2 1 2 3
M  V30 3 2 3 4
M  V30 4 1 4 5
M  V30 5 2 5 6
M  V30 6 1 6 7
M  V30 7 1 7 8
M  V30 8 1 8 9
M  V30 9 2 9 10
M  V30 10 1 10 11
M  V30 11 2 11 12
M  V30 12 1 12 13
M  V30 13 1 13 14
M  V30 14 1 14 15
M  V30 15 2 15 16
M  V30 16 1 16 17
M  V30 17 1 17 18
M  V30 18 1 18 19
M  V30 19 1 19 20
M  V30 20 1 18 21
M  V30 21 2 21 22
M  V30 22 1 22 23
M  V30 23 2 23 24
M  V30 24 1 24 25
M  V30 25 1 24 26
M  V30 26 1 26 27
M  V30 27 2 26 28
M  V30 28 1 17 29
M  V30 29 2 29 30
M  V30 30 1 29 31
M  V30 31 2 13 32
M  V30 32 2 7 33
M  V30 33 1 33 3
M  V30 34 1 32 9
M  V30 35 2 31 14
M  V30 36 1 28 21
M  V30 37 1 1 34
M  V30 38 1 1 35
M  V30 39 1 1 36
M  V30 40 1 2 37
M  V30 41 1 2 38
M  V30 42 1 5 39
M  V30 43 1 6 40
M  V30 44 1 8 41
M  V30 45 1 11 42
M  V30 46 1 12 43
M  V30 47 1 15 44
M  V30 48 1 16 45
M  V30 49 1 18 46
M  V30 50 1 19 47
M  V30 51 1 19 48
M  V30 52 1 20 49
M  V30 53 1 22 50
M  V30 54 1 23 51
M  V30 55 1 28 52
M  V30 56 1 31 53
M  V30 END BOND
M  V30 END CTAB
M  END
>  <Dataset>  (610) 
ChEMBL_Kinases

>  <Ligand_Instance>  (610) 
nan

>  <PDB_ID>  (610) 
nan

>  <Standardized_SMILES>  (610) 
CCc1nccc(Nc2nccc(-c3ccn(C(CO)c4ccc(Cl)c(F)c4)c(=O)c3)n2)n1

>  <Name>  (610) 
nan

>  <Pocket>  (610) 
nan

>  <ATP_Site>  (610) 
nan

>  <Peripheral>  (610) 
nan

>  <Num_H_Atoms_ProtBoundConf>  (610) 
nan

>  <Num_Resolved_Atoms>  (610) 
nan

>  <Num_Not_Resolved_Atoms>  (610) 
nan

$$$$
CHEMBL3676110
     RDKit          3D

  0  0  0  0  0  0  0  0  0  0999 V3000
M  V30 BEGIN CTAB
M  V30 COUNTS 44 46 0 0 0
M  V30 BEGIN ATOM
M  V30 1 C -1.433370 -3.829999 3.538227 0
M  V30 2 N -2.691746 -3.576790 2.863417 0
M  V30 3 C -2.759227 -3.016367 1.533324 0
M  V30 4 N -1.591955 -2.729773 0.943546 0
M  V30 5 C -1.608825 -2.200026 -0.294310 0
M  V30 6 N -0.297336 -1.946611 -0.799975 0
M  V30 7 C 0.513385 -0.794540 -0.474569 0
M  V30 8 C -0.129428 0.056240 0.406040 0
M  V30 9 C 0.539709 1.189655 0.808723 0
M  V30 10 C 1.805695 1.461293 0.347572 0
M  V30 11 C 2.489405 2.658676 0.803931 0
M  V30 12 C 2.048881 3.910179 1.169523 0
M  V30 13 N 3.114269 4.672197 1.524889 0
M  V30 14 N 4.236824 3.946840 1.400144 0
M  V30 15 C 5.563356 4.457532 1.705155 0
M  V30 16 C 3.877019 2.726047 0.964594 0
M  V30 17 C 2.415387 0.594634 -0.528025 0
M  V30 18 C 1.805363 -0.557427 -0.973177 0
M  V30 19 O 2.186502 -1.546686 -1.809849 0
M  V30 20 C 3.431830 -1.580755 -2.468807 0
M  V30 21 N -2.810772 -1.989826 -0.865687 0
M  V30 22 C -3.984358 -2.270860 -0.290547 0
M  V30 23 C -3.997755 -2.813201 0.974184 0
M  V30 24 C -5.281694 -3.131385 1.629783 0
M  V30 25 F -5.372202 -2.401786 2.787932 0
M  V30 26 F -6.338968 -2.822739 0.795041 0
M  V30 27 F -5.291160 -4.470352 2.019754 0
M  V30 28 H -0.973348 -4.722400 3.101166 0
M  V30 29 H -0.758837 -2.949874 3.440109 0
M  V30 30 H -1.639122 -3.936974 4.614323 0
M  V30 31 H -3.588489 -3.814500 3.376614 0
M  V30 32 H -0.136412 -2.788208 -1.424808 0
M  V30 33 H -1.119519 -0.103918 0.801022 0
M  V30 34 H 0.056096 1.879788 1.504520 0
M  V30 35 H 0.981749 4.152352 1.144548 0
M  V30 36 H 6.084433 3.721129 2.388782 0
M  V30 37 H 6.172761 4.686196 0.836008 0
M  V30 38 H 5.452077 5.365511 2.353677 0
M  V30 39 H 4.606414 1.956337 0.783176 0
M  V30 40 H 3.398843 0.726842 -0.939346 0
M  V30 41 H 3.262682 -1.870701 -3.524486 0
M  V30 42 H 4.093862 -2.313857 -1.952178 0
M  V30 43 H 3.946955 -0.597968 -2.477199 0
M  V30 44 H -4.881090 -2.054745 -0.859173 0
M  V30 END ATOM
M  V30 BEGIN BOND
M  V30 1 1 1 2
M  V30 2 1 2 3
M  V30 3 2 3 4
M  V30 4 1 4 5
M  V30 5 1 5 6
M  V30 6 1 6 7
M  V30 7 2 7 8
M  V30 8 1 8 9
M  V30 9 2 9 10
M  V30 10 1 10 11
M  V30 11 1 11 12
M  V30 12 2 12 13
M  V30 13 1 13 14
M  V30 14 1 14 15
M  V30 15 1 14 16
M  V30 16 1 10 17
M  V30 17 2 17 18
M  V30 18 1 18 19
M  V30 19 1 19 20
M  V30 20 2 5 21
M  V30 21 1 21 22
M  V30 22 2 22 23
M  V30 23 1 23 24
M  V30 24 1 24 25
M  V30 25 1 24 26
M  V30 26 1 24 27
M  V30 27 1 23 3
M  V30 28 1 18 7
M  V30 29 2 16 11
M  V30 30 1 1 28
M  V30 31 1 1 29
M  V30 32 1 1 30
M  V30 33 1 2 31
M  V30 34 1 6 32
M  V30 35 1 8 33
M  V30 36 1 9 34
M  V30 37 1 12 35
M  V30 38 1 15 36
M  V30 39 1 15 37
M  V30 40 1 15 38
M  V30 41 1 16 39
M  V30 42 1 17 40
M  V30 43 1 20 41
M  V30 44 1 20 42
M  V30 45 1 20 43
M  V30 46 1 22 44
M  V30 END BOND
M  V30 END CTAB
M  END
>  <Dataset>  (611) 
ChEMBL_Kinases

>  <Ligand_Instance>  (611) 
nan

>  <PDB_ID>  (611) 
nan

>  <Standardized_SMILES>  (611) 
CNc1nc(Nc2ccc(-c3cnn(C)c3)cc2OC)ncc1C(F)(F)F

>  <Name>  (611) 
nan

>  <Pocket>  (611) 
nan

>  <ATP_Site>  (611) 
nan

>  <Peripheral>  (611) 
nan

>  <Num_H_Atoms_ProtBoundConf>  (611) 
nan

>  <Num_Resolved_Atoms>  (611) 
nan

>  <Num_Not_Resolved_Atoms>  (611) 
nan

$$$$
CHEMBL3675718
     RDKit          3D

  0  0  0  0  0  0  0  0  0  0999 V3000
M  V30 BEGIN CTAB
M  V30 COUNTS 52 55 0 0 0
M  V30 BEGIN ATOM
M  V30 1 C 0.965803 -0.971998 3.265911 0
M  V30 2 C 2.448219 -1.039144 3.184720 0
M  V30 3 N 3.264412 -1.686798 3.994050 0
M  V30 4 N 4.513330 -1.515154 3.636578 0
M  V30 5 C 5.441358 -2.243440 4.495798 0
M  V30 6 C 4.575391 -0.734995 2.559606 0
M  V30 7 C 3.275542 -0.413000 2.241416 0
M  V30 8 N 3.024388 0.369793 1.119104 0
M  V30 9 C 2.800150 1.145815 0.012819 0
M  V30 10 N 3.573140 1.773880 -0.861957 0
M  V30 11 C 3.023685 2.484768 -1.845218 0
M  V30 12 C 1.642774 2.601167 -2.014141 0
M  V30 13 C 0.769002 1.993906 -1.167403 0
M  V30 14 C -0.677234 1.685210 -0.866360 0
M  V30 15 C -0.773586 0.919517 0.269665 0
M  V30 16 C -1.952499 0.211616 0.563780 0
M  V30 17 N -2.967372 0.353871 -0.358070 0
M  V30 18 C -3.926501 -0.679811 0.077673 0
M  V30 19 C -5.072867 -0.925942 -0.799830 0
M  V30 20 O -4.626157 -1.345878 -2.042253 0
M  V30 21 C -3.056785 -1.952307 0.271479 0
M  V30 22 C -2.326247 -2.063802 -0.940697 0
M  V30 23 C -1.351968 -3.051021 -1.153127 0
M  V30 24 C -1.091643 -3.959632 -0.144361 0
M  V30 25 Cl 0.097700 -5.218589 -0.282000 0
M  V30 26 C -1.825159 -3.820225 1.022080 0
M  V30 27 F -1.661894 -4.628246 2.087443 0
M  V30 28 C -2.778028 -2.861174 1.244150 0
M  V30 29 C -2.816153 1.122195 -1.427708 0
M  V30 30 O -3.854885 1.110090 -2.106035 0
M  V30 31 C -1.679336 1.844783 -1.767183 0
M  V30 32 N 1.572579 1.400560 -0.336205 0
M  V30 33 H 0.672546 -1.558006 4.162336 0
M  V30 34 H 0.511326 -1.413673 2.360062 0
M  V30 35 H 0.668374 0.078228 3.462623 0
M  V30 36 H 5.743252 -1.544030 5.306737 0
M  V30 37 H 6.294051 -2.569967 3.884423 0
M  V30 38 H 5.009398 -3.170950 4.946057 0
M  V30 39 H 5.554770 -0.530260 2.178522 0
M  V30 40 H 2.113617 -0.119397 1.061140 0
M  V30 41 H 3.553466 3.017117 -2.616214 0
M  V30 42 H 0.938036 3.086187 -2.703108 0
M  V30 43 H -0.004537 0.792297 1.064762 0
M  V30 44 H -1.930542 -0.369417 1.501729 0
M  V30 45 H -4.230639 -0.415221 1.095751 0
M  V30 46 H -5.665103 -1.816324 -0.383482 0
M  V30 47 H -5.804419 -0.122732 -0.835643 0
M  V30 48 H -4.539570 -2.343548 -1.989629 0
M  V30 49 H -2.357455 -1.460067 -1.845230 0
M  V30 50 H -0.748585 -3.191191 -2.051203 0
M  V30 51 H -3.422681 -2.595042 2.048679 0
M  V30 52 H -1.540127 2.443441 -2.598347 0
M  V30 END ATOM
M  V30 BEGIN BOND
M  V30 1 1 1 2
M  V30 2 2 2 3
M  V30 3 1 3 4
M  V30 4 1 4 5
M  V30 5 1 4 6
M  V30 6 2 6 7
M  V30 7 1 7 8
M  V30 8 1 8 9
M  V30 9 2 9 10
M  V30 10 1 10 11
M  V30 11 2 11 12
M  V30 12 1 12 13
M  V30 13 1 13 14
M  V30 14 1 14 15
M  V30 15 2 15 16
M  V30 16 1 16 17
M  V30 17 1 17 18
M  V30 18 1 18 19
M  V30 19 1 19 20
M  V30 20 1 18 21
M  V30 21 2 21 22
M  V30 22 1 22 23
M  V30 23 2 23 24
M  V30 24 1 24 25
M  V30 25 1 24 26
M  V30 26 1 26 27
M  V30 27 2 26 28
M  V30 28 1 17 29
M  V30 29 2 29 30
M  V30 30 1 29 31
M  V30 31 2 13 32
M  V30 32 1 7 2
M  V30 33 1 32 9
M  V30 34 2 31 14
M  V30 35 1 28 21
M  V30 36 1 1 33
M  V30 37 1 1 34
M  V30 38 1 1 35
M  V30 39 1 5 36
M  V30 40 1 5 37
M  V30 41 1 5 38
M  V30 42 1 6 39
M  V30 43 1 8 40
M  V30 44 1 11 41
M  V30 45 1 12 42
M  V30 46 1 15 43
M  V30 47 1 16 44
M  V30 48 1 18 45
M  V30 49 1 19 46
M  V30 50 1 19 47
M  V30 51 1 20 48
M  V30 52 1 22 49
M  V30 53 1 23 50
M  V30 54 1 28 51
M  V30 55 1 31 52
M  V30 END BOND
M  V30 END CTAB
M  END
>  <Dataset>  (612) 
ChEMBL_Kinases

>  <Ligand_Instance>  (612) 
nan

>  <PDB_ID>  (612) 
nan

>  <Standardized_SMILES>  (612) 
Cc1nn(C)cc1Nc1nccc(-c2ccn(C(CO)c3ccc(Cl)c(F)c3)c(=O)c2)n1

>  <Name>  (612) 
nan

>  <Pocket>  (612) 
nan

>  <ATP_Site>  (612) 
nan

>  <Peripheral>  (612) 
nan

>  <Num_H_Atoms_ProtBoundConf>  (612) 
nan

>  <Num_Resolved_Atoms>  (612) 
nan

>  <Num_Not_Resolved_Atoms>  (612) 
nan

$$$$
CHEMBL3675720
     RDKit          3D

  0  0  0  0  0  0  0  0  0  0999 V3000
M  V30 BEGIN CTAB
M  V30 COUNTS 48 51 0 0 0
M  V30 BEGIN ATOM
M  V30 1 C 1.963191 -0.839539 -3.176552 0
M  V30 2 C 2.530361 0.020095 -2.356301 0
M  V30 3 C 3.642042 0.713617 -2.957847 0
M  V30 4 C 4.603891 1.436302 -2.304928 0
M  V30 5 C 5.627253 2.179085 -2.846832 0
M  V30 6 C 5.681009 2.186385 -4.225935 0
M  V30 7 Cl 6.961799 3.112765 -4.980146 0
M  V30 8 C 4.750001 1.481430 -4.951857 0
M  V30 9 F 4.843884 1.522293 -6.313504 0
M  V30 10 C 3.744612 0.754737 -4.331964 0
M  V30 11 N 1.878419 0.027705 -1.111418 0
M  V30 12 C 2.019531 0.961817 -0.163321 0
M  V30 13 C 1.470962 1.022667 1.094602 0
M  V30 14 C 0.656296 -0.019163 1.439860 0
M  V30 15 C 0.000964 -0.078027 2.735940 0
M  V30 16 C 0.145040 0.921936 3.659273 0
M  V30 17 C -0.448081 0.972076 4.914876 0
M  V30 18 N -1.241874 -0.089913 5.226744 0
M  V30 19 C -1.411170 -1.100571 4.343695 0
M  V30 20 N -2.258576 -2.148082 4.787164 0
M  V30 21 C -3.545221 -2.669804 4.396384 0
M  V30 22 C -4.158412 -3.638440 5.169942 0
M  V30 23 C -5.359309 -4.066403 4.687938 0
M  V30 24 N -5.936821 -3.616285 3.562968 0
M  V30 25 C -5.349412 -2.667535 2.793408 0
M  V30 26 C -6.003780 -2.178079 1.537095 0
M  V30 27 C -4.126086 -2.194656 3.235489 0
M  V30 28 N -0.807572 -1.076754 3.155142 0
M  V30 29 C 0.453806 -1.035389 0.514070 0
M  V30 30 C 1.073713 -0.961459 -0.713742 0
M  V30 31 O 0.823946 -1.943202 -1.491272 0
M  V30 32 H 1.984803 -1.261254 -4.159375 0
M  V30 33 H 1.411660 -1.562741 -3.723156 0
M  V30 34 H 4.598589 1.401336 -1.229912 0
M  V30 35 H 6.335829 2.714732 -2.227001 0
M  V30 36 H 3.078508 0.251361 -5.033507 0
M  V30 37 H 2.624844 1.809311 -0.439011 0
M  V30 38 H 1.681600 1.847299 1.740398 0
M  V30 39 H 0.753097 1.800005 3.498002 0
M  V30 40 H -0.326491 1.765963 5.637149 0
M  V30 41 H -1.765702 -2.619414 5.604307 0
M  V30 42 H -3.646086 -3.962242 6.063485 0
M  V30 43 H -5.876771 -4.838207 5.277939 0
M  V30 44 H -6.717031 -2.973152 1.223455 0
M  V30 45 H -6.559777 -1.255490 1.776255 0
M  V30 46 H -5.203270 -1.974072 0.794702 0
M  V30 47 H -3.669267 -1.430240 2.597160 0
M  V30 48 H -0.184914 -1.870017 0.764864 0
M  V30 END ATOM
M  V30 BEGIN BOND
M  V30 1 2 1 2
M  V30 2 1 2 3
M  V30 3 2 3 4
M  V30 4 1 4 5
M  V30 5 2 5 6
M  V30 6 1 6 7
M  V30 7 1 6 8
M  V30 8 1 8 9
M  V30 9 2 8 10
M  V30 10 1 2 11
M  V30 11 1 11 12
M  V30 12 2 12 13
M  V30 13 1 13 14
M  V30 14 1 14 15
M  V30 15 2 15 16
M  V30 16 1 16 17
M  V30 17 2 17 18
M  V30 18 1 18 19
M  V30 19 1 19 20
M  V30 20 1 20 21
M  V30 21 2 21 22
M  V30 22 1 22 23
M  V30 23 2 23 24
M  V30 24 1 24 25
M  V30 25 1 25 26
M  V30 26 2 25 27
M  V30 27 2 19 28
M  V30 28 2 14 29
M  V30 29 1 29 30
M  V30 30 2 30 31
M  V30 31 1 10 3
M  V30 32 1 30 11
M  V30 33 1 28 15
M  V30 34 1 27 21
M  V30 35 1 1 32
M  V30 36 1 1 33
M  V30 37 1 4 34
M  V30 38 1 5 35
M  V30 39 1 10 36
M  V30 40 1 12 37
M  V30 41 1 13 38
M  V30 42 1 16 39
M  V30 43 1 17 40
M  V30 44 1 20 41
M  V30 45 1 22 42
M  V30 46 1 23 43
M  V30 47 1 26 44
M  V30 48 1 26 45
M  V30 49 1 26 46
M  V30 50 1 27 47
M  V30 51 1 29 48
M  V30 END BOND
M  V30 END CTAB
M  END
>  <Dataset>  (613) 
ChEMBL_Kinases

>  <Ligand_Instance>  (613) 
nan

>  <PDB_ID>  (613) 
nan

>  <Standardized_SMILES>  (613) 
C=C(c1ccc(Cl)c(F)c1)n1ccc(-c2ccnc(Nc3ccnc(C)c3)n2)cc1=O

>  <Name>  (613) 
nan

>  <Pocket>  (613) 
nan

>  <ATP_Site>  (613) 
nan

>  <Peripheral>  (613) 
nan

>  <Num_H_Atoms_ProtBoundConf>  (613) 
nan

>  <Num_Resolved_Atoms>  (613) 
nan

>  <Num_Not_Resolved_Atoms>  (613) 
nan

$$$$
CHEMBL3675722
     RDKit          3D

  0  0  0  0  0  0  0  0  0  0999 V3000
M  V30 BEGIN CTAB
M  V30 COUNTS 49 52 0 0 0
M  V30 BEGIN ATOM
M  V30 1 C 3.205052 -2.469580 1.050979 0
M  V30 2 C 4.640495 -2.422089 1.332832 0
M  V30 3 N 5.351043 -3.532152 1.659417 0
M  V30 4 C 6.601178 -3.085079 1.838050 0
M  V30 5 N 6.668674 -1.767995 1.634376 0
M  V30 6 C 5.428912 -1.300509 1.306933 0
M  V30 7 N 5.201605 0.062954 1.035220 0
M  V30 8 C 4.104516 0.868582 0.679063 0
M  V30 9 N 4.322217 2.204866 0.498505 0
M  V30 10 C 3.350406 3.051378 0.160847 0
M  V30 11 C 2.078516 2.582305 -0.016273 0
M  V30 12 C 1.802082 1.268941 0.148657 0
M  V30 13 C 0.440573 0.796974 -0.044875 0
M  V30 14 C 0.012165 -0.504482 0.089152 0
M  V30 15 C -1.289922 -0.916318 -0.103041 0
M  V30 16 N -2.241496 -0.028852 -0.444544 0
M  V30 17 C -3.571785 -0.571057 -0.620262 0 CFG=2
M  V30 18 C -4.640892 0.429277 -0.884565 0
M  V30 19 O -5.841112 -0.311792 -1.019278 0
M  V30 20 C -3.917208 -1.306172 0.630253 0
M  V30 21 C -4.358360 -0.706257 1.789255 0
M  V30 22 C -4.681051 -1.389814 2.936808 0
M  V30 23 C -4.568536 -2.758701 2.966101 0
M  V30 24 Cl -4.967515 -3.675797 4.404494 0
M  V30 25 C -4.138375 -3.411128 1.853864 0
M  V30 26 F -4.024606 -4.771798 1.877229 0
M  V30 27 C -3.823295 -2.683601 0.717032 0
M  V30 28 C -1.862300 1.253158 -0.585168 0
M  V30 29 O -2.774466 2.058792 -0.904889 0
M  V30 30 C -0.562794 1.670480 -0.394433 0
M  V30 31 N 2.848300 0.526525 0.483772 0
M  V30 32 H 2.793772 -3.511734 1.230942 0
M  V30 33 H 2.925543 -2.161332 0.041809 0
M  V30 34 H 2.673879 -1.851092 1.794675 0
M  V30 35 H 7.391198 -3.766275 2.109942 0
M  V30 36 H 7.621840 -1.308619 1.751040 0
M  V30 37 H 6.096106 0.653097 1.119646 0
M  V30 38 H 3.679563 4.096832 0.051526 0
M  V30 39 H 1.413825 3.368086 -0.281952 0
M  V30 40 H 0.734165 -1.244571 0.359912 0
M  V30 41 H -1.514154 -1.963225 0.028923 0
M  V30 42 H -3.563543 -1.356057 -1.442164 0
M  V30 43 H -4.542759 0.920107 -1.890747 0
M  V30 44 H -4.725331 1.121703 -0.051546 0
M  V30 45 H -5.768592 -1.202880 -0.635562 0
M  V30 46 H -4.461781 0.368934 1.814176 0
M  V30 47 H -5.027021 -0.875697 3.833974 0
M  V30 48 H -3.494302 -3.279028 -0.118334 0
M  V30 49 H -0.431527 2.723243 -0.546174 0
M  V30 END ATOM
M  V30 BEGIN BOND
M  V30 1 1 1 2
M  V30 2 1 2 3
M  V30 3 2 3 4
M  V30 4 1 4 5
M  V30 5 1 5 6
M  V30 6 1 6 7
M  V30 7 1 7 8
M  V30 8 2 8 9
M  V30 9 1 9 10
M  V30 10 2 10 11
M  V30 11 1 11 12
M  V30 12 1 12 13
M  V30 13 1 13 14
M  V30 14 2 14 15
M  V30 15 1 15 16
M  V30 16 1 16 17
M  V30 17 1 17 18
M  V30 18 1 18 19
M  V30 19 1 17 20
M  V30 20 2 20 21
M  V30 21 1 21 22
M  V30 22 2 22 23
M  V30 23 1 23 24
M  V30 24 1 23 25
M  V30 25 1 25 26
M  V30 26 2 25 27
M  V30 27 1 16 28
M  V30 28 2 28 29
M  V30 29 1 28 30
M  V30 30 2 12 31
M  V30 31 2 6 2
M  V30 32 1 31 8
M  V30 33 2 30 13
M  V30 34 1 27 20
M  V30 35 1 1 32
M  V30 36 1 1 33
M  V30 37 1 1 34
M  V30 38 1 4 35
M  V30 39 1 5 36
M  V30 40 1 7 37
M  V30 41 1 10 38
M  V30 42 1 11 39
M  V30 43 1 14 40
M  V30 44 1 15 41
M  V30 45 1 17 42 CFG=3
M  V30 46 1 18 43
M  V30 47 1 18 44
M  V30 48 1 19 45
M  V30 49 1 21 46
M  V30 50 1 22 47
M  V30 51 1 27 48
M  V30 52 1 30 49
M  V30 END BOND
M  V30 END CTAB
M  END
>  <Dataset>  (614) 
ChEMBL_Kinases

>  <Ligand_Instance>  (614) 
nan

>  <PDB_ID>  (614) 
nan

>  <Standardized_SMILES>  (614) 
Cc1nc[nH]c1Nc1nccc(-c2ccn([C@H](CO)c3ccc(Cl)c(F)c3)c(=O)c2)n1

>  <Name>  (614) 
nan

>  <Pocket>  (614) 
nan

>  <ATP_Site>  (614) 
nan

>  <Peripheral>  (614) 
nan

>  <Num_H_Atoms_ProtBoundConf>  (614) 
nan

>  <Num_Resolved_Atoms>  (614) 
nan

>  <Num_Not_Resolved_Atoms>  (614) 
nan

$$$$
CHEMBL3675723
     RDKit          3D

  0  0  0  0  0  0  0  0  0  0999 V3000
M  V30 BEGIN CTAB
M  V30 COUNTS 59 63 0 0 0
M  V30 BEGIN ATOM
M  V30 1 C 4.329922 0.446937 6.118348 0
M  V30 2 N 3.921349 1.221897 4.938762 0
M  V30 3 C 3.353448 0.675316 3.842307 0
M  V30 4 C 3.082647 1.663492 2.901662 0
M  V30 5 C 2.466212 1.527873 1.562208 0
M  V30 6 C 3.599695 1.213700 0.630557 0
M  V30 7 C 4.008613 -0.083700 0.403236 0
M  V30 8 C 5.059363 -0.320751 -0.465059 0
M  V30 9 C 5.721895 0.696882 -1.119662 0
M  V30 10 Cl 7.043385 0.417651 -2.213122 0
M  V30 11 C 5.321348 2.018279 -0.901678 0
M  V30 12 Cl 6.102099 3.376866 -1.687778 0
M  V30 13 C 4.264434 2.218078 -0.024719 0
M  V30 14 N 1.401708 0.589070 1.472694 0
M  V30 15 C 0.682180 0.111430 2.504014 0
M  V30 16 C -0.351344 -0.799817 2.415242 0
M  V30 17 C -0.686942 -1.271298 1.161499 0
M  V30 18 C -1.780206 -2.233579 1.080229 0
M  V30 19 N -2.768002 -2.171923 0.171254 0
M  V30 20 C -3.756485 -3.081654 0.133149 0
M  V30 21 N -4.807384 -3.032880 -0.818766 0
M  V30 22 C -4.877005 -1.991414 -1.815391 0
M  V30 23 C -3.705976 -1.938522 -2.741511 0
M  V30 24 C -3.738930 -3.040241 -3.782354 0
M  V30 25 O -5.048538 -3.553577 -3.913851 0
M  V30 26 C -5.897771 -2.450873 -3.988480 0
M  V30 27 C -6.179687 -2.004193 -2.569064 0
M  V30 28 N -3.709954 -4.061495 1.052451 0
M  V30 29 C -2.752740 -4.182984 1.988662 0
M  V30 30 C -1.735689 -3.251783 2.032191 0
M  V30 31 F -0.781333 -3.391223 2.981983 0
M  V30 32 C 0.039041 -0.795050 0.080689 0
M  V30 33 C 1.058726 0.117218 0.260487 0
M  V30 34 O 1.597844 0.430346 -0.827265 0
M  V30 35 C 3.534499 2.805848 3.537124 0
M  V30 36 N 4.036127 2.527450 4.760310 0
M  V30 37 H 3.742697 -0.488140 6.195657 0
M  V30 38 H 4.154219 1.000226 7.057562 0
M  V30 39 H 5.405427 0.206778 6.008870 0
M  V30 40 H 3.148867 -0.381557 3.732408 0
M  V30 41 H 2.078389 2.558313 1.316657 0
M  V30 42 H 3.505695 -0.910751 0.905107 0
M  V30 43 H 5.409273 -1.344391 -0.667516 0
M  V30 44 H 3.940899 3.228603 0.156602 0
M  V30 45 H 0.922576 0.464704 3.497363 0
M  V30 46 H -0.869263 -1.121558 3.311981 0
M  V30 47 H -5.546648 -3.765784 -0.798390 0
M  V30 48 H -4.868656 -1.024177 -1.235937 0
M  V30 49 H -3.791521 -0.955747 -3.290637 0
M  V30 50 H -2.763935 -1.874110 -2.184450 0
M  V30 51 H -3.008892 -3.834576 -3.554949 0
M  V30 52 H -3.471891 -2.622218 -4.774330 0
M  V30 53 H -6.834093 -2.672031 -4.553057 0
M  V30 54 H -5.364047 -1.670881 -4.574557 0
M  V30 55 H -6.838569 -2.759788 -2.107705 0
M  V30 56 H -6.722532 -1.032238 -2.530862 0
M  V30 57 H -2.830688 -5.019706 2.671872 0
M  V30 58 H -0.280856 -1.209181 -0.868568 0
M  V30 59 H 3.505867 3.811896 3.136072 0
M  V30 END ATOM
M  V30 BEGIN BOND
M  V30 1 1 1 2
M  V30 2 1 2 3
M  V30 3 2 3 4
M  V30 4 1 4 5
M  V30 5 1 5 6
M  V30 6 2 6 7
M  V30 7 1 7 8
M  V30 8 2 8 9
M  V30 9 1 9 10
M  V30 10 1 9 11
M  V30 11 1 11 12
M  V30 12 2 11 13
M  V30 13 1 5 14
M  V30 14 1 14 15
M  V30 15 2 15 16
M  V30 16 1 16 17
M  V30 17 1 17 18
M  V30 18 2 18 19
M  V30 19 1 19 20
M  V30 20 1 20 21
M  V30 21 1 21 22
M  V30 22 1 22 23
M  V30 23 1 23 24
M  V30 24 1 24 25
M  V30 25 1 25 26
M  V30 26 1 26 27
M  V30 27 2 20 28
M  V30 28 1 28 29
M  V30 29 2 29 30
M  V30 30 1 30 31
M  V30 31 2 17 32
M  V30 32 1 32 33
M  V30 33 2 33 34
M  V30 34 1 4 35
M  V30 35 2 35 36
M  V30 36 1 36 2
M  V30 37 1 13 6
M  V30 38 1 33 14
M  V30 39 1 30 18
M  V30 40 1 27 22
M  V30 41 1 1 37
M  V30 42 1 1 38
M  V30 43 1 1 39
M  V30 44 1 3 40
M  V30 45 1 5 41
M  V30 46 1 7 42
M  V30 47 1 8 43
M  V30 48 1 13 44
M  V30 49 1 15 45
M  V30 50 1 16 46
M  V30 51 1 21 47
M  V30 52 1 22 48
M  V30 53 1 23 49
M  V30 54 1 23 50
M  V30 55 1 24 51
M  V30 56 1 24 52
M  V30 57 1 26 53
M  V30 58 1 26 54
M  V30 59 1 27 55
M  V30 60 1 27 56
M  V30 61 1 29 57
M  V30 62 1 32 58
M  V30 63 1 35 59
M  V30 END BOND
M  V30 END CTAB
M  END
>  <Dataset>  (615) 
ChEMBL_Kinases

>  <Ligand_Instance>  (615) 
nan

>  <PDB_ID>  (615) 
nan

>  <Standardized_SMILES>  (615) 
Cn1cc(C(c2ccc(Cl)c(Cl)c2)n2ccc(-c3nc(NC4CCOCC4)ncc3F)cc2=O)cn1

>  <Name>  (615) 
nan

>  <Pocket>  (615) 
nan

>  <ATP_Site>  (615) 
nan

>  <Peripheral>  (615) 
nan

>  <Num_H_Atoms_ProtBoundConf>  (615) 
nan

>  <Num_Resolved_Atoms>  (615) 
nan

>  <Num_Not_Resolved_Atoms>  (615) 
nan

$$$$
CHEMBL367601
     RDKit          3D

  0  0  0  0  0  0  0  0  0  0999 V3000
M  V30 BEGIN CTAB
M  V30 COUNTS 70 76 0 0 0
M  V30 BEGIN ATOM
M  V30 1 C 2.289797 -1.732662 5.088718 0
M  V30 2 C 2.963478 -1.776367 3.753055 0
M  V30 3 C 3.906709 -2.784743 3.525022 0
M  V30 4 C 4.564747 -2.870073 2.297560 0
M  V30 5 C 4.275835 -1.951040 1.313960 0
M  V30 6 N 4.721137 -1.762845 0.061145 0
M  V30 7 C 4.136333 -0.720227 -0.516537 0
M  V30 8 C 4.199858 -0.025954 -1.831258 0
M  V30 9 C 2.923118 -0.326025 -2.558029 0
M  V30 10 C 2.354169 0.876221 -3.262079 0
M  V30 11 N 2.186018 1.909021 -2.340083 0
M  V30 12 C 0.923871 2.397317 -1.996755 0
M  V30 13 C -0.017798 1.436742 -1.402811 0
M  V30 14 C -0.827860 0.754026 -2.320022 0
M  V30 15 C -1.743517 -0.170379 -1.859911 0
M  V30 16 C -1.912376 -0.468713 -0.521682 0
M  V30 17 C -2.878275 -1.449346 -0.030648 0
M  V30 18 N -2.572874 -2.689775 -0.498194 0
M  V30 19 C -3.311608 -3.777153 -0.186394 0
M  V30 20 C -4.398587 -3.566041 0.635018 0
M  V30 21 C -5.225774 -4.710534 0.996657 0
M  V30 22 N -5.983339 -4.893001 2.068138 0
M  V30 23 N -6.563131 -6.064738 2.003600 0
M  V30 24 N -6.193553 -6.686765 0.871488 0
M  V30 25 N -5.370433 -5.835885 0.266544 0
M  V30 26 C -4.736304 -2.331803 1.124170 0
M  V30 27 C -3.967012 -1.235480 0.792148 0
M  V30 28 C -4.160619 0.150799 1.201109 0
M  V30 29 C -4.119776 0.699534 2.466206 0
M  V30 30 C -4.332032 2.037776 2.661247 0
M  V30 31 C -4.594680 2.894369 1.611046 0
M  V30 32 C -4.649606 2.402880 0.306025 0
M  V30 33 C -4.428424 1.052548 0.173133 0
M  V30 34 C -1.100071 0.217305 0.383711 0
M  V30 35 C -0.179887 1.144639 -0.061878 0
M  V30 36 C 3.325553 2.338256 -1.635790 0
M  V30 37 C 4.504784 1.422066 -1.666529 0
M  V30 38 N 3.270461 -0.208397 0.406108 0
M  V30 39 C 3.338432 -0.952402 1.546913 0
M  V30 40 C 2.663039 -0.839927 2.762849 0
M  V30 41 H 1.391614 -1.100719 5.071147 0
M  V30 42 H 2.968050 -1.302709 5.866047 0
M  V30 43 H 2.046444 -2.765064 5.421266 0
M  V30 44 H 4.165177 -3.527754 4.267028 0
M  V30 45 H 5.303809 -3.619906 2.047379 0
M  V30 46 H 5.420190 -2.300576 -0.469043 0
M  V30 47 H 5.005169 -0.536741 -2.399963 0
M  V30 48 H 2.141186 -0.711266 -1.854046 0
M  V30 49 H 3.047930 -1.122258 -3.321042 0
M  V30 50 H 1.484029 0.613517 -3.841833 0
M  V30 51 H 3.151287 1.187071 -4.000530 0
M  V30 52 H 1.058501 3.205542 -1.233771 0
M  V30 53 H 0.436181 2.911005 -2.858909 0
M  V30 54 H -0.855794 0.839537 -3.398150 0
M  V30 55 H -2.415550 -0.749386 -2.499347 0
M  V30 56 H -3.100608 -4.775174 -0.537516 0
M  V30 57 H -6.478217 -7.634161 0.520684 0
M  V30 58 H -5.575243 -2.114533 1.769209 0
M  V30 59 H -3.906746 -0.037547 3.247854 0
M  V30 60 H -4.288224 2.417429 3.676342 0
M  V30 61 H -4.762204 3.961725 1.781943 0
M  V30 62 H -4.851097 3.046415 -0.521158 0
M  V30 63 H -4.480965 0.704128 -0.867813 0
M  V30 64 H -1.205974 0.007666 1.439644 0
M  V30 65 H 0.472513 1.700860 0.609626 0
M  V30 66 H 3.035120 2.548020 -0.579055 0
M  V30 67 H 3.596143 3.354281 -2.040794 0
M  V30 68 H 5.112089 1.551055 -0.745444 0
M  V30 69 H 5.153137 1.772033 -2.498273 0
M  V30 70 H 1.934024 -0.060035 2.940052 0
M  V30 END ATOM
M  V30 BEGIN BOND
M  V30 1 1 1 2
M  V30 2 2 2 3
M  V30 3 1 3 4
M  V30 4 2 4 5
M  V30 5 1 5 6
M  V30 6 1 6 7
M  V30 7 1 7 8
M  V30 8 1 8 9
M  V30 9 1 9 10
M  V30 10 1 10 11
M  V30 11 1 11 12
M  V30 12 1 12 13
M  V30 13 2 13 14
M  V30 14 1 14 15
M  V30 15 2 15 16
M  V30 16 1 16 17
M  V30 17 2 17 18
M  V30 18 1 18 19
M  V30 19 2 19 20
M  V30 20 1 20 21
M  V30 21 1 21 22
M  V30 22 2 22 23
M  V30 23 1 23 24
M  V30 24 1 24 25
M  V30 25 1 20 26
M  V30 26 2 26 27
M  V30 27 1 27 28
M  V30 28 2 28 29
M  V30 29 1 29 30
M  V30 30 2 30 31
M  V30 31 1 31 32
M  V30 32 2 32 33
M  V30 33 1 16 34
M  V30 34 2 34 35
M  V30 35 1 11 36
M  V30 36 1 36 37
M  V30 37 2 7 38
M  V30 38 1 38 39
M  V30 39 2 39 40
M  V30 40 1 40 2
M  V30 41 1 39 5
M  V30 42 1 37 8
M  V30 43 1 35 13
M  V30 44 1 27 17
M  V30 45 1 33 28
M  V30 46 2 25 21
M  V30 47 1 1 41
M  V30 48 1 1 42
M  V30 49 1 1 43
M  V30 50 1 3 44
M  V30 51 1 4 45
M  V30 52 1 6 46
M  V30 53 1 8 47
M  V30 54 1 9 48
M  V30 55 1 9 49
M  V30 56 1 10 50
M  V30 57 1 10 51
M  V30 58 1 12 52
M  V30 59 1 12 53
M  V30 60 1 14 54
M  V30 61 1 15 55
M  V30 62 1 19 56
M  V30 63 1 24 57
M  V30 64 1 26 58
M  V30 65 1 29 59
M  V30 66 1 30 60
M  V30 67 1 31 61
M  V30 68 1 32 62
M  V30 69 1 33 63
M  V30 70 1 34 64
M  V30 71 1 35 65
M  V30 72 1 36 66
M  V30 73 1 36 67
M  V30 74 1 37 68
M  V30 75 1 37 69
M  V30 76 1 40 70
M  V30 END BOND
M  V30 END CTAB
M  END
>  <Dataset>  (616) 
ChEMBL_Kinases

>  <Ligand_Instance>  (616) 
nan

>  <PDB_ID>  (616) 
nan

>  <Standardized_SMILES>  (616) 
Cc1ccc2[nH]c(C3CCN(Cc4ccc(-c5ncc(-c6nn[nH]n6)cc5-c5ccccc5)cc4)CC3)nc2c1

>  <Name>  (616) 
nan

>  <Pocket>  (616) 
nan

>  <ATP_Site>  (616) 
nan

>  <Peripheral>  (616) 
nan

>  <Num_H_Atoms_ProtBoundConf>  (616) 
nan

>  <Num_Resolved_Atoms>  (616) 
nan

>  <Num_Not_Resolved_Atoms>  (616) 
nan

$$$$
CHEMBL3676107
     RDKit          3D

  0  0  0  0  0  0  0  0  0  0999 V3000
M  V30 BEGIN CTAB
M  V30 COUNTS 35 37 0 0 0
M  V30 BEGIN ATOM
M  V30 1 C 1.049250 -5.472212 2.336685 0
M  V30 2 N -0.173121 -4.762866 2.634166 0
M  V30 3 C -0.516242 -3.451432 2.226609 0
M  V30 4 N 0.337292 -2.757828 1.494023 0
M  V30 5 C 0.128710 -1.510126 1.047401 0
M  V30 6 N 1.120965 -0.861266 0.265302 0
M  V30 7 C 1.096949 0.441612 -0.297828 0
M  V30 8 C 0.059455 1.339138 -0.175814 0
M  V30 9 C 0.013290 2.607439 -0.712615 0
M  V30 10 C 1.103396 3.028355 -1.442900 0
M  V30 11 C 1.115285 4.353641 -2.033846 0
M  V30 12 N 2.052018 4.948494 -2.764273 0
M  V30 13 N 1.650489 6.157142 -3.097248 0
M  V30 14 N 0.445694 6.340006 -2.576238 0
M  V30 15 N 0.112042 5.245827 -1.926608 0
M  V30 16 C 2.170502 2.171220 -1.597536 0
M  V30 17 C 2.156627 0.920188 -1.038367 0
M  V30 18 Cl 3.560543 -0.117112 -1.281685 0
M  V30 19 N -1.049634 -0.995964 1.409054 0
M  V30 20 C -1.992590 -1.596376 2.145170 0
M  V30 21 C -1.715310 -2.876001 2.571570 0
M  V30 22 C -2.688579 -3.629463 3.390424 0
M  V30 23 F -3.030657 -4.788147 2.687031 0
M  V30 24 F -3.850340 -2.903034 3.529878 0
M  V30 25 F -2.168977 -3.922211 4.638113 0
M  V30 26 H 0.803631 -6.248395 1.595935 0
M  V30 27 H 1.817982 -4.803679 1.882305 0
M  V30 28 H 1.481911 -5.916806 3.256294 0
M  V30 29 H -0.850366 -5.318609 3.217826 0
M  V30 30 H 1.992777 -1.409800 0.071929 0
M  V30 31 H -0.823757 1.073928 0.382400 0
M  V30 32 H -0.831743 3.267421 -0.581874 0
M  V30 33 H -0.793779 5.193041 -1.450896 0
M  V30 34 H 3.038849 2.482571 -2.168690 0
M  V30 35 H -2.928403 -1.100154 2.393595 0
M  V30 END ATOM
M  V30 BEGIN BOND
M  V30 1 1 1 2
M  V30 2 1 2 3
M  V30 3 2 3 4
M  V30 4 1 4 5
M  V30 5 1 5 6
M  V30 6 1 6 7
M  V30 7 2 7 8
M  V30 8 1 8 9
M  V30 9 2 9 10
M  V30 10 1 10 11
M  V30 11 2 11 12
M  V30 12 1 12 13
M  V30 13 2 13 14
M  V30 14 1 14 15
M  V30 15 1 10 16
M  V30 16 2 16 17
M  V30 17 1 17 18
M  V30 18 2 5 19
M  V30 19 1 19 20
M  V30 20 2 20 21
M  V30 21 1 21 22
M  V30 22 1 22 23
M  V30 23 1 22 24
M  V30 24 1 22 25
M  V30 25 1 21 3
M  V30 26 1 17 7
M  V30 27 1 15 11
M  V30 28 1 1 26
M  V30 29 1 1 27
M  V30 30 1 1 28
M  V30 31 1 2 29
M  V30 32 1 6 30
M  V30 33 1 8 31
M  V30 34 1 9 32
M  V30 35 1 15 33
M  V30 36 1 16 34
M  V30 37 1 20 35
M  V30 END BOND
M  V30 END CTAB
M  END
>  <Dataset>  (617) 
ChEMBL_Kinases

>  <Ligand_Instance>  (617) 
nan

>  <PDB_ID>  (617) 
nan

>  <Standardized_SMILES>  (617) 
CNc1nc(Nc2ccc(-c3nnn[nH]3)cc2Cl)ncc1C(F)(F)F

>  <Name>  (617) 
nan

>  <Pocket>  (617) 
nan

>  <ATP_Site>  (617) 
nan

>  <Peripheral>  (617) 
nan

>  <Num_H_Atoms_ProtBoundConf>  (617) 
nan

>  <Num_Resolved_Atoms>  (617) 
nan

>  <Num_Not_Resolved_Atoms>  (617) 
nan

$$$$
CHEMBL3676108
     RDKit          3D

  0  0  0  0  0  0  0  0  0  0999 V3000
M  V30 BEGIN CTAB
M  V30 COUNTS 38 40 0 0 0
M  V30 BEGIN ATOM
M  V30 1 C -0.068376 -4.315476 3.842830 0
M  V30 2 N -1.457606 -3.993753 3.533536 0
M  V30 3 C -1.823895 -3.311530 2.343203 0
M  V30 4 N -0.870492 -2.946840 1.456553 0
M  V30 5 C -1.114608 -2.307149 0.298864 0
M  V30 6 N 0.030030 -2.004496 -0.496642 0
M  V30 7 C 0.572437 -0.699362 -0.750338 0
M  V30 8 C -0.121666 0.398398 -0.278185 0
M  V30 9 C 0.389283 1.678245 -0.542615 0
M  V30 10 C 1.563275 1.715944 -1.265640 0
M  V30 11 C 2.180338 3.026852 -1.587105 0
M  V30 12 N 2.254694 4.094573 -2.441417 0
M  V30 13 N 3.134896 4.966567 -1.990623 0
M  V30 14 N 3.651078 4.515110 -0.859953 0
M  V30 15 C 4.659725 5.029356 0.092505 0
M  V30 16 N 3.072250 3.359478 -0.634490 0
M  V30 17 C 2.282318 0.644368 -1.751285 0
M  V30 18 C 1.753398 -0.614569 -1.475784 0
M  V30 19 Cl 2.587179 -2.053255 -2.036823 0
M  V30 20 N -2.407277 -2.007321 0.001991 0
M  V30 21 C -3.373669 -2.359218 0.866505 0
M  V30 22 C -3.131909 -3.010913 2.047912 0
M  V30 23 C -4.155843 -3.420361 3.039683 0
M  V30 24 F -5.404966 -3.039675 2.579109 0
M  V30 25 F -3.988717 -2.771462 4.249927 0
M  V30 26 F -4.172471 -4.790752 3.199054 0
M  V30 27 H 0.444656 -4.704374 2.929525 0
M  V30 28 H -0.045141 -5.189151 4.559424 0
M  V30 29 H 0.481422 -3.506875 4.338482 0
M  V30 30 H -2.178220 -4.283701 4.227522 0
M  V30 31 H 0.413980 -2.885847 -0.881404 0
M  V30 32 H -1.036558 0.368871 0.280179 0
M  V30 33 H -0.066922 2.605741 -0.230131 0
M  V30 34 H 4.141417 5.004986 1.098293 0
M  V30 35 H 4.975917 6.052675 -0.183091 0
M  V30 36 H 5.494036 4.303550 0.188387 0
M  V30 37 H 3.202200 0.747164 -2.307014 0
M  V30 38 H -4.391475 -2.116931 0.621238 0
M  V30 END ATOM
M  V30 BEGIN BOND
M  V30 1 1 1 2
M  V30 2 1 2 3
M  V30 3 2 3 4
M  V30 4 1 4 5
M  V30 5 1 5 6
M  V30 6 1 6 7
M  V30 7 2 7 8
M  V30 8 1 8 9
M  V30 9 2 9 10
M  V30 10 1 10 11
M  V30 11 1 11 12
M  V30 12 2 12 13
M  V30 13 1 13 14
M  V30 14 1 14 15
M  V30 15 1 14 16
M  V30 16 1 10 17
M  V30 17 2 17 18
M  V30 18 1 18 19
M  V30 19 2 5 20
M  V30 20 1 20 21
M  V30 21 2 21 22
M  V30 22 1 22 23
M  V30 23 1 23 24
M  V30 24 1 23 25
M  V30 25 1 23 26
M  V30 26 1 22 3
M  V30 27 1 18 7
M  V30 28 2 16 11
M  V30 29 1 1 27
M  V30 30 1 1 28
M  V30 31 1 1 29
M  V30 32 1 2 30
M  V30 33 1 6 31
M  V30 34 1 8 32
M  V30 35 1 9 33
M  V30 36 1 15 34
M  V30 37 1 15 35
M  V30 38 1 15 36
M  V30 39 1 17 37
M  V30 40 1 21 38
M  V30 END BOND
M  V30 END CTAB
M  END
>  <Dataset>  (618) 
ChEMBL_Kinases

>  <Ligand_Instance>  (618) 
nan

>  <PDB_ID>  (618) 
nan

>  <Standardized_SMILES>  (618) 
CNc1nc(Nc2ccc(-c3nnn(C)n3)cc2Cl)ncc1C(F)(F)F

>  <Name>  (618) 
nan

>  <Pocket>  (618) 
nan

>  <ATP_Site>  (618) 
nan

>  <Peripheral>  (618) 
nan

>  <Num_H_Atoms_ProtBoundConf>  (618) 
nan

>  <Num_Resolved_Atoms>  (618) 
nan

>  <Num_Not_Resolved_Atoms>  (618) 
nan

$$$$
CHEMBL3676109
     RDKit          3D

  0  0  0  0  0  0  0  0  0  0999 V3000
M  V30 BEGIN CTAB
M  V30 COUNTS 40 42 0 0 0
M  V30 BEGIN ATOM
M  V30 1 C -1.114096 -4.415901 3.199113 0
M  V30 2 N -1.815257 -4.524350 1.923237 0
M  V30 3 C -1.355096 -3.767755 0.801702 0
M  V30 4 N -0.295457 -2.956182 0.897353 0
M  V30 5 C 0.225222 -2.207353 -0.069950 0
M  V30 6 N 1.342001 -1.429164 0.329084 0
M  V30 7 C 1.275059 -0.004776 0.407392 0
M  V30 8 C 0.077533 0.594598 -0.019551 0
M  V30 9 C -0.003892 1.971165 0.023693 0
M  V30 10 C 1.035367 2.717014 0.462878 0
M  V30 11 N 0.870003 4.133305 0.478077 0
M  V30 12 C -0.229813 4.864886 0.726114 0
M  V30 13 N 0.081724 6.169901 0.632997 0
M  V30 14 C 1.387918 6.251458 0.324150 0
M  V30 15 N 1.870717 4.981763 0.229457 0
M  V30 16 C 2.243535 2.173928 0.897064 0
M  V30 17 C 2.331499 0.798930 0.856692 0
M  V30 18 O 3.437382 0.077488 1.244779 0
M  V30 19 C 4.653504 0.584729 1.739458 0
M  V30 20 N -0.405700 -2.295941 -1.275473 0
M  V30 21 C -1.480677 -3.102985 -1.419525 0
M  V30 22 C -2.003000 -3.862350 -0.422866 0
M  V30 23 C -3.179637 -4.762834 -0.531442 0
M  V30 24 F -2.762890 -6.062279 -0.229591 0
M  V30 25 F -4.207720 -4.374303 0.310971 0
M  V30 26 F -3.677290 -4.786521 -1.807845 0
M  V30 27 H -0.049981 -4.692900 3.042687 0
M  V30 28 H -1.524388 -5.160161 3.904307 0
M  V30 29 H -1.186230 -3.420030 3.652826 0
M  V30 30 H -2.640843 -5.151012 1.852960 0
M  V30 31 H 2.205989 -1.942528 0.560670 0
M  V30 32 H -0.729146 -0.040046 -0.364631 0
M  V30 33 H -0.966291 2.349156 -0.327555 0
M  V30 34 H -1.144342 4.331474 0.949378 0
M  V30 35 H 1.878045 7.209878 0.195369 0
M  V30 36 H 3.057607 2.775993 1.240289 0
M  V30 37 H 4.961975 0.085373 2.690078 0
M  V30 38 H 4.510052 1.644957 2.023916 0
M  V30 39 H 5.480329 0.535487 0.971550 0
M  V30 40 H -1.950236 -3.140558 -2.393986 0
M  V30 END ATOM
M  V30 BEGIN BOND
M  V30 1 1 1 2
M  V30 2 1 2 3
M  V30 3 2 3 4
M  V30 4 1 4 5
M  V30 5 1 5 6
M  V30 6 1 6 7
M  V30 7 2 7 8
M  V30 8 1 8 9
M  V30 9 2 9 10
M  V30 10 1 10 11
M  V30 11 1 11 12
M  V30 12 2 12 13
M  V30 13 1 13 14
M  V30 14 2 14 15
M  V30 15 1 10 16
M  V30 16 2 16 17
M  V30 17 1 17 18
M  V30 18 1 18 19
M  V30 19 2 5 20
M  V30 20 1 20 21
M  V30 21 2 21 22
M  V30 22 1 22 23
M  V30 23 1 23 24
M  V30 24 1 23 25
M  V30 25 1 23 26
M  V30 26 1 22 3
M  V30 27 1 17 7
M  V30 28 1 15 11
M  V30 29 1 1 27
M  V30 30 1 1 28
M  V30 31 1 1 29
M  V30 32 1 2 30
M  V30 33 1 6 31
M  V30 34 1 8 32
M  V30 35 1 9 33
M  V30 36 1 12 34
M  V30 37 1 14 35
M  V30 38 1 16 36
M  V30 39 1 19 37
M  V30 40 1 19 38
M  V30 41 1 19 39
M  V30 42 1 21 40
M  V30 END BOND
M  V30 END CTAB
M  END
>  <Dataset>  (619) 
ChEMBL_Kinases

>  <Ligand_Instance>  (619) 
nan

>  <PDB_ID>  (619) 
nan

>  <Standardized_SMILES>  (619) 
CNc1nc(Nc2ccc(-n3cncn3)cc2OC)ncc1C(F)(F)F

>  <Name>  (619) 
nan

>  <Pocket>  (619) 
nan

>  <ATP_Site>  (619) 
nan

>  <Peripheral>  (619) 
nan

>  <Num_H_Atoms_ProtBoundConf>  (619) 
nan

>  <Num_Resolved_Atoms>  (619) 
nan

>  <Num_Not_Resolved_Atoms>  (619) 
nan

$$$$
CHEMBL3675717
     RDKit          3D

  0  0  0  0  0  0  0  0  0  0999 V3000
M  V30 BEGIN CTAB
M  V30 COUNTS 56 59 0 0 0
M  V30 BEGIN ATOM
M  V30 1 O -2.505884 -4.560289 3.078259 0
M  V30 2 C -2.104157 -3.476967 2.600452 0
M  V30 3 C -0.894115 -3.143526 3.038074 0
M  V30 4 C 0.135920 -2.325227 3.068773 0
M  V30 5 C 1.200274 -1.399280 3.047536 0
M  V30 6 C 2.041877 -2.117352 3.935571 0
M  V30 7 C 3.330146 -1.718755 4.346696 0
M  V30 8 N 3.730338 -0.548086 3.812544 0
M  V30 9 C 2.962424 0.152137 2.974226 0
M  V30 10 N 3.222717 1.389664 2.328263 0
M  V30 11 C 2.429798 2.180974 1.436356 0
M  V30 12 C 3.163512 3.442887 1.036308 0
M  V30 13 C 2.780644 3.807330 -0.368106 0
M  V30 14 O 1.406733 3.568124 -0.578257 0
M  V30 15 C 1.163317 2.199790 -0.686807 0
M  V30 16 C 2.140345 1.402098 0.167130 0
M  V30 17 N 1.763925 -0.271064 2.623677 0
M  V30 18 C -0.569323 -1.395519 2.094435 0
M  V30 19 C -1.857530 -1.475172 1.452416 0
M  V30 20 N -2.602873 -2.579675 1.758401 0
M  V30 21 C -3.908088 -2.922771 1.286679 0
M  V30 22 C -3.885144 -3.758956 0.030608 0
M  V30 23 C -3.231754 -3.137078 -1.115229 0
M  V30 24 C -1.884075 -3.390240 -1.278839 0
M  V30 25 C -1.229751 -2.807143 -2.350831 0
M  V30 26 C -1.947791 -2.000128 -3.208180 0
M  V30 27 O -1.323819 -1.392105 -4.302653 0
M  V30 28 C -0.727863 -0.113335 -4.191726 0
M  V30 29 F 0.286186 -0.092174 -3.261350 0
M  V30 30 F -0.186715 0.216808 -5.411556 0
M  V30 31 F -1.659255 0.836672 -3.792403 0
M  V30 32 C -3.311849 -1.762569 -3.016248 0
M  V30 33 C -3.992661 -2.340863 -1.941219 0
M  V30 34 H -0.275384 -3.758756 3.765055 0
M  V30 35 H 1.983621 -3.071952 4.507222 0
M  V30 36 H 4.115470 -2.083104 4.982532 0
M  V30 37 H 4.171519 1.726324 2.591315 0
M  V30 38 H 1.513114 2.476346 1.961605 0
M  V30 39 H 4.266699 3.322815 1.058438 0
M  V30 40 H 2.893167 4.267155 1.693827 0
M  V30 41 H 3.405005 3.226454 -1.083116 0
M  V30 42 H 3.026500 4.872453 -0.527886 0
M  V30 43 H 0.141239 1.901964 -0.432751 0
M  V30 44 H 1.314777 1.913959 -1.748077 0
M  V30 45 H 1.653935 0.434529 0.356175 0
M  V30 46 H 3.047112 1.272338 -0.449316 0
M  V30 47 H -0.355980 -0.386677 1.562402 0
M  V30 48 H -2.462542 -0.890490 0.753536 0
M  V30 49 H -4.510353 -3.468216 2.032186 0
M  V30 50 H -4.501211 -1.989329 1.074456 0
M  V30 51 H -3.435317 -4.769648 0.224006 0
M  V30 52 H -4.940883 -3.959728 -0.215665 0
M  V30 53 H -1.305536 -4.016753 -0.622331 0
M  V30 54 H -0.175026 -3.006936 -2.478312 0
M  V30 55 H -3.844423 -1.118319 -3.715537 0
M  V30 56 H -5.037505 -2.168507 -1.779922 0
M  V30 END ATOM
M  V30 BEGIN BOND
M  V30 1 2 1 2
M  V30 2 1 2 3
M  V30 3 2 3 4
M  V30 4 1 4 5
M  V30 5 2 5 6
M  V30 6 1 6 7
M  V30 7 2 7 8
M  V30 8 1 8 9
M  V30 9 1 9 10
M  V30 10 1 10 11
M  V30 11 1 11 12
M  V30 12 1 12 13
M  V30 13 1 13 14
M  V30 14 1 14 15
M  V30 15 1 15 16
M  V30 16 2 9 17
M  V30 17 1 4 18
M  V30 18 2 18 19
M  V30 19 1 19 20
M  V30 20 1 20 21
M  V30 21 1 21 22
M  V30 22 1 22 23
M  V30 23 2 23 24
M  V30 24 1 24 25
M  V30 25 2 25 26
M  V30 26 1 26 27
M  V30 27 1 27 28
M  V30 28 1 28 29
M  V30 29 1 28 30
M  V30 30 1 28 31
M  V30 31 1 26 32
M  V30 32 2 32 33
M  V30 33 1 20 2
M  V30 34 1 33 23
M  V30 35 1 17 5
M  V30 36 1 16 11
M  V30 37 1 3 34
M  V30 38 1 6 35
M  V30 39 1 7 36
M  V30 40 1 10 37
M  V30 41 1 11 38
M  V30 42 1 12 39
M  V30 43 1 12 40
M  V30 44 1 13 41
M  V30 45 1 13 42
M  V30 46 1 15 43
M  V30 47 1 15 44
M  V30 48 1 16 45
M  V30 49 1 16 46
M  V30 50 1 18 47
M  V30 51 1 19 48
M  V30 52 1 21 49
M  V30 53 1 21 50
M  V30 54 1 22 51
M  V30 55 1 22 52
M  V30 56 1 24 53
M  V30 57 1 25 54
M  V30 58 1 32 55
M  V30 59 1 33 56
M  V30 END BOND
M  V30 END CTAB
M  END
>  <Dataset>  (620) 
ChEMBL_Kinases

>  <Ligand_Instance>  (620) 
nan

>  <PDB_ID>  (620) 
nan

>  <Standardized_SMILES>  (620) 
O=c1cc(-c2ccnc(NC3CCOCC3)n2)ccn1CCc1ccc(OC(F)(F)F)cc1

>  <Name>  (620) 
nan

>  <Pocket>  (620) 
nan

>  <ATP_Site>  (620) 
nan

>  <Peripheral>  (620) 
nan

>  <Num_H_Atoms_ProtBoundConf>  (620) 
nan

>  <Num_Resolved_Atoms>  (620) 
nan

>  <Num_Not_Resolved_Atoms>  (620) 
nan

$$$$
CHEMBL3679584
     RDKit          3D

  0  0  0  0  0  0  0  0  0  0999 V3000
M  V30 BEGIN CTAB
M  V30 COUNTS 54 57 0 0 0
M  V30 BEGIN ATOM
M  V30 1 C 4.084202 -1.852408 -0.683760 0
M  V30 2 O 3.070186 -1.624085 0.275286 0
M  V30 3 C 1.755057 -1.847264 -0.006249 0
M  V30 4 O 2.167013 -2.194095 -1.139407 0
M  V30 5 C 0.520530 -1.723809 0.714580 0
M  V30 6 C 0.554666 -1.250707 2.003754 0
M  V30 7 C 1.690459 -0.692610 2.750271 0
M  V30 8 N 1.910759 0.720906 2.564256 0
M  V30 9 C 2.158326 1.698962 1.590177 0
M  V30 10 O 2.224161 1.269918 0.433632 0
M  V30 11 C 2.336798 3.112823 1.805329 0
M  V30 12 C 2.556677 3.875121 0.683018 0
M  V30 13 C 2.734564 5.246326 0.843254 0
M  V30 14 C 2.703234 5.890086 2.068146 0
M  V30 15 N 2.486839 5.109461 3.132501 0
M  V30 16 C 2.313146 3.786351 2.998517 0
M  V30 17 C -0.702750 -1.259538 2.619538 0
M  V30 18 O -0.786979 -0.846707 3.810058 0
M  V30 19 C -1.865994 -1.688422 2.019430 0
M  V30 20 C -3.060763 -1.649505 2.732119 0
M  V30 21 C -4.196963 -2.089841 2.083590 0
M  V30 22 C -4.143074 -2.549111 0.779672 0
M  V30 23 O -5.227164 -3.010790 0.044583 0
M  V30 24 C -6.485177 -3.008608 0.686707 0
M  V30 25 C -2.935341 -2.566558 0.119445 0
M  V30 26 C -1.765171 -2.137703 0.719550 0
M  V30 27 N -0.581449 -2.152061 0.081738 0
M  V30 28 C -0.538701 -2.626441 -1.257044 0
M  V30 29 C -0.669378 -1.561694 -2.153922 0
M  V30 30 C -0.658643 -1.780039 -3.531393 0
M  V30 31 C -0.515897 -3.071974 -3.983904 0
M  V30 32 C -0.386143 -4.130779 -3.092477 0
M  V30 33 C -0.398089 -3.902207 -1.725513 0
M  V30 34 H 4.175393 -2.930659 -0.957943 0
M  V30 35 H 5.046282 -1.600644 -0.150019 0
M  V30 36 H 4.015294 -1.196633 -1.563790 0
M  V30 37 H 2.628854 -1.276591 2.549100 0
M  V30 38 H 1.492837 -0.886186 3.819203 0
M  V30 39 H 1.879968 1.249882 3.503426 0
M  V30 40 H 2.600820 3.482856 -0.327510 0
M  V30 41 H 2.907772 5.841227 -0.036293 0
M  V30 42 H 2.845653 6.961102 2.148267 0
M  V30 43 H 2.143776 3.214219 3.888942 0
M  V30 44 H -3.105065 -1.285906 3.757708 0
M  V30 45 H -5.166424 -2.092863 2.568179 0
M  V30 46 H -6.681444 -1.976007 1.048830 0
M  V30 47 H -6.477616 -3.644540 1.608907 0
M  V30 48 H -7.296438 -3.368759 0.031935 0
M  V30 49 H -2.842959 -2.917343 -0.904841 0
M  V30 50 H -0.787730 -0.503306 -1.906212 0
M  V30 51 H -0.756756 -0.986148 -4.262079 0
M  V30 52 H -0.501964 -3.287746 -5.048370 0
M  V30 53 H -0.272092 -5.169772 -3.401037 0
M  V30 54 H -0.306144 -4.642631 -0.943187 0
M  V30 END ATOM
M  V30 BEGIN BOND
M  V30 1 1 1 2
M  V30 2 1 2 3
M  V30 3 2 3 4
M  V30 4 1 3 5
M  V30 5 2 5 6
M  V30 6 1 6 7
M  V30 7 1 7 8
M  V30 8 1 8 9
M  V30 9 2 9 10
M  V30 10 1 9 11
M  V30 11 2 11 12
M  V30 12 1 12 13
M  V30 13 2 13 14
M  V30 14 1 14 15
M  V30 15 2 15 16
M  V30 16 1 6 17
M  V30 17 2 17 18
M  V30 18 1 17 19
M  V30 19 2 19 20
M  V30 20 1 20 21
M  V30 21 2 21 22
M  V30 22 1 22 23
M  V30 23 1 23 24
M  V30 24 1 22 25
M  V30 25 2 25 26
M  V30 26 1 26 27
M  V30 27 1 27 28
M  V30 28 2 28 29
M  V30 29 1 29 30
M  V30 30 2 30 31
M  V30 31 1 31 32
M  V30 32 2 32 33
M  V30 33 1 27 5
M  V30 34 1 33 28
M  V30 35 1 16 11
M  V30 36 1 26 19
M  V30 37 1 1 34
M  V30 38 1 1 35
M  V30 39 1 1 36
M  V30 40 1 7 37
M  V30 41 1 7 38
M  V30 42 1 8 39
M  V30 43 1 12 40
M  V30 44 1 13 41
M  V30 45 1 14 42
M  V30 46 1 16 43
M  V30 47 1 20 44
M  V30 48 1 21 45
M  V30 49 1 24 46
M  V30 50 1 24 47
M  V30 51 1 24 48
M  V30 52 1 25 49
M  V30 53 1 29 50
M  V30 54 1 30 51
M  V30 55 1 31 52
M  V30 56 1 32 53
M  V30 57 1 33 54
M  V30 END BOND
M  V30 END CTAB
M  END
>  <Dataset>  (621) 
ChEMBL_Kinases

>  <Ligand_Instance>  (621) 
nan

>  <PDB_ID>  (621) 
nan

>  <Standardized_SMILES>  (621) 
COC(=O)c1c(CNC(=O)c2cccnc2)c(=O)c2ccc(OC)cc2n1-c1ccccc1

>  <Name>  (621) 
nan

>  <Pocket>  (621) 
nan

>  <ATP_Site>  (621) 
nan

>  <Peripheral>  (621) 
nan

>  <Num_H_Atoms_ProtBoundConf>  (621) 
nan

>  <Num_Resolved_Atoms>  (621) 
nan

>  <Num_Not_Resolved_Atoms>  (621) 
nan

$$$$
CHEMBL3679583
     RDKit          3D

  0  0  0  0  0  0  0  0  0  0999 V3000
M  V30 BEGIN CTAB
M  V30 COUNTS 59 62 0 0 0
M  V30 BEGIN ATOM
M  V30 1 C -2.641277 0.948928 3.039811 0
M  V30 2 O -1.587050 0.080705 2.764500 0
M  V30 3 C -1.602546 -0.876771 1.766017 0
M  V30 4 O -2.765435 -0.555075 1.412585 0
M  V30 5 C -0.660501 -1.873131 1.292563 0
M  V30 6 C 0.574653 -1.992348 1.891891 0
M  V30 7 C 1.052646 -1.170319 3.004331 0
M  V30 8 N 1.455930 0.160322 2.673283 0
M  V30 9 C 2.455070 0.580736 1.791019 0
M  V30 10 O 3.124597 -0.287690 1.174942 0
M  V30 11 C 2.810951 1.963837 1.503558 0
M  V30 12 C 3.825209 2.223379 0.605790 0
M  V30 13 C 4.219617 3.524349 0.282607 0
M  V30 14 C 3.597956 4.610171 0.859737 0
M  V30 15 O 4.007650 5.879212 0.522227 0
M  V30 16 C 3.408395 7.008041 1.080018 0
M  V30 17 C 2.580562 4.371794 1.760732 0
M  V30 18 C 2.215579 3.077447 2.057834 0
M  V30 19 C 1.344050 -3.003931 1.315083 0
M  V30 20 O 2.496492 -3.249748 1.739353 0
M  V30 21 C 0.930843 -3.799806 0.266709 0
M  V30 22 C 1.729347 -4.784119 -0.265665 0
M  V30 23 C 1.282917 -5.562222 -1.315291 0
M  V30 24 C 0.014980 -5.351996 -1.841856 0
M  V30 25 O -0.372885 -6.168911 -2.896660 0
M  V30 26 C -1.662759 -5.981683 -3.459254 0
M  V30 27 C -0.774324 -4.359751 -1.296039 0
M  V30 28 C -0.338835 -3.569479 -0.240498 0
M  V30 29 N -1.124004 -2.603997 0.280789 0
M  V30 30 C -2.396214 -2.454141 -0.309428 0
M  V30 31 C -3.401518 -3.241563 0.239494 0
M  V30 32 C -4.673778 -3.140735 -0.296054 0
M  V30 33 C -5.018967 -2.308443 -1.343692 0
M  V30 34 C -3.983173 -1.540720 -1.860386 0
M  V30 35 C -2.701779 -1.601355 -1.366921 0
M  V30 36 H -2.676262 1.782623 2.327584 0
M  V30 37 H -3.626707 0.432311 3.115200 0
M  V30 38 H -2.456863 1.368694 4.057567 0
M  V30 39 H 1.984519 -1.678769 3.396295 0
M  V30 40 H 0.352979 -1.206857 3.853267 0
M  V30 41 H 0.962135 0.980691 3.136042 0
M  V30 42 H 4.380997 1.434093 0.093610 0
M  V30 43 H 5.028756 3.686822 -0.434531 0
M  V30 44 H 3.158767 6.913760 2.150049 0
M  V30 45 H 2.485380 7.322508 0.518118 0
M  V30 46 H 4.085017 7.895921 0.982968 0
M  V30 47 H 2.073215 5.188476 2.230272 0
M  V30 48 H 1.417246 2.921999 2.765281 0
M  V30 49 H 2.724717 -4.944037 0.152858 0
M  V30 50 H 1.919193 -6.335971 -1.728821 0
M  V30 51 H -1.997614 -6.843164 -4.060791 0
M  V30 52 H -1.620909 -5.027497 -4.044181 0
M  V30 53 H -2.453778 -5.828094 -2.691247 0
M  V30 54 H -1.743508 -4.195052 -1.694358 0
M  V30 55 H -3.217772 -3.927863 1.069915 0
M  V30 56 H -5.458888 -3.761901 0.139409 0
M  V30 57 H -6.011833 -2.251650 -1.737019 0
M  V30 58 H -4.193957 -0.867554 -2.685200 0
M  V30 59 H -1.868362 -1.025413 -1.735867 0
M  V30 END ATOM
M  V30 BEGIN BOND
M  V30 1 1 1 2
M  V30 2 1 2 3
M  V30 3 2 3 4
M  V30 4 1 3 5
M  V30 5 2 5 6
M  V30 6 1 6 7
M  V30 7 1 7 8
M  V30 8 1 8 9
M  V30 9 2 9 10
M  V30 10 1 9 11
M  V30 11 2 11 12
M  V30 12 1 12 13
M  V30 13 2 13 14
M  V30 14 1 14 15
M  V30 15 1 15 16
M  V30 16 1 14 17
M  V30 17 2 17 18
M  V30 18 1 6 19
M  V30 19 2 19 20
M  V30 20 1 19 21
M  V30 21 2 21 22
M  V30 22 1 22 23
M  V30 23 2 23 24
M  V30 24 1 24 25
M  V30 25 1 25 26
M  V30 26 1 24 27
M  V30 27 2 27 28
M  V30 28 1 28 29
M  V30 29 1 29 30
M  V30 30 2 30 31
M  V30 31 1 31 32
M  V30 32 2 32 33
M  V30 33 1 33 34
M  V30 34 2 34 35
M  V30 35 1 29 5
M  V30 36 1 35 30
M  V30 37 1 18 11
M  V30 38 1 28 21
M  V30 39 1 1 36
M  V30 40 1 1 37
M  V30 41 1 1 38
M  V30 42 1 7 39
M  V30 43 1 7 40
M  V30 44 1 8 41
M  V30 45 1 12 42
M  V30 46 1 13 43
M  V30 47 1 16 44
M  V30 48 1 16 45
M  V30 49 1 16 46
M  V30 50 1 17 47
M  V30 51 1 18 48
M  V30 52 1 22 49
M  V30 53 1 23 50
M  V30 54 1 26 51
M  V30 55 1 26 52
M  V30 56 1 26 53
M  V30 57 1 27 54
M  V30 58 1 31 55
M  V30 59 1 32 56
M  V30 60 1 33 57
M  V30 61 1 34 58
M  V30 62 1 35 59
M  V30 END BOND
M  V30 END CTAB
M  END
>  <Dataset>  (622) 
ChEMBL_Kinases

>  <Ligand_Instance>  (622) 
nan

>  <PDB_ID>  (622) 
nan

>  <Standardized_SMILES>  (622) 
COC(=O)c1c(CNC(=O)c2ccc(OC)cc2)c(=O)c2ccc(OC)cc2n1-c1ccccc1

>  <Name>  (622) 
nan

>  <Pocket>  (622) 
nan

>  <ATP_Site>  (622) 
nan

>  <Peripheral>  (622) 
nan

>  <Num_H_Atoms_ProtBoundConf>  (622) 
nan

>  <Num_Resolved_Atoms>  (622) 
nan

>  <Num_Not_Resolved_Atoms>  (622) 
nan

$$$$
CHEMBL3679582
     RDKit          3D

  0  0  0  0  0  0  0  0  0  0999 V3000
M  V30 BEGIN CTAB
M  V30 COUNTS 67 70 0 0 0
M  V30 BEGIN ATOM
M  V30 1 C 1.377747 2.652408 3.202954 0
M  V30 2 O 1.235150 1.264790 3.212092 0
M  V30 3 C 1.766470 0.387795 2.275309 0
M  V30 4 O 2.303977 1.258905 1.590444 0
M  V30 5 C 1.611481 -1.035854 2.297812 0
M  V30 6 C 2.188618 -1.793861 1.302895 0
M  V30 7 C 2.978570 -1.243126 0.177563 0
M  V30 8 N 2.164364 -0.608396 -0.840936 0
M  V30 9 C 1.134835 -1.144408 -1.644842 0
M  V30 10 O 0.860691 -2.361090 -1.471067 0
M  V30 11 C 0.416249 -0.371480 -2.620131 0
M  V30 12 C 0.593322 0.951385 -2.925872 0
M  V30 13 C -0.146706 1.612989 -3.881075 0
M  V30 14 C -1.133522 0.949650 -4.597295 0
M  V30 15 C -1.911978 1.684687 -5.615630 0
M  V30 16 C -1.204616 1.571100 -6.949214 0
M  V30 17 C -1.944863 3.167007 -5.226948 0
M  V30 18 C -3.314144 1.181460 -5.744816 0
M  V30 19 C -1.353782 -0.371573 -4.333920 0
M  V30 20 C -0.586316 -0.984340 -3.369704 0
M  V30 21 C 1.962063 -3.168214 1.451650 0
M  V30 22 O 2.430263 -3.985833 0.617349 0
M  V30 23 C 1.234210 -3.711390 2.488649 0
M  V30 24 C 1.033987 -5.070076 2.598031 0
M  V30 25 C 0.302044 -5.571566 3.646396 0
M  V30 26 C -0.250518 -4.756611 4.611118 0
M  V30 27 O -1.005289 -5.098525 5.717116 0
M  V30 28 C -1.352163 -6.412799 6.056161 0
M  V30 29 C -0.018193 -3.388382 4.454031 0
M  V30 30 C 0.704070 -2.853245 3.425452 0
M  V30 31 N 0.895641 -1.526658 3.324051 0
M  V30 32 C 0.323745 -0.667129 4.325669 0
M  V30 33 C 0.884599 -0.248882 5.493646 0
M  V30 34 C 0.147959 0.580558 6.310923 0
M  V30 35 C -1.125477 0.986273 5.970392 0
M  V30 36 C -1.707925 0.560261 4.771759 0
M  V30 37 C -0.961820 -0.270410 3.960027 0
M  V30 38 H 0.520165 3.058527 3.802785 0
M  V30 39 H 2.356579 2.961800 3.644640 0
M  V30 40 H 1.230441 3.027459 2.174042 0
M  V30 41 H 3.438902 -2.127512 -0.360757 0
M  V30 42 H 3.827531 -0.638781 0.486038 0
M  V30 43 H 2.371252 0.409716 -1.011207 0
M  V30 44 H 1.355069 1.494217 -2.384005 0
M  V30 45 H 0.064473 2.660176 -4.054467 0
M  V30 46 H -1.968858 1.582615 -7.747255 0
M  V30 47 H -0.637120 0.605547 -6.994987 0
M  V30 48 H -0.551847 2.440939 -7.080317 0
M  V30 49 H -2.899414 3.567408 -5.620821 0
M  V30 50 H -1.925987 3.267245 -4.122537 0
M  V30 51 H -1.080018 3.656656 -5.724930 0
M  V30 52 H -3.428013 0.498376 -6.613269 0
M  V30 53 H -3.964613 2.069520 -5.987818 0
M  V30 54 H -3.697135 0.740280 -4.792457 0
M  V30 55 H -2.111043 -0.899218 -4.876634 0
M  V30 56 H -0.811881 -2.039347 -3.207644 0
M  V30 57 H 1.443022 -5.749931 1.872810 0
M  V30 58 H 0.114060 -6.618583 3.782646 0
M  V30 59 H -0.786924 -6.671428 6.998169 0
M  V30 60 H -2.451319 -6.406863 6.285447 0
M  V30 61 H -1.175674 -7.142102 5.256395 0
M  V30 62 H -0.420596 -2.665862 5.175449 0
M  V30 63 H 1.882450 -0.616931 5.674849 0
M  V30 64 H 0.647945 0.882593 7.231381 0
M  V30 65 H -1.675939 1.641872 6.642126 0
M  V30 66 H -2.701615 0.902161 4.549041 0
M  V30 67 H -1.485874 -0.556184 3.048018 0
M  V30 END ATOM
M  V30 BEGIN BOND
M  V30 1 1 1 2
M  V30 2 1 2 3
M  V30 3 2 3 4
M  V30 4 1 3 5
M  V30 5 2 5 6
M  V30 6 1 6 7
M  V30 7 1 7 8
M  V30 8 1 8 9
M  V30 9 2 9 10
M  V30 10 1 9 11
M  V30 11 2 11 12
M  V30 12 1 12 13
M  V30 13 2 13 14
M  V30 14 1 14 15
M  V30 15 1 15 16
M  V30 16 1 15 17
M  V30 17 1 15 18
M  V30 18 1 14 19
M  V30 19 2 19 20
M  V30 20 1 6 21
M  V30 21 2 21 22
M  V30 22 1 21 23
M  V30 23 2 23 24
M  V30 24 1 24 25
M  V30 25 2 25 26
M  V30 26 1 26 27
M  V30 27 1 27 28
M  V30 28 1 26 29
M  V30 29 2 29 30
M  V30 30 1 30 31
M  V30 31 1 31 32
M  V30 32 2 32 33
M  V30 33 1 33 34
M  V30 34 2 34 35
M  V30 35 1 35 36
M  V30 36 2 36 37
M  V30 37 1 31 5
M  V30 38 1 37 32
M  V30 39 1 20 11
M  V30 40 1 30 23
M  V30 41 1 1 38
M  V30 42 1 1 39
M  V30 43 1 1 40
M  V30 44 1 7 41
M  V30 45 1 7 42
M  V30 46 1 8 43
M  V30 47 1 12 44
M  V30 48 1 13 45
M  V30 49 1 16 46
M  V30 50 1 16 47
M  V30 51 1 16 48
M  V30 52 1 17 49
M  V30 53 1 17 50
M  V30 54 1 17 51
M  V30 55 1 18 52
M  V30 56 1 18 53
M  V30 57 1 18 54
M  V30 58 1 19 55
M  V30 59 1 20 56
M  V30 60 1 24 57
M  V30 61 1 25 58
M  V30 62 1 28 59
M  V30 63 1 28 60
M  V30 64 1 28 61
M  V30 65 1 29 62
M  V30 66 1 33 63
M  V30 67 1 34 64
M  V30 68 1 35 65
M  V30 69 1 36 66
M  V30 70 1 37 67
M  V30 END BOND
M  V30 END CTAB
M  END
>  <Dataset>  (623) 
ChEMBL_Kinases

>  <Ligand_Instance>  (623) 
nan

>  <PDB_ID>  (623) 
nan

>  <Standardized_SMILES>  (623) 
COC(=O)c1c(CNC(=O)c2ccc(C(C)(C)C)cc2)c(=O)c2ccc(OC)cc2n1-c1ccccc1

>  <Name>  (623) 
nan

>  <Pocket>  (623) 
nan

>  <ATP_Site>  (623) 
nan

>  <Peripheral>  (623) 
nan

>  <Num_H_Atoms_ProtBoundConf>  (623) 
nan

>  <Num_Resolved_Atoms>  (623) 
nan

>  <Num_Not_Resolved_Atoms>  (623) 
nan

$$$$
CHEMBL3679581
     RDKit          3D

  0  0  0  0  0  0  0  0  0  0999 V3000
M  V30 BEGIN CTAB
M  V30 COUNTS 55 58 0 0 0
M  V30 BEGIN ATOM
M  V30 1 C 0.173811 1.548536 4.049698 0
M  V30 2 O -0.273844 0.724264 3.123806 0
M  V30 3 C -0.740999 -0.047500 2.233775 0
M  V30 4 O -1.496050 0.839223 2.634127 0
M  V30 5 C -0.406644 -1.191906 1.408929 0
M  V30 6 C 0.840751 -1.758012 1.518920 0
M  V30 7 C 1.895573 -1.293944 2.417695 0
M  V30 8 N 2.582911 -0.106809 2.024254 0
M  V30 9 C 3.334165 0.132545 0.846219 0
M  V30 10 O 3.442231 -0.791391 -0.001342 0
M  V30 11 C 4.010277 1.379489 0.515675 0
M  V30 12 C 4.701866 1.451888 -0.675412 0
M  V30 13 C 5.372649 2.624920 -1.048968 0
M  V30 14 C 5.351389 3.730944 -0.226906 0
M  V30 15 F 5.998697 4.875628 -0.577646 0
M  V30 16 C 4.660920 3.700306 0.991721 0
M  V30 17 F 4.609629 4.757904 1.831711 0
M  V30 18 C 4.025589 2.515969 1.293696 0
M  V30 19 C 0.982323 -2.836845 0.664483 0
M  V30 20 O 2.062588 -3.476370 0.633315 0
M  V30 21 C -0.001980 -3.287481 -0.189356 0
M  V30 22 C 0.211721 -4.379164 -1.020397 0
M  V30 23 C -0.804130 -4.790291 -1.855389 0
M  V30 24 C -2.037956 -4.177397 -1.919176 0
M  V30 25 O -3.073984 -4.570224 -2.747951 0
M  V30 26 C -4.298266 -3.901798 -2.759446 0
M  V30 27 C -2.213782 -3.081889 -1.066842 0
M  V30 28 C -1.220067 -2.641042 -0.217046 0
M  V30 29 N -1.395489 -1.585863 0.601277 0
M  V30 30 C -2.663210 -0.968251 0.525449 0
M  V30 31 C -3.611337 -1.441937 1.396327 0
M  V30 32 C -4.910278 -0.928108 1.436138 0
M  V30 33 C -5.209299 0.088510 0.554264 0
M  V30 34 C -4.292993 0.598805 -0.339513 0
M  V30 35 C -3.023312 0.057550 -0.339749 0
M  V30 36 H 0.599635 0.996362 4.949926 0
M  V30 37 H -0.600927 2.217076 4.519849 0
M  V30 38 H 0.976767 2.288681 3.704666 0
M  V30 39 H 2.676907 -2.111537 2.419934 0
M  V30 40 H 1.592937 -1.203056 3.467267 0
M  V30 41 H 2.573904 0.751892 2.649514 0
M  V30 42 H 4.774810 0.629626 -1.389649 0
M  V30 43 H 5.920950 2.670978 -2.001048 0
M  V30 44 H 3.501668 2.499834 2.223840 0
M  V30 45 H 1.162351 -4.903717 -1.016517 0
M  V30 46 H -0.699229 -5.646971 -2.536592 0
M  V30 47 H -5.011808 -4.488596 -3.380699 0
M  V30 48 H -4.698157 -3.747798 -1.720084 0
M  V30 49 H -4.210705 -2.863683 -3.177278 0
M  V30 50 H -3.168539 -2.553154 -1.070074 0
M  V30 51 H -3.445344 -2.247958 2.125157 0
M  V30 52 H -5.672890 -1.297497 2.125142 0
M  V30 53 H -6.197820 0.527635 0.536897 0
M  V30 54 H -4.506737 1.395345 -1.038748 0
M  V30 55 H -2.206162 0.375346 -1.000593 0
M  V30 END ATOM
M  V30 BEGIN BOND
M  V30 1 1 1 2
M  V30 2 1 2 3
M  V30 3 2 3 4
M  V30 4 1 3 5
M  V30 5 2 5 6
M  V30 6 1 6 7
M  V30 7 1 7 8
M  V30 8 1 8 9
M  V30 9 2 9 10
M  V30 10 1 9 11
M  V30 11 2 11 12
M  V30 12 1 12 13
M  V30 13 2 13 14
M  V30 14 1 14 15
M  V30 15 1 14 16
M  V30 16 1 16 17
M  V30 17 2 16 18
M  V30 18 1 6 19
M  V30 19 2 19 20
M  V30 20 1 19 21
M  V30 21 2 21 22
M  V30 22 1 22 23
M  V30 23 2 23 24
M  V30 24 1 24 25
M  V30 25 1 25 26
M  V30 26 1 24 27
M  V30 27 2 27 28
M  V30 28 1 28 29
M  V30 29 1 29 30
M  V30 30 2 30 31
M  V30 31 1 31 32
M  V30 32 2 32 33
M  V30 33 1 33 34
M  V30 34 2 34 35
M  V30 35 1 29 5
M  V30 36 1 35 30
M  V30 37 1 18 11
M  V30 38 1 28 21
M  V30 39 1 1 36
M  V30 40 1 1 37
M  V30 41 1 1 38
M  V30 42 1 7 39
M  V30 43 1 7 40
M  V30 44 1 8 41
M  V30 45 1 12 42
M  V30 46 1 13 43
M  V30 47 1 18 44
M  V30 48 1 22 45
M  V30 49 1 23 46
M  V30 50 1 26 47
M  V30 51 1 26 48
M  V30 52 1 26 49
M  V30 53 1 27 50
M  V30 54 1 31 51
M  V30 55 1 32 52
M  V30 56 1 33 53
M  V30 57 1 34 54
M  V30 58 1 35 55
M  V30 END BOND
M  V30 END CTAB
M  END
>  <Dataset>  (624) 
ChEMBL_Kinases

>  <Ligand_Instance>  (624) 
nan

>  <PDB_ID>  (624) 
nan

>  <Standardized_SMILES>  (624) 
COC(=O)c1c(CNC(=O)c2ccc(F)c(F)c2)c(=O)c2ccc(OC)cc2n1-c1ccccc1

>  <Name>  (624) 
nan

>  <Pocket>  (624) 
nan

>  <ATP_Site>  (624) 
nan

>  <Peripheral>  (624) 
nan

>  <Num_H_Atoms_ProtBoundConf>  (624) 
nan

>  <Num_Resolved_Atoms>  (624) 
nan

>  <Num_Not_Resolved_Atoms>  (624) 
nan

$$$$
CHEMBL3679580
     RDKit          3D

  0  0  0  0  0  0  0  0  0  0999 V3000
M  V30 BEGIN CTAB
M  V30 COUNTS 59 62 0 0 0
M  V30 BEGIN ATOM
M  V30 1 C -1.458933 0.950662 3.699047 0
M  V30 2 O -0.765186 -0.033789 3.014214 0
M  V30 3 C -1.170860 -0.729762 1.897053 0
M  V30 4 O -2.290202 -0.221544 1.713254 0
M  V30 5 C -0.566778 -1.759459 1.095657 0
M  V30 6 C 0.688681 -2.247311 1.388742 0
M  V30 7 C 1.521309 -1.762499 2.514727 0
M  V30 8 N 2.140311 -0.483395 2.282958 0
M  V30 9 C 3.042018 -0.100473 1.265458 0
M  V30 10 O 3.391120 -0.947192 0.414420 0
M  V30 11 C 3.612798 1.229294 1.121334 0
M  V30 12 C 4.483665 1.466017 0.081717 0
M  V30 13 C 5.082591 2.706947 -0.140106 0
M  V30 14 C 4.784958 3.742941 0.726264 0
M  V30 15 C 3.923642 3.549860 1.773432 0
M  V30 16 O 3.664285 4.608738 2.599762 0
M  V30 17 C 2.800991 4.559601 3.715228 0
M  V30 18 C 3.366618 2.304561 1.937893 0
M  V30 19 C 1.120783 -3.254678 0.518596 0
M  V30 20 O 2.251000 -3.787480 0.676660 0
M  V30 21 C 0.390669 -3.741554 -0.544394 0
M  V30 22 C 0.873361 -4.733453 -1.362548 0
M  V30 23 C 0.103424 -5.190613 -2.418423 0
M  V30 24 C -1.153683 -4.629431 -2.628703 0
M  V30 25 O -1.988474 -5.024923 -3.657482 0
M  V30 26 C -3.262668 -4.468641 -3.885310 0
M  V30 27 C -1.619803 -3.634810 -1.796074 0
M  V30 28 C -0.858293 -3.168385 -0.735133 0
M  V30 29 N -1.322794 -2.197530 0.071331 0
M  V30 30 C -2.618413 -1.686019 -0.222189 0
M  V30 31 C -3.682398 -2.378077 0.271171 0
M  V30 32 C -4.947709 -1.899255 -0.002240 0
M  V30 33 C -5.234801 -0.767143 -0.740494 0
M  V30 34 C -4.121599 -0.088926 -1.226370 0
M  V30 35 C -2.846521 -0.536011 -0.974234 0
M  V30 36 H -0.907962 1.923153 3.673941 0
M  V30 37 H -1.581563 0.722403 4.791809 0
M  V30 38 H -2.483082 1.158651 3.335448 0
M  V30 39 H 0.996632 -1.770610 3.474187 0
M  V30 40 H 2.367471 -2.504923 2.607528 0
M  V30 41 H 1.929438 0.315908 2.937846 0
M  V30 42 H 4.766403 0.700515 -0.641451 0
M  V30 43 H 5.768126 2.874922 -0.966861 0
M  V30 44 H 5.264652 4.697889 0.530679 0
M  V30 45 H 2.358991 5.572702 3.897747 0
M  V30 46 H 3.285918 4.247715 4.644291 0
M  V30 47 H 1.904124 3.925125 3.457633 0
M  V30 48 H 2.697448 2.179158 2.762643 0
M  V30 49 H 1.846217 -5.162984 -1.194373 0
M  V30 50 H 0.423526 -5.971162 -3.103087 0
M  V30 51 H -3.637631 -4.888627 -4.851831 0
M  V30 52 H -3.217772 -3.350965 -3.976715 0
M  V30 53 H -3.911948 -4.749841 -3.031430 0
M  V30 54 H -2.598872 -3.197575 -1.959501 0
M  V30 55 H -3.605456 -3.285023 0.868013 0
M  V30 56 H -5.806350 -2.441499 0.384975 0
M  V30 57 H -6.261354 -0.458191 -0.909811 0
M  V30 58 H -4.285092 0.808762 -1.813870 0
M  V30 59 H -1.976103 -0.006705 -1.353484 0
M  V30 END ATOM
M  V30 BEGIN BOND
M  V30 1 1 1 2
M  V30 2 1 2 3
M  V30 3 2 3 4
M  V30 4 1 3 5
M  V30 5 2 5 6
M  V30 6 1 6 7
M  V30 7 1 7 8
M  V30 8 1 8 9
M  V30 9 2 9 10
M  V30 10 1 9 11
M  V30 11 2 11 12
M  V30 12 1 12 13
M  V30 13 2 13 14
M  V30 14 1 14 15
M  V30 15 1 15 16
M  V30 16 1 16 17
M  V30 17 2 15 18
M  V30 18 1 6 19
M  V30 19 2 19 20
M  V30 20 1 19 21
M  V30 21 2 21 22
M  V30 22 1 22 23
M  V30 23 2 23 24
M  V30 24 1 24 25
M  V30 25 1 25 26
M  V30 26 1 24 27
M  V30 27 2 27 28
M  V30 28 1 28 29
M  V30 29 1 29 30
M  V30 30 2 30 31
M  V30 31 1 31 32
M  V30 32 2 32 33
M  V30 33 1 33 34
M  V30 34 2 34 35
M  V30 35 1 29 5
M  V30 36 1 35 30
M  V30 37 1 18 11
M  V30 38 1 28 21
M  V30 39 1 1 36
M  V30 40 1 1 37
M  V30 41 1 1 38
M  V30 42 1 7 39
M  V30 43 1 7 40
M  V30 44 1 8 41
M  V30 45 1 12 42
M  V30 46 1 13 43
M  V30 47 1 14 44
M  V30 48 1 17 45
M  V30 49 1 17 46
M  V30 50 1 17 47
M  V30 51 1 18 48
M  V30 52 1 22 49
M  V30 53 1 23 50
M  V30 54 1 26 51
M  V30 55 1 26 52
M  V30 56 1 26 53
M  V30 57 1 27 54
M  V30 58 1 31 55
M  V30 59 1 32 56
M  V30 60 1 33 57
M  V30 61 1 34 58
M  V30 62 1 35 59
M  V30 END BOND
M  V30 END CTAB
M  END
>  <Dataset>  (625) 
ChEMBL_Kinases

>  <Ligand_Instance>  (625) 
nan

>  <PDB_ID>  (625) 
nan

>  <Standardized_SMILES>  (625) 
COC(=O)c1c(CNC(=O)c2cccc(OC)c2)c(=O)c2ccc(OC)cc2n1-c1ccccc1

>  <Name>  (625) 
nan

>  <Pocket>  (625) 
nan

>  <ATP_Site>  (625) 
nan

>  <Peripheral>  (625) 
nan

>  <Num_H_Atoms_ProtBoundConf>  (625) 
nan

>  <Num_Resolved_Atoms>  (625) 
nan

>  <Num_Not_Resolved_Atoms>  (625) 
nan

$$$$
CHEMBL3679579
     RDKit          3D

  0  0  0  0  0  0  0  0  0  0999 V3000
M  V30 BEGIN CTAB
M  V30 COUNTS 55 58 0 0 0
M  V30 BEGIN ATOM
M  V30 1 C 4.066662 -1.447869 -1.066987 0
M  V30 2 O 3.168454 -1.288971 -0.005907 0
M  V30 3 C 1.847673 -1.661526 -0.047218 0
M  V30 4 O 1.932551 -2.077861 -1.207817 0
M  V30 5 C 0.661184 -1.678171 0.760992 0
M  V30 6 C 0.775014 -1.152876 2.012047 0
M  V30 7 C 1.867433 -0.428197 2.696784 0
M  V30 8 N 1.766492 0.972439 2.383649 0
M  V30 9 C 1.781815 1.959373 1.406220 0
M  V30 10 O 1.961583 1.492372 0.270044 0
M  V30 11 C 1.613201 3.375491 1.633570 0
M  V30 12 C 1.384894 4.011965 2.829229 0
M  V30 13 C 1.236275 5.377698 2.939300 0
M  V30 14 C 1.310786 6.192352 1.831044 0
M  V30 15 C 1.542304 5.547843 0.617934 0
M  V30 16 Cl 1.644635 6.534988 -0.807632 0
M  V30 17 C 1.685095 4.192567 0.543953 0
M  V30 18 C -0.361400 -1.227125 2.828626 0
M  V30 19 O -0.444333 -0.793207 4.024936 0
M  V30 20 C -1.534862 -1.807376 2.369064 0
M  V30 21 C -2.673341 -1.893223 3.152304 0
M  V30 22 C -3.825035 -2.486860 2.634133 0
M  V30 23 C -3.771965 -2.969109 1.340856 0
M  V30 24 O -5.003596 -3.533026 0.970464 0
M  V30 25 C -5.085560 -4.066627 -0.337553 0
M  V30 26 C -2.649821 -2.892171 0.549059 0
M  V30 27 C -1.499778 -2.295742 1.075400 0
M  V30 28 N -0.431568 -2.246381 0.259056 0
M  V30 29 C -0.450157 -2.765816 -1.061506 0
M  V30 30 C -0.032351 -3.991782 -1.498784 0
M  V30 31 C -0.135919 -4.317253 -2.838532 0
M  V30 32 C -0.653728 -3.434691 -3.762523 0
M  V30 33 C -1.081544 -2.179460 -3.313629 0
M  V30 34 C -0.981249 -1.841385 -1.963971 0
M  V30 35 H 4.236403 -2.519522 -1.284990 0
M  V30 36 H 3.620475 -0.966569 -1.969083 0
M  V30 37 H 5.037973 -0.979764 -0.793905 0
M  V30 38 H 1.920909 -0.638822 3.762149 0
M  V30 39 H 2.844941 -0.788176 2.232005 0
M  V30 40 H 1.604707 1.466848 3.328294 0
M  V30 41 H 1.321503 3.408086 3.720427 0
M  V30 42 H 1.058173 5.777848 3.939833 0
M  V30 43 H 1.189389 7.259198 1.951489 0
M  V30 44 H 1.864815 3.778573 -0.453834 0
M  V30 45 H -2.652748 -1.491463 4.172342 0
M  V30 46 H -4.656180 -2.510918 3.304352 0
M  V30 47 H -5.164576 -3.260177 -1.093879 0
M  V30 48 H -4.200698 -4.701936 -0.593989 0
M  V30 49 H -5.962268 -4.752340 -0.448352 0
M  V30 50 H -2.731039 -3.297661 -0.427649 0
M  V30 51 H 0.359191 -4.626844 -0.729596 0
M  V30 52 H 0.203526 -5.291660 -3.143451 0
M  V30 53 H -0.744378 -3.670143 -4.819828 0
M  V30 54 H -1.493613 -1.473237 -4.038052 0
M  V30 55 H -1.341268 -0.842639 -1.723635 0
M  V30 END ATOM
M  V30 BEGIN BOND
M  V30 1 1 1 2
M  V30 2 1 2 3
M  V30 3 2 3 4
M  V30 4 1 3 5
M  V30 5 2 5 6
M  V30 6 1 6 7
M  V30 7 1 7 8
M  V30 8 1 8 9
M  V30 9 2 9 10
M  V30 10 1 9 11
M  V30 11 2 11 12
M  V30 12 1 12 13
M  V30 13 2 13 14
M  V30 14 1 14 15
M  V30 15 1 15 16
M  V30 16 2 15 17
M  V30 17 1 6 18
M  V30 18 2 18 19
M  V30 19 1 18 20
M  V30 20 2 20 21
M  V30 21 1 21 22
M  V30 22 2 22 23
M  V30 23 1 23 24
M  V30 24 1 24 25
M  V30 25 1 23 26
M  V30 26 2 26 27
M  V30 27 1 27 28
M  V30 28 1 28 29
M  V30 29 2 29 30
M  V30 30 1 30 31
M  V30 31 2 31 32
M  V30 32 1 32 33
M  V30 33 2 33 34
M  V30 34 1 28 5
M  V30 35 1 34 29
M  V30 36 1 17 11
M  V30 37 1 27 20
M  V30 38 1 1 35
M  V30 39 1 1 36
M  V30 40 1 1 37
M  V30 41 1 7 38
M  V30 42 1 7 39
M  V30 43 1 8 40
M  V30 44 1 12 41
M  V30 45 1 13 42
M  V30 46 1 14 43
M  V30 47 1 17 44
M  V30 48 1 21 45
M  V30 49 1 22 46
M  V30 50 1 25 47
M  V30 51 1 25 48
M  V30 52 1 25 49
M  V30 53 1 26 50
M  V30 54 1 30 51
M  V30 55 1 31 52
M  V30 56 1 32 53
M  V30 57 1 33 54
M  V30 58 1 34 55
M  V30 END BOND
M  V30 END CTAB
M  END
>  <Dataset>  (626) 
ChEMBL_Kinases

>  <Ligand_Instance>  (626) 
nan

>  <PDB_ID>  (626) 
nan

>  <Standardized_SMILES>  (626) 
COC(=O)c1c(CNC(=O)c2cccc(Cl)c2)c(=O)c2ccc(OC)cc2n1-c1ccccc1

>  <Name>  (626) 
nan

>  <Pocket>  (626) 
nan

>  <ATP_Site>  (626) 
nan

>  <Peripheral>  (626) 
nan

>  <Num_H_Atoms_ProtBoundConf>  (626) 
nan

>  <Num_Resolved_Atoms>  (626) 
nan

>  <Num_Not_Resolved_Atoms>  (626) 
nan

$$$$
CHEMBL3679578
     RDKit          3D

  0  0  0  0  0  0  0  0  0  0999 V3000
M  V30 BEGIN CTAB
M  V30 COUNTS 53 56 0 0 0
M  V30 BEGIN ATOM
M  V30 1 C 4.247003 -0.973221 1.258378 0
M  V30 2 O 2.942012 -0.741903 1.776875 0
M  V30 3 C 1.869095 -1.425341 1.253494 0
M  V30 4 O 2.579937 -2.047244 0.429881 0
M  V30 5 C 0.442030 -1.602013 1.357674 0
M  V30 6 C -0.185421 -0.841826 2.305076 0
M  V30 7 C 0.318103 0.244856 3.172587 0
M  V30 8 N 0.248725 1.498290 2.478645 0
M  V30 9 C 0.662570 2.253316 1.374393 0
M  V30 10 O 1.426789 1.634007 0.617129 0
M  V30 11 C 0.297627 3.610643 1.061288 0
M  V30 12 C 0.839964 4.113732 -0.075897 0
M  V30 13 C 0.529577 5.429996 -0.443796 0
M  V30 14 C -0.298812 6.242535 0.289493 0
M  V30 15 Cl -0.610422 7.867325 -0.268493 0
M  V30 16 C -0.840746 5.717104 1.440294 0
M  V30 17 Cl -1.898573 6.727803 2.395331 0
M  V30 18 C -0.532565 4.417731 1.800608 0
M  V30 19 C -1.558982 -1.035147 2.488439 0
M  V30 20 O -2.310160 -0.431720 3.312862 0
M  V30 21 C -2.223391 -1.984991 1.702751 0
M  V30 22 C -3.572927 -2.230240 1.827036 0
M  V30 23 C -4.180476 -3.186794 1.018909 0
M  V30 24 C -3.384113 -3.859605 0.110658 0
M  V30 25 C -4.038275 -4.873473 -0.742354 0
M  V30 26 F -4.511413 -4.322426 -1.922510 0
M  V30 27 F -3.138305 -5.873710 -1.061944 0
M  V30 28 F -5.069260 -5.488935 -0.052624 0
M  V30 29 N -2.066850 -3.613049 -0.003324 0
M  V30 30 C -1.455754 -2.678604 0.781389 0
M  V30 31 N -0.134923 -2.504196 0.594451 0
M  V30 32 C 0.551957 -3.268676 -0.385487 0
M  V30 33 C 0.748707 -2.532344 -1.561525 0
M  V30 34 C 1.391685 -3.065141 -2.658770 0
M  V30 35 C 1.853496 -4.361697 -2.593374 0
M  V30 36 C 1.663838 -5.103245 -1.430022 0
M  V30 37 C 1.023397 -4.559953 -0.349016 0
M  V30 38 H 4.270809 -0.629427 0.202440 0
M  V30 39 H 4.932908 -0.398402 1.906809 0
M  V30 40 H 4.556831 -2.016663 1.318693 0
M  V30 41 H -0.125884 0.253851 4.160833 0
M  V30 42 H 1.441143 0.093966 3.359504 0
M  V30 43 H -0.394106 2.125094 3.039648 0
M  V30 44 H 1.503905 3.575320 -0.734947 0
M  V30 45 H 0.962975 5.826990 -1.350798 0
M  V30 46 H -0.965346 4.033145 2.696830 0
M  V30 47 H -4.156230 -1.688552 2.542516 0
M  V30 48 H -5.241456 -3.373665 1.123353 0
M  V30 49 H 0.421464 -1.491863 -1.719896 0
M  V30 50 H 1.552949 -2.511765 -3.574281 0
M  V30 51 H 2.365195 -4.800983 -3.453177 0
M  V30 52 H 2.013152 -6.125222 -1.342983 0
M  V30 53 H 0.822610 -5.037651 0.594555 0
M  V30 END ATOM
M  V30 BEGIN BOND
M  V30 1 1 1 2
M  V30 2 1 2 3
M  V30 3 2 3 4
M  V30 4 1 3 5
M  V30 5 2 5 6
M  V30 6 1 6 7
M  V30 7 1 7 8
M  V30 8 1 8 9
M  V30 9 2 9 10
M  V30 10 1 9 11
M  V30 11 2 11 12
M  V30 12 1 12 13
M  V30 13 2 13 14
M  V30 14 1 14 15
M  V30 15 1 14 16
M  V30 16 1 16 17
M  V30 17 2 16 18
M  V30 18 1 6 19
M  V30 19 2 19 20
M  V30 20 1 19 21
M  V30 21 2 21 22
M  V30 22 1 22 23
M  V30 23 2 23 24
M  V30 24 1 24 25
M  V30 25 1 25 26
M  V30 26 1 25 27
M  V30 27 1 25 28
M  V30 28 1 24 29
M  V30 29 2 29 30
M  V30 30 1 30 31
M  V30 31 1 31 32
M  V30 32 2 32 33
M  V30 33 1 33 34
M  V30 34 2 34 35
M  V30 35 1 35 36
M  V30 36 2 36 37
M  V30 37 1 31 5
M  V30 38 1 37 32
M  V30 39 1 18 11
M  V30 40 1 30 21
M  V30 41 1 1 38
M  V30 42 1 1 39
M  V30 43 1 1 40
M  V30 44 1 7 41
M  V30 45 1 7 42
M  V30 46 1 8 43
M  V30 47 1 12 44
M  V30 48 1 13 45
M  V30 49 1 18 46
M  V30 50 1 22 47
M  V30 51 1 23 48
M  V30 52 1 33 49
M  V30 53 1 34 50
M  V30 54 1 35 51
M  V30 55 1 36 52
M  V30 56 1 37 53
M  V30 END BOND
M  V30 END CTAB
M  END
>  <Dataset>  (627) 
ChEMBL_Kinases

>  <Ligand_Instance>  (627) 
nan

>  <PDB_ID>  (627) 
nan

>  <Standardized_SMILES>  (627) 
COC(=O)c1c(CNC(=O)c2ccc(Cl)c(Cl)c2)c(=O)c2ccc(C(F)(F)F)nc2n1-c1ccccc1

>  <Name>  (627) 
nan

>  <Pocket>  (627) 
nan

>  <ATP_Site>  (627) 
nan

>  <Peripheral>  (627) 
nan

>  <Num_H_Atoms_ProtBoundConf>  (627) 
nan

>  <Num_Resolved_Atoms>  (627) 
nan

>  <Num_Not_Resolved_Atoms>  (627) 
nan

$$$$
CHEMBL3679577
     RDKit          3D

  0  0  0  0  0  0  0  0  0  0999 V3000
M  V30 BEGIN CTAB
M  V30 COUNTS 57 61 0 0 0
M  V30 BEGIN ATOM
M  V30 1 C 4.114689 -1.069310 -0.934240 0
M  V30 2 O 3.001016 -1.637106 -0.324556 0
M  V30 3 C 2.229420 -1.042138 0.655314 0
M  V30 4 O 2.990403 -0.075097 0.566846 0
M  V30 5 C 1.068246 -1.547020 1.338268 0
M  V30 6 C 0.487853 -0.723872 2.266491 0
M  V30 7 C 0.781356 0.689440 2.607963 0
M  V30 8 N 0.061344 1.573326 1.744335 0
M  V30 9 C -0.201923 2.008457 0.434568 0
M  V30 10 O 0.478664 1.353375 -0.391418 0
M  V30 11 C -1.118749 3.060126 0.023152 0
M  V30 12 C -1.857312 3.856273 0.902026 0
M  V30 13 C -2.720978 4.843775 0.428351 0
M  V30 14 C -2.782861 4.964665 -0.952409 0
M  V30 15 C -3.528072 5.828921 -1.746117 0
M  V30 16 C -3.233357 5.547059 -3.085101 0
M  V30 17 N -2.339150 4.544177 -3.095306 0
M  V30 18 C -2.065420 4.192068 -1.826989 0
M  V30 19 C -1.217500 3.222187 -1.337968 0
M  V30 20 C -0.598600 -1.243753 2.980893 0
M  V30 21 O -1.245716 -0.649143 3.858074 0
M  V30 22 C -0.977145 -2.535405 2.675344 0
M  V30 23 C -2.038235 -3.152795 3.316316 0
M  V30 24 C -2.427772 -4.440757 3.021007 0
M  V30 25 C -1.762773 -5.177907 2.057150 0
M  V30 26 C -2.091549 -6.570407 1.653792 0
M  V30 27 F -3.119425 -6.644866 0.739524 0
M  V30 28 F -2.464531 -7.344081 2.744124 0
M  V30 29 F -0.961263 -7.181233 1.137133 0
M  V30 30 N -0.731014 -4.579463 1.432872 0
M  V30 31 C -0.347791 -3.312437 1.723217 0
M  V30 32 N 0.695381 -2.797651 1.046515 0
M  V30 33 C 1.381651 -3.542907 0.060321 0
M  V30 34 C 1.108009 -3.400531 -1.304063 0
M  V30 35 C 1.807071 -4.147841 -2.220390 0
M  V30 36 C 2.759282 -5.016358 -1.751451 0
M  V30 37 C 3.075174 -5.200548 -0.401416 0
M  V30 38 C 2.344742 -4.426608 0.473474 0
M  V30 39 H 4.335544 -1.712685 -1.838679 0
M  V30 40 H 3.925290 -0.043319 -1.356350 0
M  V30 41 H 5.010606 -1.125712 -0.308135 0
M  V30 42 H 1.883931 0.900550 2.365521 0
M  V30 43 H 0.621305 0.904157 3.665671 0
M  V30 44 H -0.555021 2.170691 2.364803 0
M  V30 45 H -1.758810 3.707549 1.963237 0
M  V30 46 H -3.290195 5.460889 1.103945 0
M  V30 47 H -4.220222 6.593576 -1.423674 0
M  V30 48 H -3.685359 6.084891 -3.908754 0
M  V30 49 H -1.923991 4.110244 -3.975230 0
M  V30 50 H -0.660386 2.624630 -2.056270 0
M  V30 51 H -2.607892 -2.630162 4.089240 0
M  V30 52 H -3.248326 -4.957314 3.496532 0
M  V30 53 H 0.335901 -2.690643 -1.628779 0
M  V30 54 H 1.631428 -4.075070 -3.291873 0
M  V30 55 H 3.303699 -5.602129 -2.490951 0
M  V30 56 H 3.844849 -5.911180 -0.119848 0
M  V30 57 H 2.566498 -4.547327 1.525041 0
M  V30 END ATOM
M  V30 BEGIN BOND
M  V30 1 1 1 2
M  V30 2 1 2 3
M  V30 3 2 3 4
M  V30 4 1 3 5
M  V30 5 2 5 6
M  V30 6 1 6 7
M  V30 7 1 7 8
M  V30 8 1 8 9
M  V30 9 2 9 10
M  V30 10 1 9 11
M  V30 11 2 11 12
M  V30 12 1 12 13
M  V30 13 2 13 14
M  V30 14 1 14 15
M  V30 15 2 15 16
M  V30 16 1 16 17
M  V30 17 1 17 18
M  V30 18 2 18 19
M  V30 19 1 6 20
M  V30 20 2 20 21
M  V30 21 1 20 22
M  V30 22 2 22 23
M  V30 23 1 23 24
M  V30 24 2 24 25
M  V30 25 1 25 26
M  V30 26 1 26 27
M  V30 27 1 26 28
M  V30 28 1 26 29
M  V30 29 1 25 30
M  V30 30 2 30 31
M  V30 31 1 31 32
M  V30 32 1 32 33
M  V30 33 2 33 34
M  V30 34 1 34 35
M  V30 35 2 35 36
M  V30 36 1 36 37
M  V30 37 2 37 38
M  V30 38 1 32 5
M  V30 39 1 38 33
M  V30 40 1 19 11
M  V30 41 1 31 22
M  V30 42 1 18 14
M  V30 43 1 1 39
M  V30 44 1 1 40
M  V30 45 1 1 41
M  V30 46 1 7 42
M  V30 47 1 7 43
M  V30 48 1 8 44
M  V30 49 1 12 45
M  V30 50 1 13 46
M  V30 51 1 15 47
M  V30 52 1 16 48
M  V30 53 1 17 49
M  V30 54 1 19 50
M  V30 55 1 23 51
M  V30 56 1 24 52
M  V30 57 1 34 53
M  V30 58 1 35 54
M  V30 59 1 36 55
M  V30 60 1 37 56
M  V30 61 1 38 57
M  V30 END BOND
M  V30 END CTAB
M  END
>  <Dataset>  (628) 
ChEMBL_Kinases

>  <Ligand_Instance>  (628) 
nan

>  <PDB_ID>  (628) 
nan

>  <Standardized_SMILES>  (628) 
COC(=O)c1c(CNC(=O)c2ccc3cc[nH]c3c2)c(=O)c2ccc(C(F)(F)F)nc2n1-c1ccccc1

>  <Name>  (628) 
nan

>  <Pocket>  (628) 
nan

>  <ATP_Site>  (628) 
nan

>  <Peripheral>  (628) 
nan

>  <Num_H_Atoms_ProtBoundConf>  (628) 
nan

>  <Num_Resolved_Atoms>  (628) 
nan

>  <Num_Not_Resolved_Atoms>  (628) 
nan

$$$$
CHEMBL3679576
     RDKit          3D

  0  0  0  0  0  0  0  0  0  0999 V3000
M  V30 BEGIN CTAB
M  V30 COUNTS 61 65 0 0 0
M  V30 BEGIN ATOM
M  V30 1 C 3.257705 1.257343 3.413279 0
M  V30 2 O 2.928022 0.065246 2.766404 0
M  V30 3 C 1.710796 -0.583267 2.802345 0
M  V30 4 O 1.271615 0.319446 3.549044 0
M  V30 5 C 1.378486 -1.822466 2.125849 0
M  V30 6 C 0.095889 -2.277543 2.280109 0
M  V30 7 C -1.067955 -1.658547 2.905317 0
M  V30 8 N -1.846204 -0.779909 2.067573 0
M  V30 9 C -1.762439 0.380034 1.305868 0
M  V30 10 O -0.632282 0.926511 1.281764 0
M  V30 11 C -2.809165 1.031619 0.542299 0
M  V30 12 C -2.458245 2.192986 -0.110807 0
M  V30 13 C -3.456939 2.839924 -0.858962 0
M  V30 14 C -4.756738 2.359099 -0.959906 0
M  V30 15 C -5.760791 3.066083 -1.748313 0
M  V30 16 N -6.491790 4.195487 -1.725871 0
M  V30 17 N -7.265700 4.263585 -2.795731 0
M  V30 18 N -7.041601 3.179267 -3.518216 0
M  V30 19 C -7.677753 2.822669 -4.796345 0
M  V30 20 N -6.120238 2.434415 -2.888175 0
M  V30 21 C -5.103741 1.193980 -0.303068 0
M  V30 22 C -4.106796 0.578312 0.423753 0
M  V30 23 C -0.138885 -3.518440 1.671601 0
M  V30 24 O -1.278535 -4.072729 1.728502 0
M  V30 25 C 0.847352 -4.202146 0.982027 0
M  V30 26 C 0.587694 -5.421220 0.393105 0
M  V30 27 C 1.603482 -6.062855 -0.283565 0
M  V30 28 C 2.858709 -5.446253 -0.343249 0
M  V30 29 C 3.995444 -6.094327 -1.062249 0
M  V30 30 F 3.784656 -7.441164 -1.227429 0
M  V30 31 F 5.128101 -5.862178 -0.279185 0
M  V30 32 F 4.135020 -5.436958 -2.284020 0
M  V30 33 N 3.074979 -4.245926 0.249504 0
M  V30 34 C 2.085667 -3.605135 0.917272 0
M  V30 35 N 2.391192 -2.410869 1.479005 0
M  V30 36 C 3.676181 -1.818558 1.395552 0
M  V30 37 C 3.895519 -0.931144 0.371336 0
M  V30 38 C 5.101251 -0.286534 0.179048 0
M  V30 39 C 6.137035 -0.556498 1.071906 0
M  V30 40 C 5.939676 -1.450688 2.116201 0
M  V30 41 C 4.723108 -2.079737 2.283001 0
M  V30 42 H 2.500456 2.058272 3.338967 0
M  V30 43 H 3.547807 1.026596 4.478893 0
M  V30 44 H 4.204416 1.622934 2.916919 0
M  V30 45 H -0.778603 -1.080220 3.839797 0
M  V30 46 H -1.748158 -2.436153 3.299912 0
M  V30 47 H -2.857502 -1.098829 1.968932 0
M  V30 48 H -1.485450 2.650690 -0.100200 0
M  V30 49 H -3.192532 3.744527 -1.370094 0
M  V30 50 H -6.875783 2.876119 -5.566829 0
M  V30 51 H -7.925871 1.738631 -4.684058 0
M  V30 52 H -8.538353 3.465658 -4.981031 0
M  V30 53 H -6.100211 0.791706 -0.358867 0
M  V30 54 H -4.398030 -0.330694 0.928273 0
M  V30 55 H -0.405645 -5.871489 0.461504 0
M  V30 56 H 1.461651 -7.021501 -0.766567 0
M  V30 57 H 3.119835 -0.680384 -0.360244 0
M  V30 58 H 5.242892 0.405419 -0.635021 0
M  V30 59 H 7.111525 -0.088287 0.984012 0
M  V30 60 H 6.740321 -1.681614 2.833468 0
M  V30 61 H 4.517638 -2.792910 3.091093 0
M  V30 END ATOM
M  V30 BEGIN BOND
M  V30 1 1 1 2
M  V30 2 1 2 3
M  V30 3 2 3 4
M  V30 4 1 3 5
M  V30 5 2 5 6
M  V30 6 1 6 7
M  V30 7 1 7 8
M  V30 8 1 8 9
M  V30 9 2 9 10
M  V30 10 1 9 11
M  V30 11 2 11 12
M  V30 12 1 12 13
M  V30 13 2 13 14
M  V30 14 1 14 15
M  V30 15 1 15 16
M  V30 16 2 16 17
M  V30 17 1 17 18
M  V30 18 1 18 19
M  V30 19 1 18 20
M  V30 20 1 14 21
M  V30 21 2 21 22
M  V30 22 1 6 23
M  V30 23 2 23 24
M  V30 24 1 23 25
M  V30 25 2 25 26
M  V30 26 1 26 27
M  V30 27 2 27 28
M  V30 28 1 28 29
M  V30 29 1 29 30
M  V30 30 1 29 31
M  V30 31 1 29 32
M  V30 32 1 28 33
M  V30 33 2 33 34
M  V30 34 1 34 35
M  V30 35 1 35 36
M  V30 36 2 36 37
M  V30 37 1 37 38
M  V30 38 2 38 39
M  V30 39 1 39 40
M  V30 40 2 40 41
M  V30 41 1 35 5
M  V30 42 1 41 36
M  V30 43 1 22 11
M  V30 44 1 34 25
M  V30 45 2 20 15
M  V30 46 1 1 42
M  V30 47 1 1 43
M  V30 48 1 1 44
M  V30 49 1 7 45
M  V30 50 1 7 46
M  V30 51 1 8 47
M  V30 52 1 12 48
M  V30 53 1 13 49
M  V30 54 1 19 50
M  V30 55 1 19 51
M  V30 56 1 19 52
M  V30 57 1 21 53
M  V30 58 1 22 54
M  V30 59 1 26 55
M  V30 60 1 27 56
M  V30 61 1 37 57
M  V30 62 1 38 58
M  V30 63 1 39 59
M  V30 64 1 40 60
M  V30 65 1 41 61
M  V30 END BOND
M  V30 END CTAB
M  END
>  <Dataset>  (629) 
ChEMBL_Kinases

>  <Ligand_Instance>  (629) 
nan

>  <PDB_ID>  (629) 
nan

>  <Standardized_SMILES>  (629) 
COC(=O)c1c(CNC(=O)c2ccc(-c3nnn(C)n3)cc2)c(=O)c2ccc(C(F)(F)F)nc2n1-c1ccccc1

>  <Name>  (629) 
nan

>  <Pocket>  (629) 
nan

>  <ATP_Site>  (629) 
nan

>  <Peripheral>  (629) 
nan

>  <Num_H_Atoms_ProtBoundConf>  (629) 
nan

>  <Num_Resolved_Atoms>  (629) 
nan

>  <Num_Not_Resolved_Atoms>  (629) 
nan

$$$$
CHEMBL3679575
     RDKit          3D

  0  0  0  0  0  0  0  0  0  0999 V3000
M  V30 BEGIN CTAB
M  V30 COUNTS 60 64 0 0 0
M  V30 BEGIN ATOM
M  V30 1 C 1.397404 -1.707139 4.244918 0
M  V30 2 O 0.269023 -1.823117 3.400133 0
M  V30 3 C 0.350895 -2.478069 2.211179 0
M  V30 4 O 1.566842 -2.737216 2.397086 0
M  V30 5 C -0.446086 -2.845788 1.077536 0
M  V30 6 C -1.774892 -2.486807 1.002283 0
M  V30 7 C -2.479470 -1.703159 2.045596 0
M  V30 8 N -2.066918 -0.336586 1.954072 0
M  V30 9 C -2.149544 0.614607 0.911880 0
M  V30 10 O -2.683297 0.214175 -0.150885 0
M  V30 11 C -1.658015 1.981106 1.026565 0
M  V30 12 C -1.046895 2.562486 2.118196 0
M  V30 13 C -0.619146 3.874575 2.113455 0
M  V30 14 C -0.785244 4.674517 1.003011 0
M  V30 15 C -0.332026 6.061758 1.000323 0
M  V30 16 C -0.452505 6.938818 -0.057524 0
M  V30 17 C 0.115757 8.120540 0.412840 0
M  V30 18 N 0.550524 7.940586 1.693985 0
M  V30 19 N 0.269411 6.691821 2.025617 0
M  V30 20 C -1.392338 4.133166 -0.112281 0
M  V30 21 C -1.806312 2.818473 -0.069481 0
M  V30 22 C -2.402617 -2.937066 -0.158365 0
M  V30 23 O -3.621126 -2.685570 -0.363607 0
M  V30 24 C -1.779789 -3.668815 -1.148023 0
M  V30 25 C -2.454855 -4.084296 -2.273419 0
M  V30 26 C -1.799316 -4.820727 -3.254872 0
M  V30 27 C -0.469955 -5.084935 -3.008437 0
M  V30 28 C 0.260120 -5.868761 -4.036749 0
M  V30 29 F -0.612960 -6.630777 -4.799221 0
M  V30 30 F 1.153083 -6.750848 -3.479934 0
M  V30 31 F 0.947301 -5.053297 -4.916484 0
M  V30 32 N 0.178581 -4.677976 -1.913082 0
M  V30 33 C -0.447192 -3.962406 -0.953230 0
M  V30 34 N 0.210916 -3.555911 0.145870 0
M  V30 35 C 1.583096 -3.910922 0.252227 0
M  V30 36 C 2.089407 -5.055042 0.828920 0
M  V30 37 C 3.446719 -5.299651 0.877968 0
M  V30 38 C 4.318058 -4.368008 0.332077 0
M  V30 39 C 3.831823 -3.225502 -0.244940 0
M  V30 40 C 2.460516 -2.998637 -0.283748 0
M  V30 41 H 1.838074 -2.681409 4.522567 0
M  V30 42 H 2.198508 -1.070492 3.830376 0
M  V30 43 H 1.008233 -1.284709 5.203643 0
M  V30 44 H -3.558206 -1.725949 1.762872 0
M  V30 45 H -2.384350 -2.129629 3.043390 0
M  V30 46 H -1.612034 0.059022 2.830022 0
M  V30 47 H -0.914511 1.942299 2.987398 0
M  V30 48 H -0.148383 4.239035 3.024741 0
M  V30 49 H -0.889427 6.757583 -1.037249 0
M  V30 50 H 0.215480 9.057163 -0.124129 0
M  V30 51 H 1.018776 8.620547 2.331294 0
M  V30 52 H -1.555698 4.711600 -1.027941 0
M  V30 53 H -2.281417 2.421146 -0.964766 0
M  V30 54 H -3.497202 -3.836235 -2.392561 0
M  V30 55 H -2.348239 -5.140293 -4.136867 0
M  V30 56 H 1.350459 -5.733272 1.232630 0
M  V30 57 H 3.765152 -6.230733 1.352753 0
M  V30 58 H 5.358291 -4.611110 0.399139 0
M  V30 59 H 4.524276 -2.502593 -0.669465 0
M  V30 60 H 2.149914 -2.076531 -0.754436 0
M  V30 END ATOM
M  V30 BEGIN BOND
M  V30 1 1 1 2
M  V30 2 1 2 3
M  V30 3 2 3 4
M  V30 4 1 3 5
M  V30 5 2 5 6
M  V30 6 1 6 7
M  V30 7 1 7 8
M  V30 8 1 8 9
M  V30 9 2 9 10
M  V30 10 1 9 11
M  V30 11 2 11 12
M  V30 12 1 12 13
M  V30 13 2 13 14
M  V30 14 1 14 15
M  V30 15 1 15 16
M  V30 16 2 16 17
M  V30 17 1 17 18
M  V30 18 1 18 19
M  V30 19 1 14 20
M  V30 20 2 20 21
M  V30 21 1 6 22
M  V30 22 2 22 23
M  V30 23 1 22 24
M  V30 24 2 24 25
M  V30 25 1 25 26
M  V30 26 2 26 27
M  V30 27 1 27 28
M  V30 28 1 28 29
M  V30 29 1 28 30
M  V30 30 1 28 31
M  V30 31 1 27 32
M  V30 32 2 32 33
M  V30 33 1 33 34
M  V30 34 1 34 35
M  V30 35 2 35 36
M  V30 36 1 36 37
M  V30 37 2 37 38
M  V30 38 1 38 39
M  V30 39 2 39 40
M  V30 40 1 34 5
M  V30 41 1 40 35
M  V30 42 1 21 11
M  V30 43 1 33 24
M  V30 44 2 19 15
M  V30 45 1 1 41
M  V30 46 1 1 42
M  V30 47 1 1 43
M  V30 48 1 7 44
M  V30 49 1 7 45
M  V30 50 1 8 46
M  V30 51 1 12 47
M  V30 52 1 13 48
M  V30 53 1 16 49
M  V30 54 1 17 50
M  V30 55 1 18 51
M  V30 56 1 20 52
M  V30 57 1 21 53
M  V30 58 1 25 54
M  V30 59 1 26 55
M  V30 60 1 36 56
M  V30 61 1 37 57
M  V30 62 1 38 58
M  V30 63 1 39 59
M  V30 64 1 40 60
M  V30 END BOND
M  V30 END CTAB
M  END
>  <Dataset>  (630) 
ChEMBL_Kinases

>  <Ligand_Instance>  (630) 
nan

>  <PDB_ID>  (630) 
nan

>  <Standardized_SMILES>  (630) 
COC(=O)c1c(CNC(=O)c2ccc(-c3cc[nH]n3)cc2)c(=O)c2ccc(C(F)(F)F)nc2n1-c1ccccc1

>  <Name>  (630) 
nan

>  <Pocket>  (630) 
nan

>  <ATP_Site>  (630) 
nan

>  <Peripheral>  (630) 
nan

>  <Num_H_Atoms_ProtBoundConf>  (630) 
nan

>  <Num_Resolved_Atoms>  (630) 
nan

>  <Num_Not_Resolved_Atoms>  (630) 
nan

$$$$
CHEMBL3679574
     RDKit          3D

  0  0  0  0  0  0  0  0  0  0999 V3000
M  V30 BEGIN CTAB
M  V30 COUNTS 57 60 0 0 0
M  V30 BEGIN ATOM
M  V30 1 C 4.194388 0.072052 -0.437683 0
M  V30 2 O 3.090336 -0.129770 0.402855 0
M  V30 3 C 2.291267 -1.250855 0.395959 0
M  V30 4 O 3.000667 -1.712722 -0.522653 0
M  V30 5 C 1.127182 -1.755360 1.102358 0
M  V30 6 C 0.558641 -0.997293 2.100463 0
M  V30 7 C 0.892169 0.368053 2.486123 0
M  V30 8 N 0.149886 1.378400 1.785474 0
M  V30 9 C -0.135046 1.757873 0.460907 0
M  V30 10 O 0.385007 1.049923 -0.432416 0
M  V30 11 C -0.959719 2.864266 0.022409 0
M  V30 12 C -1.618967 3.689358 0.939848 0
M  V30 13 C -2.434667 4.762027 0.562957 0
M  V30 14 C -2.553949 4.964177 -0.791996 0
M  V30 15 C -3.375967 6.046282 -1.309265 0
M  V30 16 N -4.150276 6.993118 -0.590872 0
M  V30 17 O -3.583308 6.384122 -2.526309 0
M  V30 18 C -1.918595 4.171067 -1.717083 0
M  V30 19 C -1.121211 3.121254 -1.319127 0
M  V30 20 C -0.490539 -1.632705 2.724507 0
M  V30 21 O -1.102992 -1.053936 3.660592 0
M  V30 22 C -0.893735 -2.912831 2.340959 0
M  V30 23 C -1.956970 -3.518831 2.993225 0
M  V30 24 C -2.399899 -4.799512 2.644954 0
M  V30 25 C -1.719173 -5.424037 1.617131 0
M  V30 26 C -2.141912 -6.795295 1.197905 0
M  V30 27 F -3.065407 -6.778580 0.178959 0
M  V30 28 F -2.654054 -7.502855 2.258899 0
M  V30 29 F -1.015043 -7.503662 0.757057 0
M  V30 30 N -0.688427 -4.837596 0.985242 0
M  V30 31 C -0.252052 -3.587113 1.321230 0
M  V30 32 N 0.782360 -2.965185 0.704291 0
M  V30 33 C 1.399486 -3.704285 -0.325431 0
M  V30 34 C 1.226369 -3.462825 -1.670844 0
M  V30 35 C 1.826029 -4.183249 -2.680166 0
M  V30 36 C 2.665727 -5.228671 -2.308530 0
M  V30 37 C 2.891283 -5.533853 -0.980776 0
M  V30 38 C 2.247302 -4.757405 -0.039701 0
M  V30 39 H 4.929126 -0.752010 -0.431673 0
M  V30 40 H 3.939905 0.377887 -1.475980 0
M  V30 41 H 4.748938 0.947418 0.014939 0
M  V30 42 H 0.671151 0.498621 3.584067 0
M  V30 43 H 1.976218 0.544088 2.297009 0
M  V30 44 H -0.352751 2.073432 2.425406 0
M  V30 45 H -1.554997 3.569946 2.002185 0
M  V30 46 H -2.930641 5.383826 1.289276 0
M  V30 47 H -3.951333 8.020320 -0.566985 0
M  V30 48 H -4.915522 6.423949 -0.128361 0
M  V30 49 H -1.992784 4.305007 -2.797793 0
M  V30 50 H -0.619854 2.492791 -2.034277 0
M  V30 51 H -2.470081 -2.982300 3.807764 0
M  V30 52 H -3.233424 -5.276226 3.155148 0
M  V30 53 H 0.582597 -2.662561 -1.977536 0
M  V30 54 H 1.650009 -3.947415 -3.718923 0
M  V30 55 H 3.146765 -5.807593 -3.063853 0
M  V30 56 H 3.541651 -6.344718 -0.693816 0
M  V30 57 H 2.400846 -4.971760 1.013039 0
M  V30 END ATOM
M  V30 BEGIN BOND
M  V30 1 1 1 2
M  V30 2 1 2 3
M  V30 3 2 3 4
M  V30 4 1 3 5
M  V30 5 2 5 6
M  V30 6 1 6 7
M  V30 7 1 7 8
M  V30 8 1 8 9
M  V30 9 2 9 10
M  V30 10 1 9 11
M  V30 11 2 11 12
M  V30 12 1 12 13
M  V30 13 2 13 14
M  V30 14 1 14 15
M  V30 15 1 15 16
M  V30 16 2 15 17
M  V30 17 1 14 18
M  V30 18 2 18 19
M  V30 19 1 6 20
M  V30 20 2 20 21
M  V30 21 1 20 22
M  V30 22 2 22 23
M  V30 23 1 23 24
M  V30 24 2 24 25
M  V30 25 1 25 26
M  V30 26 1 26 27
M  V30 27 1 26 28
M  V30 28 1 26 29
M  V30 29 1 25 30
M  V30 30 2 30 31
M  V30 31 1 31 32
M  V30 32 1 32 33
M  V30 33 2 33 34
M  V30 34 1 34 35
M  V30 35 2 35 36
M  V30 36 1 36 37
M  V30 37 2 37 38
M  V30 38 1 32 5
M  V30 39 1 38 33
M  V30 40 1 19 11
M  V30 41 1 31 22
M  V30 42 1 1 39
M  V30 43 1 1 40
M  V30 44 1 1 41
M  V30 45 1 7 42
M  V30 46 1 7 43
M  V30 47 1 8 44
M  V30 48 1 12 45
M  V30 49 1 13 46
M  V30 50 1 16 47
M  V30 51 1 16 48
M  V30 52 1 18 49
M  V30 53 1 19 50
M  V30 54 1 23 51
M  V30 55 1 24 52
M  V30 56 1 34 53
M  V30 57 1 35 54
M  V30 58 1 36 55
M  V30 59 1 37 56
M  V30 60 1 38 57
M  V30 END BOND
M  V30 END CTAB
M  END
>  <Dataset>  (631) 
ChEMBL_Kinases

>  <Ligand_Instance>  (631) 
nan

>  <PDB_ID>  (631) 
nan

>  <Standardized_SMILES>  (631) 
COC(=O)c1c(CNC(=O)c2ccc(C(N)=O)cc2)c(=O)c2ccc(C(F)(F)F)nc2n1-c1ccccc1

>  <Name>  (631) 
nan

>  <Pocket>  (631) 
nan

>  <ATP_Site>  (631) 
nan

>  <Peripheral>  (631) 
nan

>  <Num_H_Atoms_ProtBoundConf>  (631) 
nan

>  <Num_Resolved_Atoms>  (631) 
nan

>  <Num_Not_Resolved_Atoms>  (631) 
nan

$$$$
CHEMBL3679573
     RDKit          3D

  0  0  0  0  0  0  0  0  0  0999 V3000
M  V30 BEGIN CTAB
M  V30 COUNTS 58 61 0 0 0
M  V30 BEGIN ATOM
M  V30 1 C 3.799923 -0.591166 0.424933 0
M  V30 2 O 2.704694 -1.312203 0.934771 0
M  V30 3 C 1.545083 -0.708794 1.405263 0
M  V30 4 O 2.093860 0.378594 1.112512 0
M  V30 5 C 0.372057 -1.378885 1.946633 0
M  V30 6 C -0.680234 -0.595247 2.363504 0
M  V30 7 C -0.577410 0.899061 2.241146 0
M  V30 8 N -0.786071 1.239473 0.824694 0
M  V30 9 C -0.724110 2.623373 0.488852 0
M  V30 10 O -0.495248 3.345731 1.485607 0
M  V30 11 C -0.913608 3.108157 -0.887680 0
M  V30 12 C -1.157433 2.307749 -1.979006 0
M  V30 13 C -1.322184 2.878946 -3.243265 0
M  V30 14 C -1.238866 4.259321 -3.394405 0
M  V30 15 S -1.465200 4.845716 -5.043955 0
M  V30 16 N -3.120819 5.171924 -5.387170 0
M  V30 17 O -0.960350 3.871054 -6.049556 0
M  V30 18 O -0.688923 6.116379 -5.224004 0
M  V30 19 C -0.994165 5.084083 -2.309121 0
M  V30 20 C -0.834600 4.476492 -1.059203 0
M  V30 21 C -1.767888 -1.272949 2.870182 0
M  V30 22 O -2.741934 -0.594008 3.258485 0
M  V30 23 C -1.708479 -2.648312 2.914291 0
M  V30 24 C -2.811850 -3.297994 3.426279 0
M  V30 25 C -2.744082 -4.685246 3.467416 0
M  V30 26 C -1.618922 -5.366565 3.013642 0
M  V30 27 C -1.571147 -6.837096 3.067331 0
M  V30 28 F -2.787549 -7.374565 2.741943 0
M  V30 29 F -1.202323 -7.269010 4.326508 0
M  V30 30 F -0.638851 -7.308219 2.139808 0
M  V30 31 N -0.561141 -4.716657 2.521424 0
M  V30 32 C -0.602079 -3.369466 2.470765 0
M  V30 33 N 0.485571 -2.716886 1.965446 0
M  V30 34 C 1.598840 -3.433144 1.518732 0
M  V30 35 C 2.605158 -3.763163 2.428517 0
M  V30 36 C 3.680466 -4.475603 1.916856 0
M  V30 37 C 3.796939 -4.859645 0.595971 0
M  V30 38 C 2.769331 -4.508973 -0.276679 0
M  V30 39 C 1.673184 -3.797487 0.183846 0
M  V30 40 H 4.554665 -1.333205 0.093059 0
M  V30 41 H 4.301770 0.024804 1.208077 0
M  V30 42 H 3.568240 0.052126 -0.437003 0
M  V30 43 H -1.353328 1.382728 2.834941 0
M  V30 44 H 0.427379 1.277749 2.489364 0
M  V30 45 H -0.973114 0.521709 0.076230 0
M  V30 46 H -1.214085 1.240849 -1.814127 0
M  V30 47 H -1.507169 2.169517 -4.023944 0
M  V30 48 H -3.617210 5.301391 -4.476053 0
M  V30 49 H -3.531532 4.310727 -5.800888 0
M  V30 50 H -0.940684 6.142329 -2.487062 0
M  V30 51 H -0.645849 5.180030 -0.254090 0
M  V30 52 H -3.687526 -2.772114 3.779776 0
M  V30 53 H -3.603446 -5.238247 3.868708 0
M  V30 54 H 2.552484 -3.479549 3.478851 0
M  V30 55 H 4.446279 -4.712668 2.667792 0
M  V30 56 H 4.686448 -5.415476 0.311246 0
M  V30 57 H 2.948169 -4.851591 -1.285214 0
M  V30 58 H 0.923475 -3.563730 -0.543712 0
M  V30 END ATOM
M  V30 BEGIN BOND
M  V30 1 1 1 2
M  V30 2 1 2 3
M  V30 3 2 3 4
M  V30 4 1 3 5
M  V30 5 2 5 6
M  V30 6 1 6 7
M  V30 7 1 7 8
M  V30 8 1 8 9
M  V30 9 2 9 10
M  V30 10 1 9 11
M  V30 11 2 11 12
M  V30 12 1 12 13
M  V30 13 2 13 14
M  V30 14 1 14 15
M  V30 15 1 15 16
M  V30 16 2 15 17
M  V30 17 2 15 18
M  V30 18 1 14 19
M  V30 19 2 19 20
M  V30 20 1 6 21
M  V30 21 2 21 22
M  V30 22 1 21 23
M  V30 23 2 23 24
M  V30 24 1 24 25
M  V30 25 2 25 26
M  V30 26 1 26 27
M  V30 27 1 27 28
M  V30 28 1 27 29
M  V30 29 1 27 30
M  V30 30 1 26 31
M  V30 31 2 31 32
M  V30 32 1 32 33
M  V30 33 1 33 34
M  V30 34 2 34 35
M  V30 35 1 35 36
M  V30 36 2 36 37
M  V30 37 1 37 38
M  V30 38 2 38 39
M  V30 39 1 33 5
M  V30 40 1 39 34
M  V30 41 1 20 11
M  V30 42 1 32 23
M  V30 43 1 1 40
M  V30 44 1 1 41
M  V30 45 1 1 42
M  V30 46 1 7 43
M  V30 47 1 7 44
M  V30 48 1 8 45
M  V30 49 1 12 46
M  V30 50 1 13 47
M  V30 51 1 16 48
M  V30 52 1 16 49
M  V30 53 1 19 50
M  V30 54 1 20 51
M  V30 55 1 24 52
M  V30 56 1 25 53
M  V30 57 1 35 54
M  V30 58 1 36 55
M  V30 59 1 37 56
M  V30 60 1 38 57
M  V30 61 1 39 58
M  V30 END BOND
M  V30 END CTAB
M  END
>  <Dataset>  (632) 
ChEMBL_Kinases

>  <Ligand_Instance>  (632) 
nan

>  <PDB_ID>  (632) 
nan

>  <Standardized_SMILES>  (632) 
COC(=O)c1c(CNC(=O)c2ccc(S(N)(=O)=O)cc2)c(=O)c2ccc(C(F)(F)F)nc2n1-c1ccccc1

>  <Name>  (632) 
nan

>  <Pocket>  (632) 
nan

>  <ATP_Site>  (632) 
nan

>  <Peripheral>  (632) 
nan

>  <Num_H_Atoms_ProtBoundConf>  (632) 
nan

>  <Num_Resolved_Atoms>  (632) 
nan

>  <Num_Not_Resolved_Atoms>  (632) 
nan

$$$$
CHEMBL3679572
     RDKit          3D

  0  0  0  0  0  0  0  0  0  0999 V3000
M  V30 BEGIN CTAB
M  V30 COUNTS 60 64 0 0 0
M  V30 BEGIN ATOM
M  V30 1 C 2.541249 0.288038 3.854343 0
M  V30 2 O 1.321232 -0.258581 3.397084 0
M  V30 3 C 1.246216 -1.408050 2.665563 0
M  V30 4 O 2.496416 -1.478000 2.738099 0
M  V30 5 C 0.334661 -2.311599 2.013148 0
M  V30 6 C -1.008070 -2.130975 1.989986 0
M  V30 7 C -1.661417 -0.912973 2.605099 0
M  V30 8 N -1.556388 0.164924 1.717318 0
M  V30 9 C -1.377533 1.170671 0.885877 0
M  V30 10 O -0.069365 1.005502 0.968449 0
M  V30 11 C -1.425854 2.261736 -0.006416 0
M  V30 12 C -0.442496 2.929265 -0.642940 0
M  V30 13 C -0.800813 3.973159 -1.465519 0
M  V30 14 C -2.131492 4.326561 -1.633248 0
M  V30 15 C -2.481451 5.443210 -2.517001 0
M  V30 16 N -1.558340 6.183554 -3.206084 0
M  V30 17 C -2.213376 7.124561 -3.918175 0
M  V30 18 C -3.546806 6.928108 -3.637436 0
M  V30 19 N -3.712934 5.904455 -2.784697 0
M  V30 20 C -3.161402 3.667084 -0.998665 0
M  V30 21 C -2.784774 2.606973 -0.164957 0
M  V30 22 C -1.827111 -3.048038 1.375551 0
M  V30 23 O -3.075880 -2.901519 1.342893 0
M  V30 24 C -1.209646 -4.145663 0.791650 0
M  V30 25 C -1.950350 -5.128406 0.145557 0
M  V30 26 C -1.405969 -6.246683 -0.457799 0
M  V30 27 C -0.018943 -6.294374 -0.353637 0
M  V30 28 C 0.625117 -7.494395 -0.995252 0
M  V30 29 F 0.670459 -8.519318 -0.074108 0
M  V30 30 F -0.100783 -7.881319 -2.116449 0
M  V30 31 F 1.902741 -7.144222 -1.414344 0
M  V30 32 N 0.758298 -5.381308 0.255403 0
M  V30 33 C 0.179896 -4.289055 0.840341 0
M  V30 34 N 0.962627 -3.378091 1.448570 0
M  V30 35 C 2.379316 -3.570556 1.476378 0
M  V30 36 C 2.977334 -4.243577 2.526240 0
M  V30 37 C 4.366911 -4.391239 2.480120 0
M  V30 38 C 5.095866 -3.870119 1.406068 0
M  V30 39 C 4.442317 -3.206902 0.386029 0
M  V30 40 C 3.073037 -3.048971 0.409212 0
M  V30 41 H 3.062283 -0.318570 4.600963 0
M  V30 42 H 2.288336 1.272660 4.296881 0
M  V30 43 H 3.210413 0.532337 2.979135 0
M  V30 44 H -2.660332 -1.184816 2.998151 0
M  V30 45 H -0.969279 -0.676246 3.482032 0
M  V30 46 H -2.638922 0.362155 1.589166 0
M  V30 47 H 0.583753 2.641959 -0.503118 0
M  V30 48 H 0.009661 4.467497 -1.945478 0
M  V30 49 H -1.908792 7.906032 -4.586459 0
M  V30 50 H -4.401624 7.503562 -4.030145 0
M  V30 51 H -4.615270 5.548789 -2.410125 0
M  V30 52 H -4.176236 3.993269 -1.173700 0
M  V30 53 H -3.676345 2.150101 0.289491 0
M  V30 54 H -3.001240 -4.972915 0.135791 0
M  V30 55 H -1.973111 -7.003992 -0.954409 0
M  V30 56 H 2.337893 -4.610272 3.312054 0
M  V30 57 H 4.837892 -4.918469 3.300931 0
M  V30 58 H 6.183644 -4.007314 1.410898 0
M  V30 59 H 5.002533 -2.802486 -0.445821 0
M  V30 60 H 2.608922 -2.522112 -0.413621 0
M  V30 END ATOM
M  V30 BEGIN BOND
M  V30 1 1 1 2
M  V30 2 1 2 3
M  V30 3 2 3 4
M  V30 4 1 3 5
M  V30 5 2 5 6
M  V30 6 1 6 7
M  V30 7 1 7 8
M  V30 8 1 8 9
M  V30 9 2 9 10
M  V30 10 1 9 11
M  V30 11 2 11 12
M  V30 12 1 12 13
M  V30 13 2 13 14
M  V30 14 1 14 15
M  V30 15 2 15 16
M  V30 16 1 16 17
M  V30 17 2 17 18
M  V30 18 1 18 19
M  V30 19 1 14 20
M  V30 20 2 20 21
M  V30 21 1 6 22
M  V30 22 2 22 23
M  V30 23 1 22 24
M  V30 24 2 24 25
M  V30 25 1 25 26
M  V30 26 2 26 27
M  V30 27 1 27 28
M  V30 28 1 28 29
M  V30 29 1 28 30
M  V30 30 1 28 31
M  V30 31 1 27 32
M  V30 32 2 32 33
M  V30 33 1 33 34
M  V30 34 1 34 35
M  V30 35 2 35 36
M  V30 36 1 36 37
M  V30 37 2 37 38
M  V30 38 1 38 39
M  V30 39 2 39 40
M  V30 40 1 34 5
M  V30 41 1 40 35
M  V30 42 1 21 11
M  V30 43 1 33 24
M  V30 44 1 19 15
M  V30 45 1 1 41
M  V30 46 1 1 42
M  V30 47 1 1 43
M  V30 48 1 7 44
M  V30 49 1 7 45
M  V30 50 1 8 46
M  V30 51 1 12 47
M  V30 52 1 13 48
M  V30 53 1 17 49
M  V30 54 1 18 50
M  V30 55 1 19 51
M  V30 56 1 20 52
M  V30 57 1 21 53
M  V30 58 1 25 54
M  V30 59 1 26 55
M  V30 60 1 36 56
M  V30 61 1 37 57
M  V30 62 1 38 58
M  V30 63 1 39 59
M  V30 64 1 40 60
M  V30 END BOND
M  V30 END CTAB
M  END
>  <Dataset>  (633) 
ChEMBL_Kinases

>  <Ligand_Instance>  (633) 
nan

>  <PDB_ID>  (633) 
nan

>  <Standardized_SMILES>  (633) 
COC(=O)c1c(CNC(=O)c2ccc(-c3ncc[nH]3)cc2)c(=O)c2ccc(C(F)(F)F)nc2n1-c1ccccc1

>  <Name>  (633) 
nan

>  <Pocket>  (633) 
nan

>  <ATP_Site>  (633) 
nan

>  <Peripheral>  (633) 
nan

>  <Num_H_Atoms_ProtBoundConf>  (633) 
nan

>  <Num_Resolved_Atoms>  (633) 
nan

>  <Num_Not_Resolved_Atoms>  (633) 
nan

$$$$
CHEMBL3679571
     RDKit          3D

  0  0  0  0  0  0  0  0  0  0999 V3000
M  V30 BEGIN CTAB
M  V30 COUNTS 65 69 0 0 0
M  V30 BEGIN ATOM
M  V30 1 C 3.326674 0.124994 3.014994 0
M  V30 2 O 2.639381 -1.007565 2.587325 0
M  V30 3 C 1.285699 -1.245574 2.773436 0
M  V30 4 O 1.281887 -0.151293 3.338210 0
M  V30 5 C 0.552174 -2.424479 2.333267 0
M  V30 6 C -0.795555 -2.474199 2.615982 0
M  V30 7 C -1.480092 -1.368952 3.335197 0
M  V30 8 N -1.709583 -0.203962 2.501720 0
M  V30 9 C -2.458017 -0.110401 1.324095 0
M  V30 10 O -3.032367 -1.122888 0.872536 0
M  V30 11 C -2.638072 1.104663 0.543756 0
M  V30 12 C -3.418919 1.073378 -0.592298 0
M  V30 13 C -3.636632 2.200628 -1.391800 0
M  V30 14 C -3.044804 3.390478 -1.026410 0
M  V30 15 N -3.189847 4.595989 -1.749115 0
M  V30 16 C -2.539249 5.850566 -1.388516 0
M  V30 17 C -1.509677 6.121224 -2.486916 0
M  V30 18 O -1.737232 5.330777 -3.617346 0
M  V30 19 C -3.054620 5.321951 -4.022809 0
M  V30 20 C -3.985849 4.801457 -2.940215 0
M  V30 21 N -2.280474 3.436921 0.078922 0
M  V30 22 C -2.092936 2.332806 0.824250 0
M  V30 23 C -1.417522 -3.643864 2.163529 0
M  V30 24 O -2.646406 -3.769668 2.381776 0
M  V30 25 C -0.675651 -4.602460 1.506037 0
M  V30 26 C -1.275473 -5.759114 1.054226 0
M  V30 27 C -0.491227 -6.704433 0.393342 0
M  V30 28 C 0.873365 -6.530987 0.169329 0
M  V30 29 C 1.685379 -7.553606 -0.537136 0
M  V30 30 F 2.380605 -8.356665 0.342019 0
M  V30 31 F 2.635848 -6.890435 -1.295290 0
M  V30 32 F 0.943111 -8.312303 -1.406970 0
M  V30 33 N 1.413601 -5.394681 0.624399 0
M  V30 34 C 0.693839 -4.446462 1.272111 0
M  V30 35 N 1.312793 -3.331444 1.697891 0
M  V30 36 C 2.704899 -3.158198 1.468330 0
M  V30 37 C 3.173984 -2.505693 0.332671 0
M  V30 38 C 4.491176 -2.277002 0.001544 0
M  V30 39 C 5.442662 -2.752270 0.903820 0
M  V30 40 C 5.030994 -3.408320 2.048997 0
M  V30 41 C 3.694974 -3.604632 2.321285 0
M  V30 42 H 2.928909 1.053667 2.606189 0
M  V30 43 H 3.415790 0.155222 4.131465 0
M  V30 44 H 4.389832 -0.006362 2.656037 0
M  V30 45 H -1.006175 -1.118961 4.284888 0
M  V30 46 H -2.515977 -1.730999 3.600804 0
M  V30 47 H -1.266070 0.708369 2.799294 0
M  V30 48 H -3.915035 0.161612 -0.935307 0
M  V30 49 H -4.250519 2.155233 -2.276239 0
M  V30 50 H -3.282933 6.672409 -1.353868 0
M  V30 51 H -2.038005 5.704366 -0.402889 0
M  V30 52 H -0.475621 5.863788 -2.154577 0
M  V30 53 H -1.469923 7.206895 -2.712635 0
M  V30 54 H -3.105334 4.634741 -4.898585 0
M  V30 55 H -3.401054 6.322180 -4.400930 0
M  V30 56 H -4.513505 3.899245 -3.292617 0
M  V30 57 H -4.743471 5.609547 -2.724987 0
M  V30 58 H -1.469978 2.413780 1.707161 0
M  V30 59 H -2.323783 -5.901901 1.221484 0
M  V30 60 H -0.941609 -7.616685 0.031657 0
M  V30 61 H 2.426827 -2.138253 -0.365226 0
M  V30 62 H 4.734141 -1.758456 -0.908317 0
M  V30 63 H 6.488168 -2.586985 0.670234 0
M  V30 64 H 5.815014 -3.755169 2.712547 0
M  V30 65 H 3.386405 -4.129367 3.239031 0
M  V30 END ATOM
M  V30 BEGIN BOND
M  V30 1 1 1 2
M  V30 2 1 2 3
M  V30 3 2 3 4
M  V30 4 1 3 5
M  V30 5 2 5 6
M  V30 6 1 6 7
M  V30 7 1 7 8
M  V30 8 1 8 9
M  V30 9 2 9 10
M  V30 10 1 9 11
M  V30 11 2 11 12
M  V30 12 1 12 13
M  V30 13 2 13 14
M  V30 14 1 14 15
M  V30 15 1 15 16
M  V30 16 1 16 17
M  V30 17 1 17 18
M  V30 18 1 18 19
M  V30 19 1 19 20
M  V30 20 1 14 21
M  V30 21 2 21 22
M  V30 22 1 6 23
M  V30 23 2 23 24
M  V30 24 1 23 25
M  V30 25 2 25 26
M  V30 26 1 26 27
M  V30 27 2 27 28
M  V30 28 1 28 29
M  V30 29 1 29 30
M  V30 30 1 29 31
M  V30 31 1 29 32
M  V30 32 1 28 33
M  V30 33 2 33 34
M  V30 34 1 34 35
M  V30 35 1 35 36
M  V30 36 2 36 37
M  V30 37 1 37 38
M  V30 38 2 38 39
M  V30 39 1 39 40
M  V30 40 2 40 41
M  V30 41 1 35 5
M  V30 42 1 41 36
M  V30 43 1 22 11
M  V30 44 1 34 25
M  V30 45 1 20 15
M  V30 46 1 1 42
M  V30 47 1 1 43
M  V30 48 1 1 44
M  V30 49 1 7 45
M  V30 50 1 7 46
M  V30 51 1 8 47
M  V30 52 1 12 48
M  V30 53 1 13 49
M  V30 54 1 16 50
M  V30 55 1 16 51
M  V30 56 1 17 52
M  V30 57 1 17 53
M  V30 58 1 19 54
M  V30 59 1 19 55
M  V30 60 1 20 56
M  V30 61 1 20 57
M  V30 62 1 22 58
M  V30 63 1 26 59
M  V30 64 1 27 60
M  V30 65 1 37 61
M  V30 66 1 38 62
M  V30 67 1 39 63
M  V30 68 1 40 64
M  V30 69 1 41 65
M  V30 END BOND
M  V30 END CTAB
M  END
>  <Dataset>  (634) 
ChEMBL_Kinases

>  <Ligand_Instance>  (634) 
nan

>  <PDB_ID>  (634) 
nan

>  <Standardized_SMILES>  (634) 
COC(=O)c1c(CNC(=O)c2ccc(N3CCOCC3)nc2)c(=O)c2ccc(C(F)(F)F)nc2n1-c1ccccc1

>  <Name>  (634) 
nan

>  <Pocket>  (634) 
nan

>  <ATP_Site>  (634) 
nan

>  <Peripheral>  (634) 
nan

>  <Num_H_Atoms_ProtBoundConf>  (634) 
nan

>  <Num_Resolved_Atoms>  (634) 
nan

>  <Num_Not_Resolved_Atoms>  (634) 
nan

$$$$
CHEMBL3679570
     RDKit          3D

  0  0  0  0  0  0  0  0  0  0999 V3000
M  V30 BEGIN CTAB
M  V30 COUNTS 51 54 0 0 0
M  V30 BEGIN ATOM
M  V30 1 C 0.946589 -2.980371 -2.527787 0
M  V30 2 O 0.175321 -2.611162 -1.428985 0
M  V30 3 C 0.732174 -2.203481 -0.230377 0
M  V30 4 O 1.939873 -2.309153 -0.553316 0
M  V30 5 C 0.000929 -1.805193 0.951190 0
M  V30 6 C 0.705998 -1.415168 2.049248 0
M  V30 7 C 2.147699 -1.205547 2.186294 0
M  V30 8 N 2.540189 0.105536 1.821155 0
M  V30 9 C 2.548317 1.080469 0.807960 0
M  V30 10 O 1.985018 0.704784 -0.248698 0
M  V30 11 C 3.104661 2.418763 0.826109 0
M  V30 12 C 2.945108 3.155564 -0.316627 0
M  V30 13 C 3.455260 4.450676 -0.376410 0
M  V30 14 C 4.128785 5.015004 0.708840 0
M  V30 15 C 4.280468 4.260677 1.849377 0
M  V30 16 C 3.774345 2.976193 1.909296 0
M  V30 17 C -0.126025 -1.133243 3.138868 0
M  V30 18 O 0.363467 -0.757912 4.246268 0
M  V30 19 C -1.500226 -1.237542 3.100318 0
M  V30 20 C -2.302588 -0.955476 4.180120 0
M  V30 21 C -3.677086 -1.063424 4.125248 0
M  V30 22 C -4.257756 -1.472845 2.929187 0
M  V30 23 C -3.484147 -1.765710 1.820731 0
M  V30 24 C -2.095446 -1.644260 1.916954 0
M  V30 25 N -1.330771 -1.925835 0.846890 0
M  V30 26 C -1.990389 -2.336247 -0.328536 0
M  V30 27 C -2.151604 -3.712603 -0.412564 0
M  V30 28 C -2.782300 -4.279617 -1.501488 0
M  V30 29 C -3.245942 -3.448654 -2.498516 0
M  V30 30 C -3.075522 -2.069315 -2.397825 0
M  V30 31 C -2.444882 -1.492053 -1.310827 0
M  V30 32 H 0.324961 -3.508834 -3.308104 0
M  V30 33 H 1.875049 -3.516877 -2.319512 0
M  V30 34 H 1.251133 -2.013865 -3.030127 0
M  V30 35 H 2.395457 -1.385807 3.250621 0
M  V30 36 H 2.725097 -1.999241 1.633367 0
M  V30 37 H 3.051934 0.598593 2.630630 0
M  V30 38 H 2.431539 2.806437 -1.226420 0
M  V30 39 H 3.319488 5.017693 -1.286443 0
M  V30 40 H 4.533548 6.031656 0.671807 0
M  V30 41 H 4.806128 4.670833 2.725694 0
M  V30 42 H 3.906251 2.409602 2.810431 0
M  V30 43 H -1.866688 -0.637926 5.111228 0
M  V30 44 H -4.339312 -0.849403 4.953898 0
M  V30 45 H -5.334029 -1.564051 2.861926 0
M  V30 46 H -3.967278 -2.083570 0.899618 0
M  V30 47 H -1.813178 -4.430856 0.333970 0
M  V30 48 H -2.923584 -5.342049 -1.599230 0
M  V30 49 H -3.750712 -3.833590 -3.378679 0
M  V30 50 H -3.421938 -1.384827 -3.155384 0
M  V30 51 H -2.265682 -0.453475 -1.136729 0
M  V30 END ATOM
M  V30 BEGIN BOND
M  V30 1 1 1 2
M  V30 2 1 2 3
M  V30 3 2 3 4
M  V30 4 1 3 5
M  V30 5 2 5 6
M  V30 6 1 6 7
M  V30 7 1 7 8
M  V30 8 1 8 9
M  V30 9 2 9 10
M  V30 10 1 9 11
M  V30 11 2 11 12
M  V30 12 1 12 13
M  V30 13 2 13 14
M  V30 14 1 14 15
M  V30 15 2 15 16
M  V30 16 1 6 17
M  V30 17 2 17 18
M  V30 18 1 17 19
M  V30 19 2 19 20
M  V30 20 1 20 21
M  V30 21 2 21 22
M  V30 22 1 22 23
M  V30 23 2 23 24
M  V30 24 1 24 25
M  V30 25 1 25 26
M  V30 26 2 26 27
M  V30 27 1 27 28
M  V30 28 2 28 29
M  V30 29 1 29 30
M  V30 30 2 30 31
M  V30 31 1 25 5
M  V30 32 1 31 26
M  V30 33 1 16 11
M  V30 34 1 24 19
M  V30 35 1 1 32
M  V30 36 1 1 33
M  V30 37 1 1 34
M  V30 38 1 7 35
M  V30 39 1 7 36
M  V30 40 1 8 37
M  V30 41 1 12 38
M  V30 42 1 13 39
M  V30 43 1 14 40
M  V30 44 1 15 41
M  V30 45 1 16 42
M  V30 46 1 20 43
M  V30 47 1 21 44
M  V30 48 1 22 45
M  V30 49 1 23 46
M  V30 50 1 27 47
M  V30 51 1 28 48
M  V30 52 1 29 49
M  V30 53 1 30 50
M  V30 54 1 31 51
M  V30 END BOND
M  V30 END CTAB
M  END
>  <Dataset>  (635) 
ChEMBL_Kinases

>  <Ligand_Instance>  (635) 
nan

>  <PDB_ID>  (635) 
nan

>  <Standardized_SMILES>  (635) 
COC(=O)c1c(CNC(=O)c2ccccc2)c(=O)c2ccccc2n1-c1ccccc1

>  <Name>  (635) 
nan

>  <Pocket>  (635) 
nan

>  <ATP_Site>  (635) 
nan

>  <Peripheral>  (635) 
nan

>  <Num_H_Atoms_ProtBoundConf>  (635) 
nan

>  <Num_Resolved_Atoms>  (635) 
nan

>  <Num_Not_Resolved_Atoms>  (635) 
nan

$$$$
CHEMBL3679486
     RDKit          3D

  0  0  0  0  0  0  0  0  0  0999 V3000
M  V30 BEGIN CTAB
M  V30 COUNTS 56 59 0 0 0
M  V30 BEGIN ATOM
M  V30 1 C 6.187383 -2.803347 -2.237936 0
M  V30 2 N 6.049048 -1.780049 -1.204788 0
M  V30 3 C 7.033618 -1.569897 -0.192976 0
M  V30 4 C 6.696223 -0.459318 0.766841 0
M  V30 5 O 7.748237 -0.386039 1.681008 0
M  V30 6 C 4.884933 -0.938659 -1.180097 0
M  V30 7 C 4.777720 0.261802 -1.831367 0
M  V30 8 C 3.562197 0.945429 -1.692746 0
M  V30 9 C 2.559074 0.382185 -0.922145 0
M  V30 10 C 1.324472 1.154064 -0.826494 0
M  V30 11 O 1.247523 2.255973 -1.426688 0
M  V30 12 N 0.185769 0.731627 -0.086196 0
M  V30 13 C -1.043308 1.451702 0.037086 0
M  V30 14 C -2.062218 0.774569 0.871539 0
M  V30 15 C -3.116486 0.142255 0.211276 0
M  V30 16 N -4.101459 -0.506234 0.866889 0
M  V30 17 C -5.179712 -1.153967 0.204624 0
M  V30 18 C -4.784610 -2.364193 -0.343355 0
M  V30 19 C -5.676122 -3.172031 -1.039598 0
M  V30 20 C -6.972841 -2.725474 -1.166638 0
M  V30 21 C -7.386410 -1.521526 -0.627404 0
M  V30 22 C -6.486241 -0.739502 0.057241 0
M  V30 23 C -4.065470 -0.545434 2.227975 0
M  V30 24 C -5.035374 -1.188210 2.978281 0
M  V30 25 C -4.971677 -1.210799 4.368685 0
M  V30 26 Cl -6.246286 -2.049114 5.223182 0
M  V30 27 C -3.908873 -0.572411 5.011879 0
M  V30 28 C -2.937240 0.070664 4.278930 0
M  V30 29 C -3.029303 0.075414 2.889732 0
M  V30 30 C -2.013654 0.742437 2.250652 0
M  V30 31 O -1.038666 1.332923 2.731586 0
M  V30 32 C 2.731690 -0.831645 -0.291966 0
M  V30 33 N 3.909887 -1.491391 -0.428081 0
M  V30 34 H 6.050019 -3.833469 -1.794238 0
M  V30 35 H 7.162738 -2.770178 -2.733758 0
M  V30 36 H 5.424569 -2.728862 -3.009255 0
M  V30 37 H 7.995962 -1.306833 -0.677409 0
M  V30 38 H 7.222246 -2.470452 0.429456 0
M  V30 39 H 6.698488 0.535552 0.246366 0
M  V30 40 H 5.784108 -0.628348 1.350647 0
M  V30 41 H 7.454412 -0.382426 2.622204 0
M  V30 42 H 5.612279 0.609280 -2.401761 0
M  V30 43 H 3.473328 1.893604 -2.205234 0
M  V30 44 H 0.218249 -0.174352 0.420449 0
M  V30 45 H -0.797283 2.411794 0.572849 0
M  V30 46 H -1.442186 1.750761 -0.947339 0
M  V30 47 H -3.229971 0.120348 -0.877252 0
M  V30 48 H -3.776545 -2.800296 -0.293407 0
M  V30 49 H -5.386998 -4.132188 -1.481567 0
M  V30 50 H -7.719223 -3.318599 -1.704129 0
M  V30 51 H -8.397166 -1.148524 -0.712968 0
M  V30 52 H -6.674829 0.214465 0.524235 0
M  V30 53 H -5.831058 -1.662093 2.407304 0
M  V30 54 H -3.875624 -0.600775 6.104950 0
M  V30 55 H -2.118663 0.560492 4.816494 0
M  V30 56 H 1.934826 -1.256567 0.307277 0
M  V30 END ATOM
M  V30 BEGIN BOND
M  V30 1 1 1 2
M  V30 2 1 2 3
M  V30 3 1 3 4
M  V30 4 1 4 5
M  V30 5 1 2 6
M  V30 6 2 6 7
M  V30 7 1 7 8
M  V30 8 2 8 9
M  V30 9 1 9 10
M  V30 10 2 10 11
M  V30 11 1 10 12
M  V30 12 1 12 13
M  V30 13 1 13 14
M  V30 14 2 14 15
M  V30 15 1 15 16
M  V30 16 1 16 17
M  V30 17 2 17 18
M  V30 18 1 18 19
M  V30 19 2 19 20
M  V30 20 1 20 21
M  V30 21 2 21 22
M  V30 22 1 16 23
M  V30 23 2 23 24
M  V30 24 1 24 25
M  V30 25 1 25 26
M  V30 26 2 25 27
M  V30 27 1 27 28
M  V30 28 2 28 29
M  V30 29 1 29 30
M  V30 30 2 30 31
M  V30 31 1 9 32
M  V30 32 2 32 33
M  V30 33 1 33 6
M  V30 34 1 30 14
M  V30 35 1 22 17
M  V30 36 1 29 23
M  V30 37 1 1 34
M  V30 38 1 1 35
M  V30 39 1 1 36
M  V30 40 1 3 37
M  V30 41 1 3 38
M  V30 42 1 4 39
M  V30 43 1 4 40
M  V30 44 1 5 41
M  V30 45 1 7 42
M  V30 46 1 8 43
M  V30 47 1 12 44
M  V30 48 1 13 45
M  V30 49 1 13 46
M  V30 50 1 15 47
M  V30 51 1 18 48
M  V30 52 1 19 49
M  V30 53 1 20 50
M  V30 54 1 21 51
M  V30 55 1 22 52
M  V30 56 1 24 53
M  V30 57 1 27 54
M  V30 58 1 28 55
M  V30 59 1 32 56
M  V30 END BOND
M  V30 END CTAB
M  END
>  <Dataset>  (636) 
ChEMBL_Kinases

>  <Ligand_Instance>  (636) 
nan

>  <PDB_ID>  (636) 
nan

>  <Standardized_SMILES>  (636) 
CN(CCO)c1ccc(C(=O)NCc2cn(-c3ccccc3)c3cc(Cl)ccc3c2=O)cn1

>  <Name>  (636) 
nan

>  <Pocket>  (636) 
nan

>  <ATP_Site>  (636) 
nan

>  <Peripheral>  (636) 
nan

>  <Num_H_Atoms_ProtBoundConf>  (636) 
nan

>  <Num_Resolved_Atoms>  (636) 
nan

>  <Num_Not_Resolved_Atoms>  (636) 
nan

$$$$
CHEMBL3679553
     RDKit          3D

  0  0  0  0  0  0  0  0  0  0999 V3000
M  V30 BEGIN CTAB
M  V30 COUNTS 55 58 0 0 0
M  V30 BEGIN ATOM
M  V30 1 C 3.939785 -0.130158 -0.202830 0
M  V30 2 O 2.919175 -0.763396 0.503572 0
M  V30 3 C 1.961528 -1.580930 -0.052266 0
M  V30 4 O 2.393641 -1.472316 -1.221422 0
M  V30 5 C 0.820448 -2.351539 0.399204 0
M  V30 6 C 0.447934 -2.383383 1.710159 0
M  V30 7 C 1.156084 -1.635415 2.776294 0
M  V30 8 N 0.858690 -0.221703 2.735371 0
M  V30 9 C -0.374011 0.461506 2.849776 0
M  V30 10 O -1.399365 -0.253764 3.015592 0
M  V30 11 C -0.513706 1.893349 2.787823 0
M  V30 12 C 0.503187 2.813287 2.615285 0
M  V30 13 C 0.315560 4.173444 2.561774 0
M  V30 14 C -0.956525 4.694588 2.684266 0
M  V30 15 O -1.103337 6.073041 2.624827 0
M  V30 16 C -2.314341 6.759364 2.730425 0
M  V30 17 C -2.013885 3.824634 2.858781 0
M  V30 18 C -1.760534 2.472841 2.904080 0
M  V30 19 C -0.664151 -3.181074 1.998581 0
M  V30 20 O -1.110087 -3.300189 3.161697 0
M  V30 21 C -1.335944 -3.886950 1.011389 0
M  V30 22 C -2.425675 -4.663014 1.323587 0
M  V30 23 C -3.088976 -5.362662 0.337940 0
M  V30 24 C -2.640744 -5.267971 -0.952028 0
M  V30 25 Cl -3.525653 -6.179722 -2.151517 0
M  V30 26 C -1.545890 -4.486761 -1.258026 0
M  V30 27 C -0.865166 -3.775059 -0.279004 0
M  V30 28 N 0.201834 -3.016678 -0.588696 0
M  V30 29 C 0.571523 -2.997134 -1.962301 0
M  V30 30 C 0.053294 -1.882044 -2.624289 0
M  V30 31 C 0.283311 -1.655960 -3.966306 0
M  V30 32 C 1.059077 -2.581647 -4.662412 0
M  V30 33 C 1.571372 -3.684072 -4.007554 0
M  V30 34 C 1.336145 -3.902185 -2.664877 0
M  V30 35 H 3.689460 0.915961 -0.526184 0
M  V30 36 H 4.394082 -0.733677 -1.016162 0
M  V30 37 H 4.784681 0.005444 0.536992 0
M  V30 38 H 2.233900 -1.821409 2.776814 0
M  V30 39 H 0.737112 -1.988996 3.766022 0
M  V30 40 H 1.672942 0.436116 2.603670 0
M  V30 41 H 1.508951 2.445009 2.515884 0
M  V30 42 H 1.174120 4.820246 2.422987 0
M  V30 43 H -3.214487 6.186586 2.485228 0
M  V30 44 H -2.475010 7.171111 3.756810 0
M  V30 45 H -2.235640 7.646507 2.057934 0
M  V30 46 H -3.011061 4.212750 2.955864 0
M  V30 47 H -2.633614 1.831945 3.043815 0
M  V30 48 H -2.757598 -4.718385 2.356259 0
M  V30 49 H -3.934737 -5.951784 0.649016 0
M  V30 50 H -1.218217 -4.435064 -2.292741 0
M  V30 51 H -0.561162 -1.102924 -2.176703 0
M  V30 52 H -0.091752 -0.814380 -4.523709 0
M  V30 53 H 1.260522 -2.435999 -5.718193 0
M  V30 54 H 2.183503 -4.437486 -4.503766 0
M  V30 55 H 1.684490 -4.722834 -2.059483 0
M  V30 END ATOM
M  V30 BEGIN BOND
M  V30 1 1 1 2
M  V30 2 1 2 3
M  V30 3 2 3 4
M  V30 4 1 3 5
M  V30 5 2 5 6
M  V30 6 1 6 7
M  V30 7 1 7 8
M  V30 8 1 8 9
M  V30 9 2 9 10
M  V30 10 1 9 11
M  V30 11 2 11 12
M  V30 12 1 12 13
M  V30 13 2 13 14
M  V30 14 1 14 15
M  V30 15 1 15 16
M  V30 16 1 14 17
M  V30 17 2 17 18
M  V30 18 1 6 19
M  V30 19 2 19 20
M  V30 20 1 19 21
M  V30 21 2 21 22
M  V30 22 1 22 23
M  V30 23 2 23 24
M  V30 24 1 24 25
M  V30 25 1 24 26
M  V30 26 2 26 27
M  V30 27 1 27 28
M  V30 28 1 28 29
M  V30 29 2 29 30
M  V30 30 1 30 31
M  V30 31 2 31 32
M  V30 32 1 32 33
M  V30 33 2 33 34
M  V30 34 1 28 5
M  V30 35 1 34 29
M  V30 36 1 18 11
M  V30 37 1 27 21
M  V30 38 1 1 35
M  V30 39 1 1 36
M  V30 40 1 1 37
M  V30 41 1 7 38
M  V30 42 1 7 39
M  V30 43 1 8 40
M  V30 44 1 12 41
M  V30 45 1 13 42
M  V30 46 1 16 43
M  V30 47 1 16 44
M  V30 48 1 16 45
M  V30 49 1 17 46
M  V30 50 1 18 47
M  V30 51 1 22 48
M  V30 52 1 23 49
M  V30 53 1 26 50
M  V30 54 1 30 51
M  V30 55 1 31 52
M  V30 56 1 32 53
M  V30 57 1 33 54
M  V30 58 1 34 55
M  V30 END BOND
M  V30 END CTAB
M  END
>  <Dataset>  (637) 
ChEMBL_Kinases

>  <Ligand_Instance>  (637) 
nan

>  <PDB_ID>  (637) 
nan

>  <Standardized_SMILES>  (637) 
COC(=O)c1c(CNC(=O)c2ccc(OC)cc2)c(=O)c2ccc(Cl)cc2n1-c1ccccc1

>  <Name>  (637) 
nan

>  <Pocket>  (637) 
nan

>  <ATP_Site>  (637) 
nan

>  <Peripheral>  (637) 
nan

>  <Num_H_Atoms_ProtBoundConf>  (637) 
nan

>  <Num_Resolved_Atoms>  (637) 
nan

>  <Num_Not_Resolved_Atoms>  (637) 
nan

$$$$
CHEMBL3679554
     RDKit          3D

  0  0  0  0  0  0  0  0  0  0999 V3000
M  V30 BEGIN CTAB
M  V30 COUNTS 55 58 0 0 0
M  V30 BEGIN ATOM
M  V30 1 C 3.448479 0.192802 -0.593069 0
M  V30 2 O 2.515139 -0.555787 0.162419 0
M  V30 3 C 1.484537 -1.275847 -0.420132 0
M  V30 4 O 1.788158 -0.963176 -1.574090 0
M  V30 5 C 0.443145 -2.093045 0.168766 0
M  V30 6 C 0.296396 -2.311660 1.521218 0
M  V30 7 C 1.250606 -1.675837 2.468467 0
M  V30 8 N 0.846546 -0.266071 2.561572 0
M  V30 9 C 1.504413 0.699455 3.364828 0
M  V30 10 O 2.506283 0.322974 4.044406 0
M  V30 11 C 1.112096 2.084226 3.463496 0
M  V30 12 C 1.875806 2.911871 4.286140 0
M  V30 13 C 1.539916 4.259806 4.422175 0
M  V30 14 C 0.464339 4.817323 3.764822 0
M  V30 15 C -0.310068 3.996969 2.936190 0
M  V30 16 O -1.416729 4.487424 2.235820 0
M  V30 17 C -2.198254 3.654454 1.399022 0
M  V30 18 C 0.060457 2.672689 2.833316 0
M  V30 19 C -0.746168 -3.115506 1.929425 0
M  V30 20 O -0.830375 -3.279636 3.175343 0
M  V30 21 C -1.621656 -3.688816 1.028725 0
M  V30 22 C -2.623866 -4.471035 1.551724 0
M  V30 23 C -3.496298 -5.040786 0.650228 0
M  V30 24 C -3.337619 -4.812922 -0.700799 0
M  V30 25 Cl -4.502776 -5.586279 -1.742997 0
M  V30 26 C -2.304270 -4.011968 -1.172313 0
M  V30 27 C -1.406526 -3.420762 -0.306774 0
M  V30 28 N -0.396622 -2.640071 -0.731115 0
M  V30 29 C -0.322791 -2.470526 -2.140442 0
M  V30 30 C -0.701484 -1.249992 -2.712399 0
M  V30 31 C -0.624555 -1.098558 -4.087591 0
M  V30 32 C -0.189830 -2.103099 -4.911352 0
M  V30 33 C 0.172566 -3.291481 -4.288337 0
M  V30 34 C 0.121723 -3.515411 -2.917438 0
M  V30 35 H 3.049676 1.149174 -0.927379 0
M  V30 36 H 3.866653 -0.431437 -1.434050 0
M  V30 37 H 4.321974 0.406310 0.090655 0
M  V30 38 H 1.102620 -2.066495 3.503327 0
M  V30 39 H 2.286463 -1.775807 2.128817 0
M  V30 40 H 0.025933 0.131237 2.028183 0
M  V30 41 H 2.749570 2.585168 4.856634 0
M  V30 42 H 2.096628 4.959109 5.050699 0
M  V30 43 H 0.185847 5.864761 3.857702 0
M  V30 44 H -2.593820 2.794500 1.992097 0
M  V30 45 H -3.050265 4.243482 1.014925 0
M  V30 46 H -1.569604 3.212252 0.605043 0
M  V30 47 H -0.549157 2.073941 2.194387 0
M  V30 48 H -2.702062 -4.616367 2.618326 0
M  V30 49 H -4.286951 -5.658763 1.076990 0
M  V30 50 H -2.217141 -3.859626 -2.239118 0
M  V30 51 H -1.046412 -0.460306 -2.028764 0
M  V30 52 H -0.930440 -0.133376 -4.466982 0
M  V30 53 H -0.132815 -1.979584 -5.972260 0
M  V30 54 H 0.515091 -4.071909 -4.983610 0
M  V30 55 H 0.422577 -4.468922 -2.527629 0
M  V30 END ATOM
M  V30 BEGIN BOND
M  V30 1 1 1 2
M  V30 2 1 2 3
M  V30 3 2 3 4
M  V30 4 1 3 5
M  V30 5 2 5 6
M  V30 6 1 6 7
M  V30 7 1 7 8
M  V30 8 1 8 9
M  V30 9 2 9 10
M  V30 10 1 9 11
M  V30 11 2 11 12
M  V30 12 1 12 13
M  V30 13 2 13 14
M  V30 14 1 14 15
M  V30 15 1 15 16
M  V30 16 1 16 17
M  V30 17 2 15 18
M  V30 18 1 6 19
M  V30 19 2 19 20
M  V30 20 1 19 21
M  V30 21 2 21 22
M  V30 22 1 22 23
M  V30 23 2 23 24
M  V30 24 1 24 25
M  V30 25 1 24 26
M  V30 26 2 26 27
M  V30 27 1 27 28
M  V30 28 1 28 29
M  V30 29 2 29 30
M  V30 30 1 30 31
M  V30 31 2 31 32
M  V30 32 1 32 33
M  V30 33 2 33 34
M  V30 34 1 28 5
M  V30 35 1 34 29
M  V30 36 1 18 11
M  V30 37 1 27 21
M  V30 38 1 1 35
M  V30 39 1 1 36
M  V30 40 1 1 37
M  V30 41 1 7 38
M  V30 42 1 7 39
M  V30 43 1 8 40
M  V30 44 1 12 41
M  V30 45 1 13 42
M  V30 46 1 14 43
M  V30 47 1 17 44
M  V30 48 1 17 45
M  V30 49 1 17 46
M  V30 50 1 18 47
M  V30 51 1 22 48
M  V30 52 1 23 49
M  V30 53 1 26 50
M  V30 54 1 30 51
M  V30 55 1 31 52
M  V30 56 1 32 53
M  V30 57 1 33 54
M  V30 58 1 34 55
M  V30 END BOND
M  V30 END CTAB
M  END
>  <Dataset>  (638) 
ChEMBL_Kinases

>  <Ligand_Instance>  (638) 
nan

>  <PDB_ID>  (638) 
nan

>  <Standardized_SMILES>  (638) 
COC(=O)c1c(CNC(=O)c2cccc(OC)c2)c(=O)c2ccc(Cl)cc2n1-c1ccccc1

>  <Name>  (638) 
nan

>  <Pocket>  (638) 
nan

>  <ATP_Site>  (638) 
nan

>  <Peripheral>  (638) 
nan

>  <Num_H_Atoms_ProtBoundConf>  (638) 
nan

>  <Num_Resolved_Atoms>  (638) 
nan

>  <Num_Not_Resolved_Atoms>  (638) 
nan

$$$$
CHEMBL3679555
     RDKit          3D

  0  0  0  0  0  0  0  0  0  0999 V3000
M  V30 BEGIN CTAB
M  V30 COUNTS 50 53 0 0 0
M  V30 BEGIN ATOM
M  V30 1 C 1.841953 -4.018679 1.807957 0
M  V30 2 O 1.325039 -2.731950 1.965932 0
M  V30 3 C 0.168951 -2.230165 1.411274 0
M  V30 4 O -0.176367 -3.258849 0.796622 0
M  V30 5 C -0.595583 -1.003913 1.387386 0
M  V30 6 C -0.092831 0.065693 2.075052 0
M  V30 7 C 1.205676 0.246395 2.750129 0
M  V30 8 N 2.280864 0.684448 1.919260 0
M  V30 9 C 3.052380 0.378967 0.780508 0
M  V30 10 O 2.702651 -0.691250 0.232979 0
M  V30 11 C 4.150341 1.138009 0.210334 0
M  V30 12 C 4.704034 0.555963 -0.905447 0
M  V30 13 C 5.774064 1.207893 -1.536418 0
M  V30 14 N 6.247350 2.375251 -1.061246 0
M  V30 15 C 5.664417 2.892865 0.031764 0
M  V30 16 C 4.608034 2.330556 0.724498 0
M  V30 17 C -0.864902 1.232834 2.120999 0
M  V30 18 O -0.546951 2.297912 2.710879 0
M  V30 19 C -2.101651 1.250095 1.465269 0
M  V30 20 C -2.934925 2.335006 1.446020 0
M  V30 21 C -4.151092 2.343009 0.797254 0
M  V30 22 C -4.558903 1.191435 0.125157 0
M  V30 23 Cl -6.097948 1.090905 -0.738879 0
M  V30 24 C -3.721253 0.081505 0.137087 0
M  V30 25 C -2.491417 0.102840 0.804667 0
M  V30 26 N -1.765752 -1.027223 0.749995 0
M  V30 27 C -2.196406 -2.184498 0.063375 0
M  V30 28 C -2.944857 -3.139896 0.673124 0
M  V30 29 C -3.399091 -4.302829 0.042877 0
M  V30 30 C -3.034405 -4.436015 -1.281678 0
M  V30 31 C -2.278692 -3.517814 -1.977308 0
M  V30 32 C -1.878691 -2.402879 -1.266247 0
M  V30 33 H 2.732147 -4.044337 1.117973 0
M  V30 34 H 2.264521 -4.325441 2.812040 0
M  V30 35 H 1.141505 -4.782480 1.448836 0
M  V30 36 H 1.557875 -0.763408 3.161349 0
M  V30 37 H 1.137384 0.863431 3.651561 0
M  V30 38 H 2.680779 1.617239 2.277663 0
M  V30 39 H 4.409122 -0.375950 -1.377094 0
M  V30 40 H 6.225295 0.770784 -2.414143 0
M  V30 41 H 6.069187 3.843148 0.397421 0
M  V30 42 H 4.163910 2.774125 1.600308 0
M  V30 43 H -2.640234 3.233673 1.958075 0
M  V30 44 H -4.812544 3.179850 0.771646 0
M  V30 45 H -4.053401 -0.814881 -0.393134 0
M  V30 46 H -3.208549 -2.992090 1.715586 0
M  V30 47 H -3.995325 -5.048029 0.556705 0
M  V30 48 H -3.375257 -5.334231 -1.795696 0
M  V30 49 H -2.009338 -3.656002 -3.021619 0
M  V30 50 H -1.279593 -1.642460 -1.761389 0
M  V30 END ATOM
M  V30 BEGIN BOND
M  V30 1 1 1 2
M  V30 2 1 2 3
M  V30 3 2 3 4
M  V30 4 1 3 5
M  V30 5 2 5 6
M  V30 6 1 6 7
M  V30 7 1 7 8
M  V30 8 1 8 9
M  V30 9 2 9 10
M  V30 10 1 9 11
M  V30 11 2 11 12
M  V30 12 1 12 13
M  V30 13 2 13 14
M  V30 14 1 14 15
M  V30 15 2 15 16
M  V30 16 1 6 17
M  V30 17 2 17 18
M  V30 18 1 17 19
M  V30 19 2 19 20
M  V30 20 1 20 21
M  V30 21 2 21 22
M  V30 22 1 22 23
M  V30 23 1 22 24
M  V30 24 2 24 25
M  V30 25 1 25 26
M  V30 26 1 26 27
M  V30 27 2 27 28
M  V30 28 1 28 29
M  V30 29 2 29 30
M  V30 30 1 30 31
M  V30 31 2 31 32
M  V30 32 1 26 5
M  V30 33 1 32 27
M  V30 34 1 16 11
M  V30 35 1 25 19
M  V30 36 1 1 33
M  V30 37 1 1 34
M  V30 38 1 1 35
M  V30 39 1 7 36
M  V30 40 1 7 37
M  V30 41 1 8 38
M  V30 42 1 12 39
M  V30 43 1 13 40
M  V30 44 1 15 41
M  V30 45 1 16 42
M  V30 46 1 20 43
M  V30 47 1 21 44
M  V30 48 1 24 45
M  V30 49 1 28 46
M  V30 50 1 29 47
M  V30 51 1 30 48
M  V30 52 1 31 49
M  V30 53 1 32 50
M  V30 END BOND
M  V30 END CTAB
M  END
>  <Dataset>  (639) 
ChEMBL_Kinases

>  <Ligand_Instance>  (639) 
nan

>  <PDB_ID>  (639) 
nan

>  <Standardized_SMILES>  (639) 
COC(=O)c1c(CNC(=O)c2ccncc2)c(=O)c2ccc(Cl)cc2n1-c1ccccc1

>  <Name>  (639) 
nan

>  <Pocket>  (639) 
nan

>  <ATP_Site>  (639) 
nan

>  <Peripheral>  (639) 
nan

>  <Num_H_Atoms_ProtBoundConf>  (639) 
nan

>  <Num_Resolved_Atoms>  (639) 
nan

>  <Num_Not_Resolved_Atoms>  (639) 
nan

$$$$
CHEMBL3679556
     RDKit          3D

  0  0  0  0  0  0  0  0  0  0999 V3000
M  V30 BEGIN CTAB
M  V30 COUNTS 51 54 0 0 0
M  V30 BEGIN ATOM
M  V30 1 C 3.372041 -2.790160 -0.497169 0
M  V30 2 O 2.503778 -2.222285 0.449374 0
M  V30 3 C 1.128718 -2.299885 0.379990 0
M  V30 4 O 1.140435 -2.961806 -0.684537 0
M  V30 5 C -0.001788 -1.845772 1.156061 0
M  V30 6 C 0.242146 -1.120850 2.289767 0
M  V30 7 C 1.540214 -0.617516 2.811758 0
M  V30 8 N 1.814969 0.652270 2.212076 0
M  V30 9 C 2.006375 1.434795 1.078911 0
M  V30 10 O 1.889021 0.737445 0.037880 0
M  V30 11 C 2.301053 2.858008 1.016770 0
M  V30 12 C 2.521909 3.677250 2.104022 0
M  V30 13 C 2.780513 5.011065 1.898641 0
M  V30 14 C 2.828172 5.567154 0.640268 0
M  V30 15 F 3.079434 6.878075 0.369851 0
M  V30 16 C 2.603206 4.724078 -0.449091 0
M  V30 17 F 2.634313 5.205110 -1.720755 0
M  V30 18 C 2.343828 3.387720 -0.247920 0
M  V30 19 C -0.925898 -0.790874 2.988057 0
M  V30 20 O -0.803317 -0.117713 4.060170 0
M  V30 21 C -2.204278 -1.157178 2.575194 0
M  V30 22 C -3.332959 -0.810032 3.290760 0
M  V30 23 C -4.572329 -1.209682 2.813148 0
M  V30 24 C -4.687810 -1.936667 1.653299 0
M  V30 25 Cl -6.200097 -2.492369 0.960711 0
M  V30 26 C -3.542657 -2.276408 0.948006 0
M  V30 27 C -2.287386 -1.886075 1.407541 0
M  V30 28 N -1.181637 -2.224278 0.707008 0
M  V30 29 C -1.338287 -2.979912 -0.487692 0
M  V30 30 C -1.405533 -4.350221 -0.550113 0
M  V30 31 C -1.558264 -4.977263 -1.781591 0
M  V30 32 C -1.641695 -4.227342 -2.936530 0
M  V30 33 C -1.574301 -2.843404 -2.877294 0
M  V30 34 C -1.422206 -2.225336 -1.643432 0
M  V30 35 H 3.410654 -3.905597 -0.413969 0
M  V30 36 H 3.066495 -2.554949 -1.519285 0
M  V30 37 H 4.411787 -2.445704 -0.270807 0
M  V30 38 H 1.422162 -0.490529 3.908915 0
M  V30 39 H 2.355319 -1.357819 2.591575 0
M  V30 40 H 1.938684 1.360848 3.017367 0
M  V30 41 H 2.490638 3.270796 3.084728 0
M  V30 42 H 2.965264 5.714615 2.714088 0
M  V30 43 H 2.178060 2.778915 -1.142546 0
M  V30 44 H -3.238330 -0.235942 4.203364 0
M  V30 45 H -5.488274 -0.964002 3.336714 0
M  V30 46 H -3.585546 -2.850111 0.028426 0
M  V30 47 H -1.335139 -4.884953 0.387216 0
M  V30 48 H -1.608244 -6.064910 -1.817305 0
M  V30 49 H -1.760320 -4.803261 -3.858347 0
M  V30 50 H -1.648554 -2.315275 -3.828362 0
M  V30 51 H -1.376635 -1.148769 -1.670251 0
M  V30 END ATOM
M  V30 BEGIN BOND
M  V30 1 1 1 2
M  V30 2 1 2 3
M  V30 3 2 3 4
M  V30 4 1 3 5
M  V30 5 2 5 6
M  V30 6 1 6 7
M  V30 7 1 7 8
M  V30 8 1 8 9
M  V30 9 2 9 10
M  V30 10 1 9 11
M  V30 11 2 11 12
M  V30 12 1 12 13
M  V30 13 2 13 14
M  V30 14 1 14 15
M  V30 15 1 14 16
M  V30 16 1 16 17
M  V30 17 2 16 18
M  V30 18 1 6 19
M  V30 19 2 19 20
M  V30 20 1 19 21
M  V30 21 2 21 22
M  V30 22 1 22 23
M  V30 23 2 23 24
M  V30 24 1 24 25
M  V30 25 1 24 26
M  V30 26 2 26 27
M  V30 27 1 27 28
M  V30 28 1 28 29
M  V30 29 2 29 30
M  V30 30 1 30 31
M  V30 31 2 31 32
M  V30 32 1 32 33
M  V30 33 2 33 34
M  V30 34 1 28 5
M  V30 35 1 34 29
M  V30 36 1 18 11
M  V30 37 1 27 21
M  V30 38 1 1 35
M  V30 39 1 1 36
M  V30 40 1 1 37
M  V30 41 1 7 38
M  V30 42 1 7 39
M  V30 43 1 8 40
M  V30 44 1 12 41
M  V30 45 1 13 42
M  V30 46 1 18 43
M  V30 47 1 22 44
M  V30 48 1 23 45
M  V30 49 1 26 46
M  V30 50 1 30 47
M  V30 51 1 31 48
M  V30 52 1 32 49
M  V30 53 1 33 50
M  V30 54 1 34 51
M  V30 END BOND
M  V30 END CTAB
M  END
>  <Dataset>  (640) 
ChEMBL_Kinases

>  <Ligand_Instance>  (640) 
nan

>  <PDB_ID>  (640) 
nan

>  <Standardized_SMILES>  (640) 
COC(=O)c1c(CNC(=O)c2ccc(F)c(F)c2)c(=O)c2ccc(Cl)cc2n1-c1ccccc1

>  <Name>  (640) 
nan

>  <Pocket>  (640) 
nan

>  <ATP_Site>  (640) 
nan

>  <Peripheral>  (640) 
nan

>  <Num_H_Atoms_ProtBoundConf>  (640) 
nan

>  <Num_Resolved_Atoms>  (640) 
nan

>  <Num_Not_Resolved_Atoms>  (640) 
nan

$$$$
CHEMBL3679557
     RDKit          3D

  0  0  0  0  0  0  0  0  0  0999 V3000
M  V30 BEGIN CTAB
M  V30 COUNTS 51 54 0 0 0
M  V30 BEGIN ATOM
M  V30 1 C 3.211261 -3.059881 0.318255 0
M  V30 2 O 2.278191 -2.338319 1.093907 0
M  V30 3 C 0.955862 -2.360436 0.706874 0
M  V30 4 O 1.052714 -3.092292 -0.306401 0
M  V30 5 C -0.297390 -1.798401 1.172195 0
M  V30 6 C -0.260399 -0.993488 2.284900 0
M  V30 7 C 0.898364 -0.492172 3.026544 0
M  V30 8 N 1.487496 0.714627 2.545990 0
M  V30 9 C 2.080187 1.330908 1.428037 0
M  V30 10 O 2.148240 0.595575 0.424399 0
M  V30 11 C 2.601474 2.681360 1.324843 0
M  V30 12 C 3.131886 3.019859 0.110662 0
M  V30 13 C 3.649097 4.314492 -0.031518 0
M  V30 14 C 3.646404 5.250818 0.987640 0
M  V30 15 C 3.107362 4.889735 2.202328 0
M  V30 16 F 3.084983 5.767176 3.215696 0
M  V30 17 C 2.600491 3.612789 2.333513 0
M  V30 18 C -1.533474 -0.568607 2.688064 0
M  V30 19 O -1.639419 0.182490 3.709158 0
M  V30 20 C -2.714204 -0.901484 2.058521 0
M  V30 21 C -3.919731 -0.433698 2.528938 0
M  V30 22 C -5.048374 -0.816028 1.836780 0
M  V30 23 C -4.946743 -1.630113 0.727823 0
M  V30 24 Cl -6.350565 -2.138195 -0.176924 0
M  V30 25 C -3.722180 -2.077800 0.288249 0
M  V30 26 C -2.576408 -1.715952 0.954526 0
M  V30 27 N -1.395388 -2.169698 0.500200 0
M  V30 28 C -1.323646 -3.007588 -0.644656 0
M  V30 29 C -1.337734 -4.375438 -0.761043 0
M  V30 30 C -1.252717 -4.955418 -2.008623 0
M  V30 31 C -1.152274 -4.218120 -3.172239 0
M  V30 32 C -1.137498 -2.831371 -3.061616 0
M  V30 33 C -1.222761 -2.235407 -1.804768 0
M  V30 34 H 3.132174 -4.158853 0.444068 0
M  V30 35 H 4.235579 -2.681053 0.581506 0
M  V30 36 H 3.110443 -2.834206 -0.762922 0
M  V30 37 H 0.569165 -0.344092 4.072878 0
M  V30 38 H 1.725512 -1.251314 3.072754 0
M  V30 39 H 1.506335 1.477318 3.307893 0
M  V30 40 H 3.188412 2.365398 -0.763254 0
M  V30 41 H 4.067473 4.585506 -0.987117 0
M  V30 42 H 4.071758 6.236993 0.782443 0
M  V30 43 H 2.189847 3.367024 3.292120 0
M  V30 44 H -3.960107 0.207209 3.409820 0
M  V30 45 H -6.020978 -0.473826 2.167740 0
M  V30 46 H -3.636002 -2.717816 -0.581486 0
M  V30 47 H -1.418279 -4.865332 0.189032 0
M  V30 48 H -1.269438 -6.038033 -2.017936 0
M  V30 49 H -1.088345 -4.724432 -4.139151 0
M  V30 50 H -1.058812 -2.278854 -3.978079 0
M  V30 51 H -1.200143 -1.148264 -1.865906 0
M  V30 END ATOM
M  V30 BEGIN BOND
M  V30 1 1 1 2
M  V30 2 1 2 3
M  V30 3 2 3 4
M  V30 4 1 3 5
M  V30 5 2 5 6
M  V30 6 1 6 7
M  V30 7 1 7 8
M  V30 8 1 8 9
M  V30 9 2 9 10
M  V30 10 1 9 11
M  V30 11 2 11 12
M  V30 12 1 12 13
M  V30 13 2 13 14
M  V30 14 1 14 15
M  V30 15 1 15 16
M  V30 16 2 15 17
M  V30 17 1 6 18
M  V30 18 2 18 19
M  V30 19 1 18 20
M  V30 20 2 20 21
M  V30 21 1 21 22
M  V30 22 2 22 23
M  V30 23 1 23 24
M  V30 24 1 23 25
M  V30 25 2 25 26
M  V30 26 1 26 27
M  V30 27 1 27 28
M  V30 28 2 28 29
M  V30 29 1 29 30
M  V30 30 2 30 31
M  V30 31 1 31 32
M  V30 32 2 32 33
M  V30 33 1 27 5
M  V30 34 1 33 28
M  V30 35 1 17 11
M  V30 36 1 26 20
M  V30 37 1 1 34
M  V30 38 1 1 35
M  V30 39 1 1 36
M  V30 40 1 7 37
M  V30 41 1 7 38
M  V30 42 1 8 39
M  V30 43 1 12 40
M  V30 44 1 13 41
M  V30 45 1 14 42
M  V30 46 1 17 43
M  V30 47 1 21 44
M  V30 48 1 22 45
M  V30 49 1 25 46
M  V30 50 1 29 47
M  V30 51 1 30 48
M  V30 52 1 31 49
M  V30 53 1 32 50
M  V30 54 1 33 51
M  V30 END BOND
M  V30 END CTAB
M  END
>  <Dataset>  (641) 
ChEMBL_Kinases

>  <Ligand_Instance>  (641) 
nan

>  <PDB_ID>  (641) 
nan

>  <Standardized_SMILES>  (641) 
COC(=O)c1c(CNC(=O)c2cccc(F)c2)c(=O)c2ccc(Cl)cc2n1-c1ccccc1

>  <Name>  (641) 
nan

>  <Pocket>  (641) 
nan

>  <ATP_Site>  (641) 
nan

>  <Peripheral>  (641) 
nan

>  <Num_H_Atoms_ProtBoundConf>  (641) 
nan

>  <Num_Resolved_Atoms>  (641) 
nan

>  <Num_Not_Resolved_Atoms>  (641) 
nan

$$$$
CHEMBL3679558
     RDKit          3D

  0  0  0  0  0  0  0  0  0  0999 V3000
M  V30 BEGIN CTAB
M  V30 COUNTS 50 53 0 0 0
M  V30 BEGIN ATOM
M  V30 1 C 1.978656 -3.804022 2.278980 0
M  V30 2 O 1.342348 -2.546347 2.261339 0
M  V30 3 C 0.232271 -2.232617 1.504444 0
M  V30 4 O 0.397444 -3.411455 1.179815 0
M  V30 5 C -0.599683 -1.069981 1.299140 0
M  V30 6 C -0.287370 0.088138 1.952951 0
M  V30 7 C 0.879555 0.446816 2.769007 0
M  V30 8 N 1.993473 0.937141 2.015145 0
M  V30 9 C 2.909272 0.621691 0.992069 0
M  V30 10 O 2.731546 -0.523790 0.509903 0
M  V30 11 C 3.974369 1.469096 0.486985 0
M  V30 12 C 4.311269 2.733709 0.917368 0
M  V30 13 C 5.333755 3.490597 0.392861 0
M  V30 14 C 6.046987 2.900871 -0.637046 0
M  V30 15 N 5.738442 1.665043 -1.077274 0
M  V30 16 C 4.730661 0.956571 -0.537836 0
M  V30 17 C -1.196466 1.110830 1.749713 0
M  V30 18 O -1.060822 2.242313 2.279949 0
M  V30 19 C -2.319618 0.982840 0.957266 0
M  V30 20 C -3.225272 2.011432 0.757275 0
M  V30 21 C -4.340675 1.866809 -0.037919 0
M  V30 22 C -4.534744 0.624625 -0.649648 0
M  V30 23 Cl -5.940594 0.370691 -1.680086 0
M  V30 24 C -3.648945 -0.400903 -0.461556 0
M  V30 25 C -2.526056 -0.239223 0.345291 0
M  V30 26 N -1.668854 -1.258536 0.517176 0
M  V30 27 C -1.922070 -2.495973 -0.132041 0
M  V30 28 C -2.851506 -3.235596 0.532205 0
M  V30 29 C -3.248651 -4.490924 0.059801 0
M  V30 30 C -2.657357 -4.959013 -1.118581 0
M  V30 31 C -1.707587 -4.184506 -1.782275 0
M  V30 32 C -1.334183 -2.950149 -1.294492 0
M  V30 33 H 2.420710 -4.107298 1.313517 0
M  V30 34 H 2.788882 -3.698256 3.061991 0
M  V30 35 H 1.336287 -4.617645 2.679752 0
M  V30 36 H 1.286662 -0.479198 3.304631 0
M  V30 37 H 0.643514 1.131522 3.585260 0
M  V30 38 H 2.253034 1.933985 2.329595 0
M  V30 39 H 3.728860 3.153087 1.722425 0
M  V30 40 H 5.546136 4.477786 0.776587 0
M  V30 41 H 6.865632 3.480372 -1.072861 0
M  V30 42 H 4.555266 -0.034758 -0.960006 0
M  V30 43 H -3.043210 2.954760 1.245090 0
M  V30 44 H -5.027547 2.684632 -0.174755 0
M  V30 45 H -3.857675 -1.349323 -0.968903 0
M  V30 46 H -3.387681 -3.000058 1.448023 0
M  V30 47 H -3.976531 -5.159147 0.508580 0
M  V30 48 H -2.918762 -5.928905 -1.545578 0
M  V30 49 H -1.235600 -4.518591 -2.691252 0
M  V30 50 H -0.606049 -2.280576 -1.742760 0
M  V30 END ATOM
M  V30 BEGIN BOND
M  V30 1 1 1 2
M  V30 2 1 2 3
M  V30 3 2 3 4
M  V30 4 1 3 5
M  V30 5 2 5 6
M  V30 6 1 6 7
M  V30 7 1 7 8
M  V30 8 1 8 9
M  V30 9 2 9 10
M  V30 10 1 9 11
M  V30 11 2 11 12
M  V30 12 1 12 13
M  V30 13 2 13 14
M  V30 14 1 14 15
M  V30 15 2 15 16
M  V30 16 1 6 17
M  V30 17 2 17 18
M  V30 18 1 17 19
M  V30 19 2 19 20
M  V30 20 1 20 21
M  V30 21 2 21 22
M  V30 22 1 22 23
M  V30 23 1 22 24
M  V30 24 2 24 25
M  V30 25 1 25 26
M  V30 26 1 26 27
M  V30 27 2 27 28
M  V30 28 1 28 29
M  V30 29 2 29 30
M  V30 30 1 30 31
M  V30 31 2 31 32
M  V30 32 1 26 5
M  V30 33 1 32 27
M  V30 34 1 16 11
M  V30 35 1 25 19
M  V30 36 1 1 33
M  V30 37 1 1 34
M  V30 38 1 1 35
M  V30 39 1 7 36
M  V30 40 1 7 37
M  V30 41 1 8 38
M  V30 42 1 12 39
M  V30 43 1 13 40
M  V30 44 1 14 41
M  V30 45 1 16 42
M  V30 46 1 20 43
M  V30 47 1 21 44
M  V30 48 1 24 45
M  V30 49 1 28 46
M  V30 50 1 29 47
M  V30 51 1 30 48
M  V30 52 1 31 49
M  V30 53 1 32 50
M  V30 END BOND
M  V30 END CTAB
M  END
>  <Dataset>  (642) 
ChEMBL_Kinases

>  <Ligand_Instance>  (642) 
nan

>  <PDB_ID>  (642) 
nan

>  <Standardized_SMILES>  (642) 
COC(=O)c1c(CNC(=O)c2cccnc2)c(=O)c2ccc(Cl)cc2n1-c1ccccc1

>  <Name>  (642) 
nan

>  <Pocket>  (642) 
nan

>  <ATP_Site>  (642) 
nan

>  <Peripheral>  (642) 
nan

>  <Num_H_Atoms_ProtBoundConf>  (642) 
nan

>  <Num_Resolved_Atoms>  (642) 
nan

>  <Num_Not_Resolved_Atoms>  (642) 
nan

$$$$
CHEMBL3679559
     RDKit          3D

  0  0  0  0  0  0  0  0  0  0999 V3000
M  V30 BEGIN CTAB
M  V30 COUNTS 51 54 0 0 0
M  V30 BEGIN ATOM
M  V30 1 C 3.158225 -3.236934 0.389641 0
M  V30 2 O 2.262218 -2.442542 1.162188 0
M  V30 3 C 0.934733 -2.370067 0.801674 0
M  V30 4 O 1.111662 -3.133642 -0.176351 0
M  V30 5 C -0.309836 -1.774074 1.185452 0
M  V30 6 C -0.308888 -0.945975 2.276278 0
M  V30 7 C 0.835722 -0.443217 3.071632 0
M  V30 8 N 1.446315 0.743422 2.555839 0
M  V30 9 C 2.093392 1.320178 1.453898 0
M  V30 10 O 2.212988 0.515189 0.499922 0
M  V30 11 C 2.587956 2.682186 1.369371 0
M  V30 12 C 2.524403 3.667690 2.335588 0
M  V30 13 C 3.036749 4.925088 2.120242 0
M  V30 14 C 3.638519 5.264822 0.932109 0
M  V30 15 F 4.146572 6.508432 0.717012 0
M  V30 16 C 3.703495 4.286331 -0.031817 0
M  V30 17 C 3.190180 3.027921 0.184717 0
M  V30 18 C -1.566422 -0.453409 2.648714 0
M  V30 19 O -1.686436 0.319886 3.644430 0
M  V30 20 C -2.711016 -0.789460 1.950863 0
M  V30 21 C -3.947999 -0.289693 2.334670 0
M  V30 22 C -5.089402 -0.627030 1.633244 0
M  V30 23 C -4.950656 -1.468351 0.551937 0
M  V30 24 Cl -6.369726 -1.919736 -0.361971 0
M  V30 25 C -3.710242 -1.963980 0.174430 0
M  V30 26 C -2.565895 -1.632085 0.869330 0
M  V30 27 N -1.379112 -2.136037 0.468297 0
M  V30 28 C -1.278167 -2.994992 -0.644531 0
M  V30 29 C -1.330391 -4.364763 -0.625320 0
M  V30 30 C -1.216626 -5.070615 -1.806015 0
M  V30 31 C -1.050760 -4.408157 -3.005970 0
M  V30 32 C -0.992516 -3.017891 -3.069158 0
M  V30 33 C -1.110352 -2.335806 -1.860748 0
M  V30 34 H 2.950367 -4.312354 0.539996 0
M  V30 35 H 4.163522 -3.041477 0.801636 0
M  V30 36 H 3.186558 -2.929935 -0.681971 0
M  V30 37 H 1.651711 -1.247504 3.099394 0
M  V30 38 H 0.502339 -0.314677 4.111025 0
M  V30 39 H 1.393762 1.507398 3.302728 0
M  V30 40 H 2.052864 3.400340 3.266222 0
M  V30 41 H 2.968624 5.675604 2.904183 0
M  V30 42 H 4.167611 4.515109 -0.975963 0
M  V30 43 H 3.285359 2.321828 -0.629575 0
M  V30 44 H -4.041259 0.373440 3.189815 0
M  V30 45 H -6.055866 -0.235284 1.934441 0
M  V30 46 H -3.669270 -2.609350 -0.669531 0
M  V30 47 H -1.462448 -4.792112 0.364949 0
M  V30 48 H -1.267806 -6.151506 -1.709762 0
M  V30 49 H -0.963006 -4.996437 -3.929145 0
M  V30 50 H -0.863365 -2.483309 -3.998321 0
M  V30 51 H -1.060682 -1.249167 -1.945065 0
M  V30 END ATOM
M  V30 BEGIN BOND
M  V30 1 1 1 2
M  V30 2 1 2 3
M  V30 3 2 3 4
M  V30 4 1 3 5
M  V30 5 2 5 6
M  V30 6 1 6 7
M  V30 7 1 7 8
M  V30 8 1 8 9
M  V30 9 2 9 10
M  V30 10 1 9 11
M  V30 11 2 11 12
M  V30 12 1 12 13
M  V30 13 2 13 14
M  V30 14 1 14 15
M  V30 15 1 14 16
M  V30 16 2 16 17
M  V30 17 1 6 18
M  V30 18 2 18 19
M  V30 19 1 18 20
M  V30 20 2 20 21
M  V30 21 1 21 22
M  V30 22 2 22 23
M  V30 23 1 23 24
M  V30 24 1 23 25
M  V30 25 2 25 26
M  V30 26 1 26 27
M  V30 27 1 27 28
M  V30 28 2 28 29
M  V30 29 1 29 30
M  V30 30 2 30 31
M  V30 31 1 31 32
M  V30 32 2 32 33
M  V30 33 1 27 5
M  V30 34 1 33 28
M  V30 35 1 17 11
M  V30 36 1 26 20
M  V30 37 1 1 34
M  V30 38 1 1 35
M  V30 39 1 1 36
M  V30 40 1 7 37
M  V30 41 1 7 38
M  V30 42 1 8 39
M  V30 43 1 12 40
M  V30 44 1 13 41
M  V30 45 1 16 42
M  V30 46 1 17 43
M  V30 47 1 21 44
M  V30 48 1 22 45
M  V30 49 1 25 46
M  V30 50 1 29 47
M  V30 51 1 30 48
M  V30 52 1 31 49
M  V30 53 1 32 50
M  V30 54 1 33 51
M  V30 END BOND
M  V30 END CTAB
M  END
>  <Dataset>  (643) 
ChEMBL_Kinases

>  <Ligand_Instance>  (643) 
nan

>  <PDB_ID>  (643) 
nan

>  <Standardized_SMILES>  (643) 
COC(=O)c1c(CNC(=O)c2ccc(F)cc2)c(=O)c2ccc(Cl)cc2n1-c1ccccc1

>  <Name>  (643) 
nan

>  <Pocket>  (643) 
nan

>  <ATP_Site>  (643) 
nan

>  <Peripheral>  (643) 
nan

>  <Num_H_Atoms_ProtBoundConf>  (643) 
nan

>  <Num_Resolved_Atoms>  (643) 
nan

>  <Num_Not_Resolved_Atoms>  (643) 
nan

$$$$
CHEMBL3679569
     RDKit          3D

  0  0  0  0  0  0  0  0  0  0999 V3000
M  V30 BEGIN CTAB
M  V30 COUNTS 51 54 0 0 0
M  V30 BEGIN ATOM
M  V30 1 C 2.242129 -4.254504 2.520043 0
M  V30 2 O 1.603145 -3.081978 2.124787 0
M  V30 3 C 0.385073 -3.021267 1.425548 0
M  V30 4 O 0.160317 -4.221187 1.325424 0
M  V30 5 C -0.260042 -1.776707 1.026562 0
M  V30 6 C 0.144176 -0.446572 1.211205 0
M  V30 7 C 1.445441 -0.343630 1.903672 0
M  V30 8 N 2.043704 0.951571 1.920054 0
M  V30 9 C 2.490904 1.698531 0.800048 0
M  V30 10 O 2.370236 1.207770 -0.377037 0
M  V30 11 C 3.101125 3.023354 0.836915 0
M  V30 12 C 3.435640 3.625173 -0.352485 0
M  V30 13 C 4.031845 4.896828 -0.363376 0
M  V30 14 C 4.259277 5.495967 0.855889 0
M  V30 15 C 3.938198 4.924581 2.060387 0
M  V30 16 C 3.343582 3.656450 2.060998 0
M  V30 17 C -0.711378 0.503884 0.726437 0
M  V30 18 O -0.331671 1.677397 0.905429 0
M  V30 19 C -1.896610 0.206103 0.093528 0
M  V30 20 C -2.672583 1.244956 -0.352908 0
M  V30 21 C -3.867626 0.970812 -0.994018 0
M  V30 22 C -4.251345 -0.338642 -1.169809 0
M  V30 23 Cl -5.746261 -0.743829 -1.970464 0
M  V30 24 C -3.465958 -1.376075 -0.717944 0
M  V30 25 C -2.276043 -1.106226 -0.079099 0
M  V30 26 N -1.440130 -2.051521 0.396000 0
M  V30 27 C -1.934874 -3.384509 0.161533 0
M  V30 28 C -2.716324 -3.948048 1.169085 0
M  V30 29 C -3.230511 -5.233979 1.031237 0
M  V30 30 C -2.961040 -5.954195 -0.117184 0
M  V30 31 C -2.182615 -5.406406 -1.133686 0
M  V30 32 C -1.687845 -4.134316 -0.970271 0
M  V30 33 H 1.655719 -5.177561 2.465716 0
M  V30 34 H 2.473659 -4.109003 3.620740 0
M  V30 35 H 3.264097 -4.360327 2.067331 0
M  V30 36 H 2.132475 -1.020678 1.287615 0
M  V30 37 H 1.436283 -0.790772 2.905498 0
M  V30 38 H 2.175595 1.423284 2.851898 0
M  V30 39 H 3.278722 3.196832 -1.341440 0
M  V30 40 H 4.297278 5.374350 -1.319472 0
M  V30 41 H 4.726576 6.491686 0.849696 0
M  V30 42 H 4.151370 5.466856 2.993452 0
M  V30 43 H 3.097866 3.219386 2.998115 0
M  V30 44 H -2.361247 2.258493 -0.208546 0
M  V30 45 H -4.525665 1.747817 -1.370583 0
M  V30 46 H -3.757934 -2.411302 -0.851044 0
M  V30 47 H -2.948022 -3.398287 2.095343 0
M  V30 48 H -3.846745 -5.729929 1.781344 0
M  V30 49 H -3.329436 -6.948542 -0.278959 0
M  V30 50 H -1.956309 -5.953832 -2.047640 0
M  V30 51 H -1.078515 -3.664964 -1.730905 0
M  V30 END ATOM
M  V30 BEGIN BOND
M  V30 1 1 1 2
M  V30 2 1 2 3
M  V30 3 2 3 4
M  V30 4 1 3 5
M  V30 5 2 5 6
M  V30 6 1 6 7
M  V30 7 1 7 8
M  V30 8 1 8 9
M  V30 9 2 9 10
M  V30 10 1 9 11
M  V30 11 2 11 12
M  V30 12 1 12 13
M  V30 13 2 13 14
M  V30 14 1 14 15
M  V30 15 2 15 16
M  V30 16 1 6 17
M  V30 17 2 17 18
M  V30 18 1 17 19
M  V30 19 2 19 20
M  V30 20 1 20 21
M  V30 21 2 21 22
M  V30 22 1 22 23
M  V30 23 1 22 24
M  V30 24 2 24 25
M  V30 25 1 25 26
M  V30 26 1 26 27
M  V30 27 2 27 28
M  V30 28 1 28 29
M  V30 29 2 29 30
M  V30 30 1 30 31
M  V30 31 2 31 32
M  V30 32 1 26 5
M  V30 33 1 32 27
M  V30 34 1 16 11
M  V30 35 1 25 19
M  V30 36 1 1 33
M  V30 37 1 1 34
M  V30 38 1 1 35
M  V30 39 1 7 36
M  V30 40 1 7 37
M  V30 41 1 8 38
M  V30 42 1 12 39
M  V30 43 1 13 40
M  V30 44 1 14 41
M  V30 45 1 15 42
M  V30 46 1 16 43
M  V30 47 1 20 44
M  V30 48 1 21 45
M  V30 49 1 24 46
M  V30 50 1 28 47
M  V30 51 1 29 48
M  V30 52 1 30 49
M  V30 53 1 31 50
M  V30 54 1 32 51
M  V30 END BOND
M  V30 END CTAB
M  END
>  <Dataset>  (644) 
ChEMBL_Kinases

>  <Ligand_Instance>  (644) 
nan

>  <PDB_ID>  (644) 
nan

>  <Standardized_SMILES>  (644) 
COC(=O)c1c(CNC(=O)c2ccccc2)c(=O)c2ccc(Cl)cc2n1-c1ccccc1

>  <Name>  (644) 
nan

>  <Pocket>  (644) 
nan

>  <ATP_Site>  (644) 
nan

>  <Peripheral>  (644) 
nan

>  <Num_H_Atoms_ProtBoundConf>  (644) 
nan

>  <Num_Resolved_Atoms>  (644) 
nan

>  <Num_Not_Resolved_Atoms>  (644) 
nan

$$$$
CHEMBL3679561
     RDKit          3D

  0  0  0  0  0  0  0  0  0  0999 V3000
M  V30 BEGIN CTAB
M  V30 COUNTS 51 54 0 0 0
M  V30 BEGIN ATOM
M  V30 1 C 3.245088 -3.119348 0.207983 0
M  V30 2 O 2.325611 -2.409122 1.009076 0
M  V30 3 C 1.002873 -2.388574 0.663580 0
M  V30 4 O 1.094177 -3.093772 -0.366730 0
M  V30 5 C -0.251250 -1.848481 1.118992 0
M  V30 6 C -0.209836 -1.075815 2.247644 0
M  V30 7 C 0.932608 -0.571963 3.031670 0
M  V30 8 N 1.494620 0.665237 2.553674 0
M  V30 9 C 2.091328 1.298172 1.465445 0
M  V30 10 O 2.221490 0.557415 0.471103 0
M  V30 11 C 2.550612 2.668789 1.388388 0
M  V30 12 C 3.111030 3.033874 0.187649 0
M  V30 13 C 3.572649 4.336550 0.044812 0
M  V30 14 C 3.483281 5.254380 1.061397 0
M  V30 15 C 2.926526 4.904322 2.265615 0
M  V30 16 Cl 2.770838 6.007286 3.615904 0
M  V30 17 C 2.476252 3.609478 2.383988 0
M  V30 18 C -1.441189 -0.611381 2.725767 0
M  V30 19 O -1.568463 0.117705 3.767838 0
M  V30 20 C -2.633026 -0.920501 2.083115 0
M  V30 21 C -3.851171 -0.466804 2.545259 0
M  V30 22 C -5.001171 -0.820814 1.841381 0
M  V30 23 C -4.916029 -1.607131 0.709433 0
M  V30 24 Cl -6.368679 -2.042416 -0.163455 0
M  V30 25 C -3.673616 -2.036465 0.286649 0
M  V30 26 C -2.512663 -1.707532 0.955874 0
M  V30 27 N -1.364093 -2.179487 0.455365 0
M  V30 28 C -1.301626 -2.982562 -0.703481 0
M  V30 29 C -1.311417 -4.341002 -0.861935 0
M  V30 30 C -1.239221 -4.907796 -2.117955 0
M  V30 31 C -1.155196 -4.113934 -3.241936 0
M  V30 32 C -1.142640 -2.738880 -3.123637 0
M  V30 33 C -1.216534 -2.179575 -1.844396 0
M  V30 34 H 3.126705 -4.211495 0.384150 0
M  V30 35 H 4.279760 -2.843571 0.561098 0
M  V30 36 H 3.150769 -2.916727 -0.879475 0
M  V30 37 H 0.690597 -0.507325 4.107681 0
M  V30 38 H 1.787820 -1.333592 3.002076 0
M  V30 39 H 1.438902 1.408166 3.331693 0
M  V30 40 H 3.226694 2.380965 -0.675273 0
M  V30 41 H 4.011674 4.635874 -0.885828 0
M  V30 42 H 3.841224 6.267117 0.951068 0
M  V30 43 H 2.037963 3.329271 3.326323 0
M  V30 44 H -3.888579 0.145866 3.431964 0
M  V30 45 H -5.947959 -0.481161 2.180796 0
M  V30 46 H -3.642150 -2.640860 -0.589574 0
M  V30 47 H -1.380045 -4.858786 0.095725 0
M  V30 48 H -1.253179 -5.988984 -2.153674 0
M  V30 49 H -1.098248 -4.558281 -4.219787 0
M  V30 50 H -1.077092 -2.157551 -4.025867 0
M  V30 51 H -1.198319 -1.085486 -1.882513 0
M  V30 END ATOM
M  V30 BEGIN BOND
M  V30 1 1 1 2
M  V30 2 1 2 3
M  V30 3 2 3 4
M  V30 4 1 3 5
M  V30 5 2 5 6
M  V30 6 1 6 7
M  V30 7 1 7 8
M  V30 8 1 8 9
M  V30 9 2 9 10
M  V30 10 1 9 11
M  V30 11 2 11 12
M  V30 12 1 12 13
M  V30 13 2 13 14
M  V30 14 1 14 15
M  V30 15 1 15 16
M  V30 16 2 15 17
M  V30 17 1 6 18
M  V30 18 2 18 19
M  V30 19 1 18 20
M  V30 20 2 20 21
M  V30 21 1 21 22
M  V30 22 2 22 23
M  V30 23 1 23 24
M  V30 24 1 23 25
M  V30 25 2 25 26
M  V30 26 1 26 27
M  V30 27 1 27 28
M  V30 28 2 28 29
M  V30 29 1 29 30
M  V30 30 2 30 31
M  V30 31 1 31 32
M  V30 32 2 32 33
M  V30 33 1 27 5
M  V30 34 1 33 28
M  V30 35 1 17 11
M  V30 36 1 26 20
M  V30 37 1 1 34
M  V30 38 1 1 35
M  V30 39 1 1 36
M  V30 40 1 7 37
M  V30 41 1 7 38
M  V30 42 1 8 39
M  V30 43 1 12 40
M  V30 44 1 13 41
M  V30 45 1 14 42
M  V30 46 1 17 43
M  V30 47 1 21 44
M  V30 48 1 22 45
M  V30 49 1 25 46
M  V30 50 1 29 47
M  V30 51 1 30 48
M  V30 52 1 31 49
M  V30 53 1 32 50
M  V30 54 1 33 51
M  V30 END BOND
M  V30 END CTAB
M  END
>  <Dataset>  (645) 
ChEMBL_Kinases

>  <Ligand_Instance>  (645) 
nan

>  <PDB_ID>  (645) 
nan

>  <Standardized_SMILES>  (645) 
COC(=O)c1c(CNC(=O)c2cccc(Cl)c2)c(=O)c2ccc(Cl)cc2n1-c1ccccc1

>  <Name>  (645) 
nan

>  <Pocket>  (645) 
nan

>  <ATP_Site>  (645) 
nan

>  <Peripheral>  (645) 
nan

>  <Num_H_Atoms_ProtBoundConf>  (645) 
nan

>  <Num_Resolved_Atoms>  (645) 
nan

>  <Num_Not_Resolved_Atoms>  (645) 
nan

$$$$
CHEMBL3679562
     RDKit          3D

  0  0  0  0  0  0  0  0  0  0999 V3000
M  V30 BEGIN CTAB
M  V30 COUNTS 59 62 0 0 0
M  V30 BEGIN ATOM
M  V30 1 C 4.106800 0.996779 0.894073 0
M  V30 2 O 3.658260 -0.141543 0.263872 0
M  V30 3 C 2.767108 -1.081148 0.563823 0
M  V30 4 O 2.900613 -0.187338 1.402716 0
M  V30 5 C 1.808197 -2.078479 0.902683 0
M  V30 6 C 1.054253 -2.033275 2.028638 0
M  V30 7 C 0.843497 -1.008770 3.061536 0
M  V30 8 N -0.196061 -0.109391 2.641161 0
M  V30 9 C -0.616122 0.797762 1.654363 0
M  V30 10 O 0.228348 0.905637 0.732508 0
M  V30 11 C -1.864301 1.541218 1.658429 0
M  V30 12 C -2.859923 1.496170 2.597109 0
M  V30 13 C -3.994577 2.259535 2.464146 0
M  V30 14 C -4.175695 3.096184 1.387752 0
M  V30 15 O -5.314046 3.871669 1.239652 0
M  V30 16 C -6.379833 3.891968 2.140433 0
M  V30 17 C -3.168242 3.145541 0.432854 0
M  V30 18 O -3.373475 3.985620 -0.626347 0
M  V30 19 C -2.456830 4.149931 -1.671661 0
M  V30 20 C -2.040760 2.375853 0.580818 0
M  V30 21 C 0.247303 -3.159839 2.213030 0
M  V30 22 O -0.533237 -3.305990 3.216228 0
M  V30 23 C 0.254966 -4.189050 1.302188 0
M  V30 24 C -0.549339 -5.295225 1.497629 0
M  V30 25 C -0.589889 -6.351923 0.629542 0
M  V30 26 C 0.188879 -6.362636 -0.508439 0
M  V30 27 Cl 0.214998 -7.660972 -1.685861 0
M  V30 28 C 0.999987 -5.251425 -0.708800 0
M  V30 29 C 1.034654 -4.197180 0.165530 0
M  V30 30 N 1.805262 -3.092945 0.017817 0
M  V30 31 C 2.613964 -3.100416 -1.158957 0
M  V30 32 C 2.362764 -2.276273 -2.238386 0
M  V30 33 C 3.118441 -2.251657 -3.392217 0
M  V30 34 C 4.207080 -3.118019 -3.470411 0
M  V30 35 C 4.460010 -3.943289 -2.391477 0
M  V30 36 C 3.706415 -3.971386 -1.233938 0
M  V30 37 H 4.530601 0.842526 1.915820 0
M  V30 38 H 4.887591 1.499540 0.246230 0
M  V30 39 H 3.287670 1.751886 1.004194 0
M  V30 40 H 1.746374 -0.344908 3.235072 0
M  V30 41 H 0.605246 -1.468961 4.046890 0
M  V30 42 H -0.978081 -0.130870 3.372123 0
M  V30 43 H -2.724832 0.848576 3.431888 0
M  V30 44 H -4.732258 2.171616 3.239272 0
M  V30 45 H -6.884965 4.891472 2.127055 0
M  V30 46 H -7.154398 3.126323 1.918644 0
M  V30 47 H -6.048280 3.735919 3.186876 0
M  V30 48 H -3.011593 4.530026 -2.583038 0
M  V30 49 H -2.034612 3.152049 -1.968734 0
M  V30 50 H -1.671186 4.887894 -1.434931 0
M  V30 51 H -1.314516 2.476597 -0.201770 0
M  V30 52 H -1.187842 -5.364375 2.362167 0
M  V30 53 H -1.229033 -7.209297 0.804556 0
M  V30 54 H 1.620327 -5.222310 -1.581416 0
M  V30 55 H 1.527149 -1.588620 -2.218552 0
M  V30 56 H 2.870269 -1.582392 -4.205126 0
M  V30 57 H 4.808203 -3.110373 -4.367218 0
M  V30 58 H 5.326295 -4.608564 -2.495140 0
M  V30 59 H 3.961265 -4.644389 -0.427352 0
M  V30 END ATOM
M  V30 BEGIN BOND
M  V30 1 1 1 2
M  V30 2 1 2 3
M  V30 3 2 3 4
M  V30 4 1 3 5
M  V30 5 2 5 6
M  V30 6 1 6 7
M  V30 7 1 7 8
M  V30 8 1 8 9
M  V30 9 2 9 10
M  V30 10 1 9 11
M  V30 11 2 11 12
M  V30 12 1 12 13
M  V30 13 2 13 14
M  V30 14 1 14 15
M  V30 15 1 15 16
M  V30 16 1 14 17
M  V30 17 1 17 18
M  V30 18 1 18 19
M  V30 19 2 17 20
M  V30 20 1 6 21
M  V30 21 2 21 22
M  V30 22 1 21 23
M  V30 23 2 23 24
M  V30 24 1 24 25
M  V30 25 2 25 26
M  V30 26 1 26 27
M  V30 27 1 26 28
M  V30 28 2 28 29
M  V30 29 1 29 30
M  V30 30 1 30 31
M  V30 31 2 31 32
M  V30 32 1 32 33
M  V30 33 2 33 34
M  V30 34 1 34 35
M  V30 35 2 35 36
M  V30 36 1 30 5
M  V30 37 1 36 31
M  V30 38 1 20 11
M  V30 39 1 29 23
M  V30 40 1 1 37
M  V30 41 1 1 38
M  V30 42 1 1 39
M  V30 43 1 7 40
M  V30 44 1 7 41
M  V30 45 1 8 42
M  V30 46 1 12 43
M  V30 47 1 13 44
M  V30 48 1 16 45
M  V30 49 1 16 46
M  V30 50 1 16 47
M  V30 51 1 19 48
M  V30 52 1 19 49
M  V30 53 1 19 50
M  V30 54 1 20 51
M  V30 55 1 24 52
M  V30 56 1 25 53
M  V30 57 1 28 54
M  V30 58 1 32 55
M  V30 59 1 33 56
M  V30 60 1 34 57
M  V30 61 1 35 58
M  V30 62 1 36 59
M  V30 END BOND
M  V30 END CTAB
M  END
>  <Dataset>  (646) 
ChEMBL_Kinases

>  <Ligand_Instance>  (646) 
nan

>  <PDB_ID>  (646) 
nan

>  <Standardized_SMILES>  (646) 
COC(=O)c1c(CNC(=O)c2ccc(OC)c(OC)c2)c(=O)c2ccc(Cl)cc2n1-c1ccccc1

>  <Name>  (646) 
nan

>  <Pocket>  (646) 
nan

>  <ATP_Site>  (646) 
nan

>  <Peripheral>  (646) 
nan

>  <Num_H_Atoms_ProtBoundConf>  (646) 
nan

>  <Num_Resolved_Atoms>  (646) 
nan

>  <Num_Not_Resolved_Atoms>  (646) 
nan

$$$$
CHEMBL3679563
     RDKit          3D

  0  0  0  0  0  0  0  0  0  0999 V3000
M  V30 BEGIN CTAB
M  V30 COUNTS 51 54 0 0 0
M  V30 BEGIN ATOM
M  V30 1 C 3.279677 -1.868829 -0.300974 0
M  V30 2 O 2.232498 -1.540861 0.612789 0
M  V30 3 C 0.921276 -1.930412 0.386393 0
M  V30 4 O 1.093458 -2.532863 -0.703611 0
M  V30 5 C -0.230641 -1.675465 1.210683 0
M  V30 6 C -0.229299 -0.984336 2.394125 0
M  V30 7 C 1.062650 -0.439527 2.893258 0
M  V30 8 N 1.331620 0.743230 2.062369 0
M  V30 9 C 2.482170 1.515822 2.253828 0
M  V30 10 O 3.269318 1.151696 3.164697 0
M  V30 11 C 2.851064 2.705036 1.492776 0
M  V30 12 C 4.028277 3.341016 1.819879 0
M  V30 13 C 4.380823 4.479839 1.089793 0
M  V30 14 C 3.613700 5.013021 0.049488 0
M  V30 15 Cl 4.158110 6.447307 -0.794253 0
M  V30 16 C 2.442693 4.344672 -0.244486 0
M  V30 17 Cl 1.432794 4.971684 -1.548139 0
M  V30 18 C 2.083258 3.219253 0.468595 0
M  V30 19 C -1.447948 -0.851565 3.032881 0
M  V30 20 O -1.415841 -0.205771 4.128086 0
M  V30 21 C -2.607015 -1.386365 2.508061 0
M  V30 22 C -3.789616 -1.203224 3.222873 0
M  V30 23 C -4.953997 -1.746410 2.687013 0
M  V30 24 C -4.936245 -2.440761 1.491146 0
M  V30 25 Cl -6.376179 -3.142186 0.777139 0
M  V30 26 C -3.739315 -2.605833 0.802621 0
M  V30 27 C -2.565500 -2.073721 1.316495 0
M  V30 28 N -1.372157 -2.197230 0.702010 0
M  V30 29 C -1.435953 -2.933089 -0.538386 0
M  V30 30 C -1.477881 -4.289357 -0.618742 0
M  V30 31 C -1.535966 -4.849953 -1.877765 0
M  V30 32 C -1.553537 -4.117031 -3.046986 0
M  V30 33 C -1.510773 -2.738237 -2.961482 0
M  V30 34 C -1.451966 -2.153506 -1.700162 0
M  V30 35 H 3.543164 -2.944601 -0.259090 0
M  V30 36 H 2.949500 -1.549995 -1.332654 0
M  V30 37 H 4.192350 -1.278543 -0.083988 0
M  V30 38 H 0.846763 -0.018622 3.899524 0
M  V30 39 H 1.884479 -1.151497 2.884949 0
M  V30 40 H 0.689984 1.078743 1.285927 0
M  V30 41 H 4.688397 3.006249 2.606961 0
M  V30 42 H 5.303980 5.012121 1.316267 0
M  V30 43 H 1.162501 2.737254 0.198857 0
M  V30 44 H -3.843229 -0.664980 4.163409 0
M  V30 45 H -5.909509 -1.648035 3.179920 0
M  V30 46 H -3.717596 -3.147936 -0.133458 0
M  V30 47 H -1.464842 -4.871386 0.284005 0
M  V30 48 H -1.570757 -5.943158 -1.971041 0
M  V30 49 H -1.599377 -4.592786 -4.019037 0
M  V30 50 H -1.522215 -2.120685 -3.848993 0
M  V30 51 H -1.419447 -1.054896 -1.678910 0
M  V30 END ATOM
M  V30 BEGIN BOND
M  V30 1 1 1 2
M  V30 2 1 2 3
M  V30 3 2 3 4
M  V30 4 1 3 5
M  V30 5 2 5 6
M  V30 6 1 6 7
M  V30 7 1 7 8
M  V30 8 1 8 9
M  V30 9 2 9 10
M  V30 10 1 9 11
M  V30 11 2 11 12
M  V30 12 1 12 13
M  V30 13 2 13 14
M  V30 14 1 14 15
M  V30 15 1 14 16
M  V30 16 1 16 17
M  V30 17 2 16 18
M  V30 18 1 6 19
M  V30 19 2 19 20
M  V30 20 1 19 21
M  V30 21 2 21 22
M  V30 22 1 22 23
M  V30 23 2 23 24
M  V30 24 1 24 25
M  V30 25 1 24 26
M  V30 26 2 26 27
M  V30 27 1 27 28
M  V30 28 1 28 29
M  V30 29 2 29 30
M  V30 30 1 30 31
M  V30 31 2 31 32
M  V30 32 1 32 33
M  V30 33 2 33 34
M  V30 34 1 28 5
M  V30 35 1 34 29
M  V30 36 1 18 11
M  V30 37 1 27 21
M  V30 38 1 1 35
M  V30 39 1 1 36
M  V30 40 1 1 37
M  V30 41 1 7 38
M  V30 42 1 7 39
M  V30 43 1 8 40
M  V30 44 1 12 41
M  V30 45 1 13 42
M  V30 46 1 18 43
M  V30 47 1 22 44
M  V30 48 1 23 45
M  V30 49 1 26 46
M  V30 50 1 30 47
M  V30 51 1 31 48
M  V30 52 1 32 49
M  V30 53 1 33 50
M  V30 54 1 34 51
M  V30 END BOND
M  V30 END CTAB
M  END
>  <Dataset>  (647) 
ChEMBL_Kinases

>  <Ligand_Instance>  (647) 
nan

>  <PDB_ID>  (647) 
nan

>  <Standardized_SMILES>  (647) 
COC(=O)c1c(CNC(=O)c2ccc(Cl)c(Cl)c2)c(=O)c2ccc(Cl)cc2n1-c1ccccc1

>  <Name>  (647) 
nan

>  <Pocket>  (647) 
nan

>  <ATP_Site>  (647) 
nan

>  <Peripheral>  (647) 
nan

>  <Num_H_Atoms_ProtBoundConf>  (647) 
nan

>  <Num_Resolved_Atoms>  (647) 
nan

>  <Num_Not_Resolved_Atoms>  (647) 
nan

$$$$
CHEMBL3679564
     RDKit          3D

  0  0  0  0  0  0  0  0  0  0999 V3000
M  V30 BEGIN CTAB
M  V30 COUNTS 51 54 0 0 0
M  V30 BEGIN ATOM
M  V30 1 C 3.282903 -2.975846 0.234160 0
M  V30 2 O 2.359503 -2.276949 1.081580 0
M  V30 3 C 1.040103 -2.304647 0.686924 0
M  V30 4 O 1.241331 -2.993138 -0.336980 0
M  V30 5 C -0.244222 -1.808187 1.125536 0
M  V30 6 C -0.260329 -1.050440 2.253750 0
M  V30 7 C 0.833345 -0.505155 3.062227 0
M  V30 8 N 1.359313 0.759112 2.635095 0
M  V30 9 C 1.962023 1.476289 1.605864 0
M  V30 10 O 2.117469 0.691526 0.616156 0
M  V30 11 C 2.385017 2.857555 1.540896 0
M  V30 12 C 2.985806 3.218713 0.354190 0
M  V30 13 C 3.456624 4.483161 0.108108 0
M  V30 14 C 3.319991 5.432322 1.095956 0
M  V30 15 C 2.735649 5.154091 2.300520 0
M  V30 16 C 2.290515 3.866380 2.469557 0
M  V30 17 F 1.712161 3.555203 3.634159 0
M  V30 18 C -1.533579 -0.660082 2.689598 0
M  V30 19 O -1.728303 0.042035 3.717646 0
M  V30 20 C -2.660512 -1.037076 1.993677 0
M  V30 21 C -3.932489 -0.649011 2.424550 0
M  V30 22 C -5.056929 -1.037461 1.710211 0
M  V30 23 C -4.882458 -1.802140 0.585629 0
M  V30 24 Cl -6.332502 -2.270938 -0.289280 0
M  V30 25 C -3.633754 -2.183539 0.161940 0
M  V30 26 C -2.506906 -1.805121 0.861729 0
M  V30 27 N -1.293573 -2.210371 0.399007 0
M  V30 28 C -1.147741 -3.000908 -0.764950 0
M  V30 29 C -1.165726 -4.380641 -0.795032 0
M  V30 30 C -1.010599 -5.037570 -2.008092 0
M  V30 31 C -0.837601 -4.333715 -3.194008 0
M  V30 32 C -0.821470 -2.938120 -3.149211 0
M  V30 33 C -0.976324 -2.267467 -1.936223 0
M  V30 34 H 3.050533 -4.046179 0.139028 0
M  V30 35 H 4.308303 -2.852970 0.620522 0
M  V30 36 H 3.289562 -2.561182 -0.800202 0
M  V30 37 H 0.537728 -0.497325 4.134087 0
M  V30 38 H 1.726510 -1.208359 3.060020 0
M  V30 39 H 1.241028 1.439135 3.435606 0
M  V30 40 H 3.134951 2.529566 -0.482865 0
M  V30 41 H 3.918833 4.760098 -0.804565 0
M  V30 42 H 3.685927 6.431542 0.914560 0
M  V30 43 H 2.615625 5.867166 3.083754 0
M  V30 44 H -4.022677 -0.045734 3.318263 0
M  V30 45 H -6.037782 -0.714283 2.079401 0
M  V30 46 H -3.579484 -2.778486 -0.722934 0
M  V30 47 H -1.300368 -4.901913 0.133020 0
M  V30 48 H -1.023590 -6.122594 -2.048084 0
M  V30 49 H -0.715393 -4.838499 -4.143320 0
M  V30 50 H -0.683887 -2.416471 -4.096436 0
M  V30 51 H -0.954849 -1.178088 -1.970083 0
M  V30 END ATOM
M  V30 BEGIN BOND
M  V30 1 1 1 2
M  V30 2 1 2 3
M  V30 3 2 3 4
M  V30 4 1 3 5
M  V30 5 2 5 6
M  V30 6 1 6 7
M  V30 7 1 7 8
M  V30 8 1 8 9
M  V30 9 2 9 10
M  V30 10 1 9 11
M  V30 11 2 11 12
M  V30 12 1 12 13
M  V30 13 2 13 14
M  V30 14 1 14 15
M  V30 15 2 15 16
M  V30 16 1 16 17
M  V30 17 1 6 18
M  V30 18 2 18 19
M  V30 19 1 18 20
M  V30 20 2 20 21
M  V30 21 1 21 22
M  V30 22 2 22 23
M  V30 23 1 23 24
M  V30 24 1 23 25
M  V30 25 2 25 26
M  V30 26 1 26 27
M  V30 27 1 27 28
M  V30 28 2 28 29
M  V30 29 1 29 30
M  V30 30 2 30 31
M  V30 31 1 31 32
M  V30 32 2 32 33
M  V30 33 1 27 5
M  V30 34 1 33 28
M  V30 35 1 16 11
M  V30 36 1 26 20
M  V30 37 1 1 34
M  V30 38 1 1 35
M  V30 39 1 1 36
M  V30 40 1 7 37
M  V30 41 1 7 38
M  V30 42 1 8 39
M  V30 43 1 12 40
M  V30 44 1 13 41
M  V30 45 1 14 42
M  V30 46 1 15 43
M  V30 47 1 21 44
M  V30 48 1 22 45
M  V30 49 1 25 46
M  V30 50 1 29 47
M  V30 51 1 30 48
M  V30 52 1 31 49
M  V30 53 1 32 50
M  V30 54 1 33 51
M  V30 END BOND
M  V30 END CTAB
M  END
>  <Dataset>  (648) 
ChEMBL_Kinases

>  <Ligand_Instance>  (648) 
nan

>  <PDB_ID>  (648) 
nan

>  <Standardized_SMILES>  (648) 
COC(=O)c1c(CNC(=O)c2ccccc2F)c(=O)c2ccc(Cl)cc2n1-c1ccccc1

>  <Name>  (648) 
nan

>  <Pocket>  (648) 
nan

>  <ATP_Site>  (648) 
nan

>  <Peripheral>  (648) 
nan

>  <Num_H_Atoms_ProtBoundConf>  (648) 
nan

>  <Num_Resolved_Atoms>  (648) 
nan

>  <Num_Not_Resolved_Atoms>  (648) 
nan

$$$$
CHEMBL3679565
     RDKit          3D

  0  0  0  0  0  0  0  0  0  0999 V3000
M  V30 BEGIN CTAB
M  V30 COUNTS 50 53 0 0 0
M  V30 BEGIN ATOM
M  V30 1 C 1.639484 -4.263619 1.596876 0
M  V30 2 O 1.295904 -2.925605 1.901631 0
M  V30 3 C 0.174202 -2.306482 1.409339 0
M  V30 4 O -0.148241 -3.343618 0.786814 0
M  V30 5 C -0.586069 -1.088081 1.395847 0
M  V30 6 C -0.093202 -0.036011 2.114721 0
M  V30 7 C 1.189643 0.129876 2.819837 0
M  V30 8 N 2.279850 0.602714 2.000381 0
M  V30 9 C 3.073285 0.295328 0.875786 0
M  V30 10 O 2.768624 -0.786703 0.338051 0
M  V30 11 C 4.140583 1.165495 0.402318 0
M  V30 12 C 4.823426 0.685522 -0.686507 0
M  V30 13 C 5.878549 1.388904 -1.267068 0
M  V30 14 C 6.139193 2.600248 -0.619388 0
M  V30 15 C 5.471337 3.103144 0.471538 0
M  V30 16 N 4.469817 2.349407 0.956737 0
M  V30 17 C -0.859681 1.135981 2.174840 0
M  V30 18 O -0.537440 2.199234 2.805396 0
M  V30 19 C -2.083141 1.163643 1.495088 0
M  V30 20 C -2.855159 2.326215 1.547802 0
M  V30 21 C -4.064291 2.376656 0.885816 0
M  V30 22 C -4.423569 1.239475 0.204498 0
M  V30 23 Cl -5.962350 1.287298 -0.641645 0
M  V30 24 C -3.685570 0.062510 0.125690 0
M  V30 25 C -2.467461 0.035601 0.803371 0
M  V30 26 N -1.749808 -1.081951 0.740006 0
M  V30 27 C -2.243253 -2.177294 -0.002619 0
M  V30 28 C -3.242657 -2.920121 0.569129 0
M  V30 29 C -3.837728 -4.023008 -0.037278 0
M  V30 30 C -3.377404 -4.375945 -1.296317 0
M  V30 31 C -2.360847 -3.641991 -1.908500 0
M  V30 32 C -1.788794 -2.543218 -1.271165 0
M  V30 33 H 2.491943 -4.509227 2.258721 0
M  V30 34 H 0.851503 -4.995150 1.808203 0
M  V30 35 H 1.930959 -4.384799 0.534379 0
M  V30 36 H 1.106315 0.705413 3.734376 0
M  V30 37 H 1.559434 -0.893502 3.186210 0
M  V30 38 H 2.617640 1.554174 2.384621 0
M  V30 39 H 4.590672 -0.264347 -1.163040 0
M  V30 40 H 6.396282 1.001706 -2.110118 0
M  V30 41 H 6.970907 3.170680 -1.061969 0
M  V30 42 H 5.736484 4.041287 0.904980 0
M  V30 43 H -2.531984 3.193199 2.095796 0
M  V30 44 H -4.701258 3.250073 0.895531 0
M  V30 45 H -4.076251 -0.764062 -0.439667 0
M  V30 46 H -3.648532 -2.697460 1.548781 0
M  V30 47 H -4.620825 -4.623555 0.378773 0
M  V30 48 H -3.750069 -5.208359 -1.886940 0
M  V30 49 H -1.998044 -3.909407 -2.888438 0
M  V30 50 H -1.000885 -1.941706 -1.701958 0
M  V30 END ATOM
M  V30 BEGIN BOND
M  V30 1 1 1 2
M  V30 2 1 2 3
M  V30 3 2 3 4
M  V30 4 1 3 5
M  V30 5 2 5 6
M  V30 6 1 6 7
M  V30 7 1 7 8
M  V30 8 1 8 9
M  V30 9 2 9 10
M  V30 10 1 9 11
M  V30 11 2 11 12
M  V30 12 1 12 13
M  V30 13 2 13 14
M  V30 14 1 14 15
M  V30 15 2 15 16
M  V30 16 1 6 17
M  V30 17 2 17 18
M  V30 18 1 17 19
M  V30 19 2 19 20
M  V30 20 1 20 21
M  V30 21 2 21 22
M  V30 22 1 22 23
M  V30 23 1 22 24
M  V30 24 2 24 25
M  V30 25 1 25 26
M  V30 26 1 26 27
M  V30 27 2 27 28
M  V30 28 1 28 29
M  V30 29 2 29 30
M  V30 30 1 30 31
M  V30 31 2 31 32
M  V30 32 1 26 5
M  V30 33 1 32 27
M  V30 34 1 16 11
M  V30 35 1 25 19
M  V30 36 1 1 33
M  V30 37 1 1 34
M  V30 38 1 1 35
M  V30 39 1 7 36
M  V30 40 1 7 37
M  V30 41 1 8 38
M  V30 42 1 12 39
M  V30 43 1 13 40
M  V30 44 1 14 41
M  V30 45 1 15 42
M  V30 46 1 20 43
M  V30 47 1 21 44
M  V30 48 1 24 45
M  V30 49 1 28 46
M  V30 50 1 29 47
M  V30 51 1 30 48
M  V30 52 1 31 49
M  V30 53 1 32 50
M  V30 END BOND
M  V30 END CTAB
M  END
>  <Dataset>  (649) 
ChEMBL_Kinases

>  <Ligand_Instance>  (649) 
nan

>  <PDB_ID>  (649) 
nan

>  <Standardized_SMILES>  (649) 
COC(=O)c1c(CNC(=O)c2ccccn2)c(=O)c2ccc(Cl)cc2n1-c1ccccc1

>  <Name>  (649) 
nan

>  <Pocket>  (649) 
nan

>  <ATP_Site>  (649) 
nan

>  <Peripheral>  (649) 
nan

>  <Num_H_Atoms_ProtBoundConf>  (649) 
nan

>  <Num_Resolved_Atoms>  (649) 
nan

>  <Num_Not_Resolved_Atoms>  (649) 
nan

$$$$
CHEMBL3679566
     RDKit          3D

  0  0  0  0  0  0  0  0  0  0999 V3000
M  V30 BEGIN CTAB
M  V30 COUNTS 50 52 0 0 0
M  V30 BEGIN ATOM
M  V30 1 C 1.518259 -3.193664 3.031321 0
M  V30 2 O 1.037969 -1.946235 2.628030 0
M  V30 3 C 0.057001 -1.749688 1.683741 0
M  V30 4 O 0.005393 -2.999071 1.569477 0
M  V30 5 C -0.586934 -0.578397 1.117611 0
M  V30 6 C -0.214919 0.679962 1.538720 0
M  V30 7 C 0.813886 0.958018 2.538794 0
M  V30 8 N 2.173179 0.809313 2.104756 0
M  V30 9 C 2.866157 1.482428 1.058910 0
M  V30 10 O 2.196965 2.349216 0.399169 0
M  V30 11 C 4.273426 1.237671 0.709170 0
M  V30 12 C 5.220044 1.517260 1.854490 0
M  V30 13 C 4.440744 -0.187687 0.228453 0
M  V30 14 C -0.951433 1.676371 0.886473 0
M  V30 15 O -0.738495 2.875764 1.154044 0
M  V30 16 C -1.928798 1.444456 -0.060622 0
M  V30 17 C -2.611767 2.459487 -0.661125 0
M  V30 18 C -3.572761 2.131049 -1.597683 0
M  V30 19 C -3.899344 0.841523 -1.977375 0
M  V30 20 Cl -5.132642 0.507712 -3.175022 0
M  V30 21 C -3.175313 -0.142840 -1.335983 0
M  V30 22 C -2.200750 0.131414 -0.389259 0
M  V30 23 N -1.527497 -0.870372 0.202680 0
M  V30 24 C -1.862769 -2.196389 -0.185301 0
M  V30 25 C -3.034172 -2.609464 0.412634 0
M  V30 26 C -3.552958 -3.881975 0.174591 0
M  V30 27 C -2.848765 -4.706914 -0.680526 0
M  V30 28 C -1.683592 -4.307166 -1.280593 0
M  V30 29 C -1.175760 -3.054442 -1.044093 0
M  V30 30 H 2.194843 -3.015094 3.891726 0
M  V30 31 H 0.705667 -3.852704 3.451220 0
M  V30 32 H 2.016951 -3.759805 2.222450 0
M  V30 33 H 0.616253 2.017969 2.887270 0
M  V30 34 H 0.694897 0.359217 3.466238 0
M  V30 35 H 2.827238 0.116214 2.584340 0
M  V30 36 H 4.562109 1.907362 -0.123727 0
M  V30 37 H 6.255585 1.429391 1.418342 0
M  V30 38 H 5.112489 2.556607 2.184068 0
M  V30 39 H 5.188720 0.769129 2.657074 0
M  V30 40 H 3.470001 -0.523917 -0.191547 0
M  V30 41 H 5.206172 -0.261851 -0.576560 0
M  V30 42 H 4.746063 -0.852815 1.086339 0
M  V30 43 H -2.412017 3.488744 -0.416363 0
M  V30 44 H -4.100888 2.966136 -2.059037 0
M  V30 45 H -3.418625 -1.175241 -1.622700 0
M  V30 46 H -3.655549 -2.036181 1.095603 0
M  V30 47 H -4.459598 -4.246296 0.617084 0
M  V30 48 H -3.196485 -5.707272 -0.908294 0
M  V30 49 H -1.084374 -4.889855 -1.953237 0
M  V30 50 H -0.272287 -2.608519 -1.446505 0
M  V30 END ATOM
M  V30 BEGIN BOND
M  V30 1 1 1 2
M  V30 2 1 2 3
M  V30 3 2 3 4
M  V30 4 1 3 5
M  V30 5 2 5 6
M  V30 6 1 6 7
M  V30 7 1 7 8
M  V30 8 1 8 9
M  V30 9 2 9 10
M  V30 10 1 9 11
M  V30 11 1 11 12
M  V30 12 1 11 13
M  V30 13 1 6 14
M  V30 14 2 14 15
M  V30 15 1 14 16
M  V30 16 2 16 17
M  V30 17 1 17 18
M  V30 18 2 18 19
M  V30 19 1 19 20
M  V30 20 1 19 21
M  V30 21 2 21 22
M  V30 22 1 22 23
M  V30 23 1 23 24
M  V30 24 2 24 25
M  V30 25 1 25 26
M  V30 26 2 26 27
M  V30 27 1 27 28
M  V30 28 2 28 29
M  V30 29 1 23 5
M  V30 30 1 29 24
M  V30 31 1 22 16
M  V30 32 1 1 30
M  V30 33 1 1 31
M  V30 34 1 1 32
M  V30 35 1 7 33
M  V30 36 1 7 34
M  V30 37 1 8 35
M  V30 38 1 11 36
M  V30 39 1 12 37
M  V30 40 1 12 38
M  V30 41 1 12 39
M  V30 42 1 13 40
M  V30 43 1 13 41
M  V30 44 1 13 42
M  V30 45 1 17 43
M  V30 46 1 18 44
M  V30 47 1 21 45
M  V30 48 1 25 46
M  V30 49 1 26 47
M  V30 50 1 27 48
M  V30 51 1 28 49
M  V30 52 1 29 50
M  V30 END BOND
M  V30 END CTAB
M  END
>  <Dataset>  (650) 
ChEMBL_Kinases

>  <Ligand_Instance>  (650) 
nan

>  <PDB_ID>  (650) 
nan

>  <Standardized_SMILES>  (650) 
COC(=O)c1c(CNC(=O)C(C)C)c(=O)c2ccc(Cl)cc2n1-c1ccccc1

>  <Name>  (650) 
nan

>  <Pocket>  (650) 
nan

>  <ATP_Site>  (650) 
nan

>  <Peripheral>  (650) 
nan

>  <Num_H_Atoms_ProtBoundConf>  (650) 
nan

>  <Num_Resolved_Atoms>  (650) 
nan

>  <Num_Not_Resolved_Atoms>  (650) 
nan

$$$$
CHEMBL3679567
     RDKit          3D

  0  0  0  0  0  0  0  0  0  0999 V3000
M  V30 BEGIN CTAB
M  V30 COUNTS 51 54 0 0 0
M  V30 BEGIN ATOM
M  V30 1 C 3.383878 -2.936340 0.076046 0
M  V30 2 O 2.427420 -2.283605 0.876649 0
M  V30 3 C 1.095769 -2.324402 0.549242 0
M  V30 4 O 1.097477 -3.013864 -0.500708 0
M  V30 5 C -0.168792 -1.828968 1.060161 0
M  V30 6 C -0.108791 -1.068269 2.199351 0
M  V30 7 C 1.038777 -0.550030 2.941740 0
M  V30 8 N 1.573723 0.701335 2.476488 0
M  V30 9 C 2.141678 1.371252 1.369924 0
M  V30 10 O 2.262843 0.671724 0.338789 0
M  V30 11 C 2.580102 2.763723 1.337032 0
M  V30 12 C 3.901200 3.086390 1.111699 0
M  V30 13 C 4.189202 4.451047 1.107139 0
M  V30 14 C 3.250746 5.450449 1.310027 0
M  V30 15 C 1.942329 5.017038 1.529805 0
M  V30 16 C 1.569987 3.677221 1.550239 0
M  V30 17 Cl -0.098181 3.202683 1.833730 0
M  V30 18 C -1.344858 -0.661253 2.718790 0
M  V30 19 O -1.456247 0.049818 3.775152 0
M  V30 20 C -2.544524 -0.999691 2.125450 0
M  V30 21 C -3.776438 -0.624096 2.602486 0
M  V30 22 C -4.957718 -0.999511 1.959791 0
M  V30 23 C -4.854134 -1.765190 0.821346 0
M  V30 24 Cl -6.347453 -2.239778 0.012175 0
M  V30 25 C -3.612761 -2.137564 0.349743 0
M  V30 26 C -2.447286 -1.764247 0.988554 0
M  V30 27 N -1.299932 -2.184298 0.444611 0
M  V30 28 C -1.284012 -2.962513 -0.722885 0
M  V30 29 C -1.327014 -4.338191 -0.833912 0
M  V30 30 C -1.299547 -4.950931 -2.091546 0
M  V30 31 C -1.229382 -4.199952 -3.252857 0
M  V30 32 C -1.185439 -2.805075 -3.151453 0
M  V30 33 C -1.214341 -2.242016 -1.894493 0
M  V30 34 H 3.479867 -4.025409 0.324622 0
M  V30 35 H 4.347667 -2.394049 0.263793 0
M  V30 36 H 3.145453 -2.809902 -1.000017 0
M  V30 37 H 0.824585 -0.453769 4.018682 0
M  V30 38 H 1.897874 -1.287774 2.911032 0
M  V30 39 H 1.548544 1.450150 3.241252 0
M  V30 40 H 4.663839 2.351612 0.948201 0
M  V30 41 H 5.234885 4.719935 0.927148 0
M  V30 42 H 3.506631 6.493831 1.299911 0
M  V30 43 H 1.198103 5.783849 1.689824 0
M  V30 44 H -3.774743 -0.024341 3.500653 0
M  V30 45 H -5.916763 -0.686058 2.366383 0
M  V30 46 H -3.570506 -2.737668 -0.545727 0
M  V30 47 H -1.380864 -4.867950 0.107145 0
M  V30 48 H -1.335740 -6.049932 -2.119903 0
M  V30 49 H -1.210660 -4.711139 -4.204575 0
M  V30 50 H -1.132448 -2.292358 -4.085517 0
M  V30 51 H -1.176304 -1.148633 -1.936549 0
M  V30 END ATOM
M  V30 BEGIN BOND
M  V30 1 1 1 2
M  V30 2 1 2 3
M  V30 3 2 3 4
M  V30 4 1 3 5
M  V30 5 2 5 6
M  V30 6 1 6 7
M  V30 7 1 7 8
M  V30 8 1 8 9
M  V30 9 2 9 10
M  V30 10 1 9 11
M  V30 11 2 11 12
M  V30 12 1 12 13
M  V30 13 2 13 14
M  V30 14 1 14 15
M  V30 15 2 15 16
M  V30 16 1 16 17
M  V30 17 1 6 18
M  V30 18 2 18 19
M  V30 19 1 18 20
M  V30 20 2 20 21
M  V30 21 1 21 22
M  V30 22 2 22 23
M  V30 23 1 23 24
M  V30 24 1 23 25
M  V30 25 2 25 26
M  V30 26 1 26 27
M  V30 27 1 27 28
M  V30 28 2 28 29
M  V30 29 1 29 30
M  V30 30 2 30 31
M  V30 31 1 31 32
M  V30 32 2 32 33
M  V30 33 1 27 5
M  V30 34 1 33 28
M  V30 35 1 16 11
M  V30 36 1 26 20
M  V30 37 1 1 34
M  V30 38 1 1 35
M  V30 39 1 1 36
M  V30 40 1 7 37
M  V30 41 1 7 38
M  V30 42 1 8 39
M  V30 43 1 12 40
M  V30 44 1 13 41
M  V30 45 1 14 42
M  V30 46 1 15 43
M  V30 47 1 21 44
M  V30 48 1 22 45
M  V30 49 1 25 46
M  V30 50 1 29 47
M  V30 51 1 30 48
M  V30 52 1 31 49
M  V30 53 1 32 50
M  V30 54 1 33 51
M  V30 END BOND
M  V30 END CTAB
M  END
>  <Dataset>  (651) 
ChEMBL_Kinases

>  <Ligand_Instance>  (651) 
nan

>  <PDB_ID>  (651) 
nan

>  <Standardized_SMILES>  (651) 
COC(=O)c1c(CNC(=O)c2ccccc2Cl)c(=O)c2ccc(Cl)cc2n1-c1ccccc1

>  <Name>  (651) 
nan

>  <Pocket>  (651) 
nan

>  <ATP_Site>  (651) 
nan

>  <Peripheral>  (651) 
nan

>  <Num_H_Atoms_ProtBoundConf>  (651) 
nan

>  <Num_Resolved_Atoms>  (651) 
nan

>  <Num_Not_Resolved_Atoms>  (651) 
nan

$$$$
CHEMBL3679568
     RDKit          3D

  0  0  0  0  0  0  0  0  0  0999 V3000
M  V30 BEGIN CTAB
M  V30 COUNTS 55 58 0 0 0
M  V30 BEGIN ATOM
M  V30 1 C 3.019857 0.885954 -0.600168 0
M  V30 2 O 2.245324 -0.064143 0.095948 0
M  V30 3 C 1.385028 -0.933657 -0.560230 0
M  V30 4 O 1.550622 -0.593986 -1.758160 0
M  V30 5 C 0.533410 -1.956121 0.034278 0
M  V30 6 C 0.477720 -2.195130 1.389692 0
M  V30 7 C 1.317803 -1.388154 2.321616 0
M  V30 8 N 0.678738 -0.070182 2.443847 0
M  V30 9 C 1.249910 0.908662 3.262977 0
M  V30 10 O 2.309805 0.450779 3.804617 0
M  V30 11 C 0.824950 2.260415 3.547922 0
M  V30 12 C 1.597965 3.010542 4.410341 0
M  V30 13 C 1.312249 4.291152 4.762401 0
M  V30 14 C 0.195244 4.892640 4.241770 0
M  V30 15 C -0.599440 4.199517 3.388902 0
M  V30 16 C -0.284960 2.900672 3.049018 0
M  V30 17 O -1.098630 2.232529 2.193455 0
M  V30 18 C -2.258938 2.636441 1.557877 0
M  V30 19 C -0.372035 -3.193164 1.819933 0
M  V30 20 O -0.398294 -3.385622 3.069039 0
M  V30 21 C -1.137770 -3.926748 0.941640 0
M  V30 22 C -1.970041 -4.913135 1.426423 0
M  V30 23 C -2.736503 -5.648748 0.550517 0
M  V30 24 C -2.664647 -5.391898 -0.804679 0
M  V30 25 Cl -3.631745 -6.314980 -1.938963 0
M  V30 26 C -1.816586 -4.393708 -1.246718 0
M  V30 27 C -1.033813 -3.635840 -0.401756 0
M  V30 28 N -0.202833 -2.656646 -0.846399 0
M  V30 29 C -0.218027 -2.488314 -2.258689 0
M  V30 30 C -0.933068 -1.366202 -2.687204 0
M  V30 31 C -1.022199 -1.091711 -4.052968 0
M  V30 32 C -0.405093 -1.928775 -4.962664 0
M  V30 33 C 0.300598 -3.035994 -4.539274 0
M  V30 34 C 0.390882 -3.312414 -3.173446 0
M  V30 35 H 2.416725 1.720873 -1.000806 0
M  V30 36 H 3.546856 0.412117 -1.449408 0
M  V30 37 H 3.785177 1.261878 0.139775 0
M  V30 38 H 1.193751 -1.828537 3.355795 0
M  V30 39 H 2.370459 -1.336177 2.048248 0
M  V30 40 H -0.187537 0.178688 1.948195 0
M  V30 41 H 2.505704 2.578980 4.857501 0
M  V30 42 H 1.952451 4.833074 5.443502 0
M  V30 43 H 0.007418 5.928828 4.556730 0
M  V30 44 H -1.458748 4.720119 3.013484 0
M  V30 45 H -2.136290 2.404104 0.459375 0
M  V30 46 H -2.571628 3.669688 1.677291 0
M  V30 47 H -3.092457 2.009198 1.985552 0
M  V30 48 H -2.048485 -5.139866 2.494549 0
M  V30 49 H -3.408483 -6.433953 0.854868 0
M  V30 50 H -1.776600 -4.211506 -2.302588 0
M  V30 51 H -1.455130 -0.642507 -2.062198 0
M  V30 52 H -1.567590 -0.231193 -4.424534 0
M  V30 53 H -0.458211 -1.738255 -6.032256 0
M  V30 54 H 0.802891 -3.725842 -5.192835 0
M  V30 55 H 0.919325 -4.154675 -2.743891 0
M  V30 END ATOM
M  V30 BEGIN BOND
M  V30 1 1 1 2
M  V30 2 1 2 3
M  V30 3 2 3 4
M  V30 4 1 3 5
M  V30 5 2 5 6
M  V30 6 1 6 7
M  V30 7 1 7 8
M  V30 8 1 8 9
M  V30 9 2 9 10
M  V30 10 1 9 11
M  V30 11 2 11 12
M  V30 12 1 12 13
M  V30 13 2 13 14
M  V30 14 1 14 15
M  V30 15 2 15 16
M  V30 16 1 16 17
M  V30 17 1 17 18
M  V30 18 1 6 19
M  V30 19 2 19 20
M  V30 20 1 19 21
M  V30 21 2 21 22
M  V30 22 1 22 23
M  V30 23 2 23 24
M  V30 24 1 24 25
M  V30 25 1 24 26
M  V30 26 2 26 27
M  V30 27 1 27 28
M  V30 28 1 28 29
M  V30 29 2 29 30
M  V30 30 1 30 31
M  V30 31 2 31 32
M  V30 32 1 32 33
M  V30 33 2 33 34
M  V30 34 1 28 5
M  V30 35 1 34 29
M  V30 36 1 16 11
M  V30 37 1 27 21
M  V30 38 1 1 35
M  V30 39 1 1 36
M  V30 40 1 1 37
M  V30 41 1 7 38
M  V30 42 1 7 39
M  V30 43 1 8 40
M  V30 44 1 12 41
M  V30 45 1 13 42
M  V30 46 1 14 43
M  V30 47 1 15 44
M  V30 48 1 18 45
M  V30 49 1 18 46
M  V30 50 1 18 47
M  V30 51 1 22 48
M  V30 52 1 23 49
M  V30 53 1 26 50
M  V30 54 1 30 51
M  V30 55 1 31 52
M  V30 56 1 32 53
M  V30 57 1 33 54
M  V30 58 1 34 55
M  V30 END BOND
M  V30 END CTAB
M  END
>  <Dataset>  (652) 
ChEMBL_Kinases

>  <Ligand_Instance>  (652) 
nan

>  <PDB_ID>  (652) 
nan

>  <Standardized_SMILES>  (652) 
COC(=O)c1c(CNC(=O)c2ccccc2OC)c(=O)c2ccc(Cl)cc2n1-c1ccccc1

>  <Name>  (652) 
nan

>  <Pocket>  (652) 
nan

>  <ATP_Site>  (652) 
nan

>  <Peripheral>  (652) 
nan

>  <Num_H_Atoms_ProtBoundConf>  (652) 
nan

>  <Num_Resolved_Atoms>  (652) 
nan

>  <Num_Not_Resolved_Atoms>  (652) 
nan

$$$$
CHEMBL3679560
     RDKit          3D

  0  0  0  0  0  0  0  0  0  0999 V3000
M  V30 BEGIN CTAB
M  V30 COUNTS 51 54 0 0 0
M  V30 BEGIN ATOM
M  V30 1 C 3.492217 -2.951650 0.748289 0
M  V30 2 O 2.395640 -2.292805 1.348499 0
M  V30 3 C 1.121810 -2.333218 0.825253 0
M  V30 4 O 1.565691 -3.050878 -0.100941 0
M  V30 5 C -0.174986 -1.804795 1.158311 0
M  V30 6 C -0.281500 -1.021885 2.270358 0
M  V30 7 C 0.767670 -0.486164 3.170574 0
M  V30 8 N 1.248622 0.753445 2.629005 0
M  V30 9 C 1.842670 1.403010 1.555243 0
M  V30 10 O 2.101931 0.644165 0.603013 0
M  V30 11 C 2.180425 2.808432 1.425509 0
M  V30 12 C 2.754568 3.165776 0.238038 0
M  V30 13 C 3.112593 4.498168 0.027032 0
M  V30 14 C 2.899396 5.482327 1.001398 0
M  V30 15 F 3.251379 6.768412 0.782458 0
M  V30 16 C 2.319127 5.077435 2.180746 0
M  V30 17 Cl 2.018054 6.259778 3.456271 0
M  V30 18 C 1.962708 3.762534 2.396087 0
M  V30 19 C -1.595945 -0.621094 2.549338 0
M  V30 20 O -1.850140 0.105720 3.549450 0
M  V30 21 C -2.680582 -0.977822 1.777526 0
M  V30 22 C -3.958283 -0.561331 2.087314 0
M  V30 23 C -4.999664 -0.943049 1.288658 0
M  V30 24 C -4.787280 -1.731623 0.188796 0
M  V30 25 Cl -6.152769 -2.205884 -0.818868 0
M  V30 26 C -3.507846 -2.142857 -0.112927 0
M  V30 27 C -2.422598 -1.770736 0.682115 0
M  V30 28 N -1.178017 -2.178177 0.379508 0
M  V30 29 C -0.970242 -2.996352 -0.764472 0
M  V30 30 C -0.998366 -4.348625 -0.640138 0
M  V30 31 C -0.799885 -5.170363 -1.732602 0
M  V30 32 C -0.573340 -4.556824 -2.947036 0
M  V30 33 C -0.541468 -3.184440 -3.091344 0
M  V30 34 C -0.741953 -2.360255 -1.987942 0
M  V30 35 H 3.295368 -4.051721 0.682815 0
M  V30 36 H 3.655303 -2.592576 -0.278293 0
M  V30 37 H 4.404270 -2.833778 1.367015 0
M  V30 38 H 0.330248 -0.304236 4.166128 0
M  V30 39 H 1.610141 -1.231700 3.251603 0
M  V30 40 H 1.093882 1.541228 3.351514 0
M  V30 41 H 2.967716 2.484523 -0.591356 0
M  V30 42 H 3.566120 4.772596 -0.914278 0
M  V30 43 H 1.515979 3.501329 3.329440 0
M  V30 44 H -4.108021 0.064805 2.966565 0
M  V30 45 H -6.016328 -0.618505 1.524188 0
M  V30 46 H -3.388095 -2.763146 -0.989164 0
M  V30 47 H -1.173575 -4.828733 0.296964 0
M  V30 48 H -0.817759 -6.249162 -1.658317 0
M  V30 49 H -0.408373 -5.131136 -3.853401 0
M  V30 50 H -0.368212 -2.652821 -4.020226 0
M  V30 51 H -0.730596 -1.272046 -2.029058 0
M  V30 END ATOM
M  V30 BEGIN BOND
M  V30 1 1 1 2
M  V30 2 1 2 3
M  V30 3 2 3 4
M  V30 4 1 3 5
M  V30 5 2 5 6
M  V30 6 1 6 7
M  V30 7 1 7 8
M  V30 8 1 8 9
M  V30 9 2 9 10
M  V30 10 1 9 11
M  V30 11 2 11 12
M  V30 12 1 12 13
M  V30 13 2 13 14
M  V30 14 1 14 15
M  V30 15 1 14 16
M  V30 16 1 16 17
M  V30 17 2 16 18
M  V30 18 1 6 19
M  V30 19 2 19 20
M  V30 20 1 19 21
M  V30 21 2 21 22
M  V30 22 1 22 23
M  V30 23 2 23 24
M  V30 24 1 24 25
M  V30 25 1 24 26
M  V30 26 2 26 27
M  V30 27 1 27 28
M  V30 28 1 28 29
M  V30 29 2 29 30
M  V30 30 1 30 31
M  V30 31 2 31 32
M  V30 32 1 32 33
M  V30 33 2 33 34
M  V30 34 1 28 5
M  V30 35 1 34 29
M  V30 36 1 18 11
M  V30 37 1 27 21
M  V30 38 1 1 35
M  V30 39 1 1 36
M  V30 40 1 1 37
M  V30 41 1 7 38
M  V30 42 1 7 39
M  V30 43 1 8 40
M  V30 44 1 12 41
M  V30 45 1 13 42
M  V30 46 1 18 43
M  V30 47 1 22 44
M  V30 48 1 23 45
M  V30 49 1 26 46
M  V30 50 1 30 47
M  V30 51 1 31 48
M  V30 52 1 32 49
M  V30 53 1 33 50
M  V30 54 1 34 51
M  V30 END BOND
M  V30 END CTAB
M  END
>  <Dataset>  (653) 
ChEMBL_Kinases

>  <Ligand_Instance>  (653) 
nan

>  <PDB_ID>  (653) 
nan

>  <Standardized_SMILES>  (653) 
COC(=O)c1c(CNC(=O)c2ccc(F)c(Cl)c2)c(=O)c2ccc(Cl)cc2n1-c1ccccc1

>  <Name>  (653) 
nan

>  <Pocket>  (653) 
nan

>  <ATP_Site>  (653) 
nan

>  <Peripheral>  (653) 
nan

>  <Num_H_Atoms_ProtBoundConf>  (653) 
nan

>  <Num_Resolved_Atoms>  (653) 
nan

>  <Num_Not_Resolved_Atoms>  (653) 
nan

$$$$
CHEMBL3680379
     RDKit          3D

  0  0  0  0  0  0  0  0  0  0999 V3000
M  V30 BEGIN CTAB
M  V30 COUNTS 58 63 0 0 0
M  V30 BEGIN ATOM
M  V30 1 C 1.529236 -3.382665 1.383921 0
M  V30 2 C 2.855075 -2.799471 1.848316 0 CFG=1
M  V30 3 C 3.664204 -2.335944 0.680003 0
M  V30 4 C 3.796298 -0.802846 0.634445 0
M  V30 5 C 2.577365 -0.231907 1.208272 0 CFG=2
M  V30 6 N 2.154016 1.060928 0.800452 0
M  V30 7 C 2.875093 2.107331 0.378230 0
M  V30 8 C 4.226214 2.306965 0.198086 0
M  V30 9 N 4.744463 3.468915 -0.247234 0
M  V30 10 C 3.904776 4.506250 -0.538033 0
M  V30 11 C 2.534763 4.402999 -0.389660 0
M  V30 12 C 2.076141 3.184442 0.070498 0
M  V30 13 C 0.798471 2.775134 0.317610 0
M  V30 14 C -0.473896 3.324730 0.229321 0
M  V30 15 N -1.583734 2.640990 0.555835 0
M  V30 16 C -1.506201 1.350784 0.997109 0
M  V30 17 N -2.536066 0.453506 1.382862 0
M  V30 18 C -3.060104 -0.471607 0.470766 0
M  V30 19 C -2.625400 -0.583576 -0.823449 0
M  V30 20 C -3.153810 -1.506189 -1.703862 0
M  V30 21 C -4.175442 -2.367440 -1.269045 0
M  V30 22 C -4.569521 -2.205360 0.043690 0
M  V30 23 N -4.045270 -1.306208 0.880228 0
M  V30 24 C -5.646464 -3.192551 0.321626 0
M  V30 25 C -5.165142 -4.490126 -0.331626 0
M  V30 26 N -5.305909 -4.408898 -1.762216 0
M  V30 27 C -4.632284 -3.291507 -2.327955 0
M  V30 28 N -0.283702 0.792551 1.092530 0
M  V30 29 C 0.850558 1.474583 0.764543 0
M  V30 30 C 2.673984 -0.415381 2.719107 0
M  V30 31 C 2.706331 -1.868587 2.991665 0
M  V30 32 H 0.662775 -2.872173 1.889896 0
M  V30 33 H 1.410799 -4.459466 1.619871 0
M  V30 34 H 1.424391 -3.327688 0.276373 0
M  V30 35 H 3.420859 -3.680927 2.279038 0
M  V30 36 H 3.161969 -2.664117 -0.253060 0
M  V30 37 H 4.679714 -2.783511 0.646480 0
M  V30 38 H 4.048610 -0.560571 -0.394539 0
M  V30 39 H 4.649914 -0.647998 1.360497 0
M  V30 40 H 1.737193 -0.940812 0.930240 0
M  V30 41 H 4.914113 1.517807 0.415865 0
M  V30 42 H 4.302435 5.452387 -0.898819 0
M  V30 43 H 1.862821 5.223881 -0.618010 0
M  V30 44 H -0.593255 4.329614 -0.109049 0
M  V30 45 H -2.876238 0.517932 2.362512 0
M  V30 46 H -1.838307 0.110935 -1.083929 0
M  V30 47 H -2.692666 -1.457319 -2.685394 0
M  V30 48 H -6.594836 -2.951078 -0.189696 0
M  V30 49 H -5.840673 -3.368044 1.375094 0
M  V30 50 H -5.808965 -5.350728 -0.015110 0
M  V30 51 H -4.132016 -4.714599 -0.023332 0
M  V30 52 H -4.950746 -5.285121 -2.181746 0
M  V30 53 H -5.350174 -2.738187 -2.994215 0
M  V30 54 H -3.753894 -3.644768 -2.918736 0
M  V30 55 H 1.845271 0.146722 3.198675 0
M  V30 56 H 3.646280 0.073683 3.010618 0
M  V30 57 H 3.466362 -2.026698 3.809017 0
M  V30 58 H 1.738832 -2.126851 3.502689 0
M  V30 END ATOM
M  V30 BEGIN BOND
M  V30 1 1 1 2
M  V30 2 1 2 3
M  V30 3 1 3 4
M  V30 4 1 4 5
M  V30 5 1 5 6
M  V30 6 1 6 7
M  V30 7 2 7 8
M  V30 8 1 8 9
M  V30 9 2 9 10
M  V30 10 1 10 11
M  V30 11 2 11 12
M  V30 12 1 12 13
M  V30 13 2 13 14
M  V30 14 1 14 15
M  V30 15 2 15 16
M  V30 16 1 16 17
M  V30 17 1 17 18
M  V30 18 2 18 19
M  V30 19 1 19 20
M  V30 20 2 20 21
M  V30 21 1 21 22
M  V30 22 2 22 23
M  V30 23 1 22 24
M  V30 24 1 24 25
M  V30 25 1 25 26
M  V30 26 1 26 27
M  V30 27 1 16 28
M  V30 28 2 28 29
M  V30 29 1 5 30
M  V30 30 1 30 31
M  V30 31 1 31 2
M  V30 32 1 29 6
M  V30 33 1 12 7
M  V30 34 1 29 13
M  V30 35 1 23 18
M  V30 36 1 27 21
M  V30 37 1 1 32
M  V30 38 1 1 33
M  V30 39 1 1 34
M  V30 40 1 2 35 CFG=1
M  V30 41 1 3 36
M  V30 42 1 3 37
M  V30 43 1 4 38
M  V30 44 1 4 39
M  V30 45 1 5 40 CFG=3
M  V30 46 1 8 41
M  V30 47 1 10 42
M  V30 48 1 11 43
M  V30 49 1 14 44
M  V30 50 1 17 45
M  V30 51 1 19 46
M  V30 52 1 20 47
M  V30 53 1 24 48
M  V30 54 1 24 49
M  V30 55 1 25 50
M  V30 56 1 25 51
M  V30 57 1 26 52
M  V30 58 1 27 53
M  V30 59 1 27 54
M  V30 60 1 30 55
M  V30 61 1 30 56
M  V30 62 1 31 57
M  V30 63 1 31 58
M  V30 END BOND
M  V30 END CTAB
M  END
>  <Dataset>  (654) 
ChEMBL_Kinases

>  <Ligand_Instance>  (654) 
nan

>  <PDB_ID>  (654) 
nan

>  <Standardized_SMILES>  (654) 
C[C@H]1CC[C@H](n2c3cnccc3c3cnc(Nc4ccc5c(n4)CCNC5)nc32)CC1

>  <Name>  (654) 
nan

>  <Pocket>  (654) 
nan

>  <ATP_Site>  (654) 
nan

>  <Peripheral>  (654) 
nan

>  <Num_H_Atoms_ProtBoundConf>  (654) 
nan

>  <Num_Resolved_Atoms>  (654) 
nan

>  <Num_Not_Resolved_Atoms>  (654) 
nan

$$$$
CHEMBL368010
     RDKit          3D

  0  0  0  0  0  0  0  0  0  0999 V3000
M  V30 BEGIN CTAB
M  V30 COUNTS 63 68 0 0 0
M  V30 BEGIN ATOM
M  V30 1 N 5.470734 -2.162829 7.075678 0
M  V30 2 C 4.955932 -1.941084 6.048841 0
M  V30 3 C 4.321974 -1.682887 4.780255 0
M  V30 4 C 4.666646 -2.378889 3.625364 0
M  V30 5 N 4.072785 -2.138076 2.432187 0
M  V30 6 C 3.100862 -1.187516 2.327563 0
M  V30 7 C 2.477992 -0.947947 1.030704 0
M  V30 8 C 2.632129 0.303423 0.452643 0
M  V30 9 C 2.070441 0.598734 -0.771598 0
M  V30 10 C 1.338146 -0.351496 -1.450652 0
M  V30 11 C 0.630343 -0.300819 -2.745024 0
M  V30 12 N -0.744177 0.037228 -2.598111 0
M  V30 13 C -0.946073 1.313518 -1.985153 0
M  V30 14 C -2.308599 1.311349 -1.307439 0
M  V30 15 C -3.225150 0.433966 -2.107796 0
M  V30 16 C -3.358336 -0.926275 -1.511716 0
M  V30 17 N -2.338434 -1.781423 -1.367834 0
M  V30 18 C -2.788742 -2.907131 -0.803729 0
M  V30 19 C -2.087231 -4.046980 -0.474206 0
M  V30 20 C -2.821701 -5.065885 0.104764 0
M  V30 21 F -2.166014 -6.195952 0.439720 0
M  V30 22 C -4.162778 -4.996398 0.355955 0
M  V30 23 C -4.814100 -3.835916 0.007372 0
M  V30 24 C -4.134108 -2.786802 -0.572863 0
M  V30 25 N -4.438723 -1.559442 -1.021613 0
M  V30 26 C -2.893258 0.405177 -3.576645 0
M  V30 27 C -1.486925 -0.061570 -3.837921 0
M  V30 28 C 1.179997 -1.615586 -0.871559 0
M  V30 29 C 1.747221 -1.923207 0.370582 0
M  V30 30 C 2.712839 -0.462225 3.434365 0
M  V30 31 C 1.696227 0.550682 3.386061 0
M  V30 32 C 1.988278 1.861028 3.698957 0
M  V30 33 C 1.160254 2.963661 3.711973 0
M  V30 34 C -0.166609 2.699326 3.353314 0
M  V30 35 C -0.539162 1.394789 3.022677 0
M  V30 36 C 0.357527 0.337311 3.034132 0
M  V30 37 C 3.329304 -0.717028 4.656902 0
M  V30 38 H 5.450721 -3.128545 3.767050 0
M  V30 39 H 3.184478 1.118053 0.898541 0
M  V30 40 H 2.135028 1.529826 -1.309701 0
M  V30 41 H 0.811693 -1.196095 -3.367791 0
M  V30 42 H 1.109157 0.554517 -3.308597 0
M  V30 43 H -0.217268 1.602241 -1.222043 0
M  V30 44 H -0.925760 2.150584 -2.743511 0
M  V30 45 H -2.700139 2.362464 -1.242892 0
M  V30 46 H -2.188525 0.956856 -0.254598 0
M  V30 47 H -4.258862 0.870322 -2.047059 0
M  V30 48 H -1.031412 -4.171314 -0.642648 0
M  V30 49 H -4.668438 -5.834880 0.811896 0
M  V30 50 H -5.865501 -3.709621 0.174252 0
M  V30 51 H -5.386526 -1.129499 -1.003295 0
M  V30 52 H -3.587158 -0.342331 -4.030280 0
M  V30 53 H -3.112184 1.402020 -3.989960 0
M  V30 54 H -1.465411 -1.154033 -4.122856 0
M  V30 55 H -0.989671 0.456012 -4.682348 0
M  V30 56 H 0.632625 -2.474929 -1.277767 0
M  V30 57 H 1.651871 -2.881514 0.854412 0
M  V30 58 H 3.033874 2.065082 3.980552 0
M  V30 59 H 1.530296 3.932307 3.978984 0
M  V30 60 H -0.860922 3.505851 3.342256 0
M  V30 61 H -1.590135 1.217642 2.744370 0
M  V30 62 H 0.071537 -0.674000 2.778524 0
M  V30 63 H 3.091653 -0.196414 5.588653 0
M  V30 END ATOM
M  V30 BEGIN BOND
M  V30 1 3 1 2
M  V30 2 1 2 3
M  V30 3 2 3 4
M  V30 4 1 4 5
M  V30 5 2 5 6
M  V30 6 1 6 7
M  V30 7 2 7 8
M  V30 8 1 8 9
M  V30 9 2 9 10
M  V30 10 1 10 11
M  V30 11 1 11 12
M  V30 12 1 12 13
M  V30 13 1 13 14
M  V30 14 1 14 15
M  V30 15 1 15 16
M  V30 16 2 16 17
M  V30 17 1 17 18
M  V30 18 2 18 19
M  V30 19 1 19 20
M  V30 20 1 20 21
M  V30 21 2 20 22
M  V30 22 1 22 23
M  V30 23 2 23 24
M  V30 24 1 24 25
M  V30 25 1 15 26
M  V30 26 1 26 27
M  V30 27 1 10 28
M  V30 28 2 28 29
M  V30 29 1 6 30
M  V30 30 1 30 31
M  V30 31 2 31 32
M  V30 32 1 32 33
M  V30 33 2 33 34
M  V30 34 1 34 35
M  V30 35 2 35 36
M  V30 36 2 30 37
M  V30 37 1 37 3
M  V30 38 1 29 7
M  V30 39 1 36 31
M  V30 40 1 27 12
M  V30 41 1 25 16
M  V30 42 1 24 18
M  V30 43 1 4 38
M  V30 44 1 8 39
M  V30 45 1 9 40
M  V30 46 1 11 41
M  V30 47 1 11 42
M  V30 48 1 13 43
M  V30 49 1 13 44
M  V30 50 1 14 45
M  V30 51 1 14 46
M  V30 52 1 15 47
M  V30 53 1 19 48
M  V30 54 1 22 49
M  V30 55 1 23 50
M  V30 56 1 25 51
M  V30 57 1 26 52
M  V30 58 1 26 53
M  V30 59 1 27 54
M  V30 60 1 27 55
M  V30 61 1 28 56
M  V30 62 1 29 57
M  V30 63 1 32 58
M  V30 64 1 33 59
M  V30 65 1 34 60
M  V30 66 1 35 61
M  V30 67 1 36 62
M  V30 68 1 37 63
M  V30 END BOND
M  V30 END CTAB
M  END
>  <Dataset>  (655) 
ChEMBL_Kinases

>  <Ligand_Instance>  (655) 
nan

>  <PDB_ID>  (655) 
nan

>  <Standardized_SMILES>  (655) 
N#Cc1cnc(-c2ccc(CN3CCC(c4nc5cc(F)ccc5[nH]4)CC3)cc2)c(-c2ccccc2)c1

>  <Name>  (655) 
nan

>  <Pocket>  (655) 
nan

>  <ATP_Site>  (655) 
nan

>  <Peripheral>  (655) 
nan

>  <Num_H_Atoms_ProtBoundConf>  (655) 
nan

>  <Num_Resolved_Atoms>  (655) 
nan

>  <Num_Not_Resolved_Atoms>  (655) 
nan

$$$$
CHEMBL3679731
     RDKit          3D

  0  0  0  0  0  0  0  0  0  0999 V3000
M  V30 BEGIN CTAB
M  V30 COUNTS 40 44 0 0 0
M  V30 BEGIN ATOM
M  V30 1 N 3.841088 -4.587577 -2.418622 0
M  V30 2 C 3.129464 -3.781206 -1.460553 0
M  V30 3 C 3.804402 -3.224624 -0.394052 0
M  V30 4 C 3.125299 -2.452161 0.524623 0
M  V30 5 C 1.743311 -2.208628 0.408387 0
M  V30 6 C 0.952377 -1.440650 1.344667 0
M  V30 7 N 0.939145 -1.976053 2.594369 0
M  V30 8 N 0.154241 -1.245457 3.379970 0
M  V30 9 C -0.343497 -0.241714 2.657390 0
M  V30 10 N 0.156050 -0.374153 1.420453 0
M  V30 11 C -0.053252 0.425406 0.283090 0
M  V30 12 C 1.005502 0.312606 -0.577058 0
M  V30 13 C 0.913827 0.999388 -1.770968 0
M  V30 14 C -0.199757 1.751037 -2.046489 0
M  V30 15 C -1.283682 1.884022 -1.188572 0
M  V30 16 C -1.163712 1.183137 0.003590 0
M  V30 17 N -2.305169 1.452042 0.857336 0
M  V30 18 C -2.170711 1.452041 2.304039 0
M  V30 19 C -3.092935 2.351124 2.851929 0
M  V30 20 C -3.082884 2.484054 4.221179 0
M  V30 21 C -2.210060 1.769465 5.017153 0
M  V30 22 C -1.290564 0.875985 4.507563 0
M  V30 23 C -1.301012 0.743315 3.144323 0
M  V30 24 C 1.163562 -2.825600 -0.715274 0
M  V30 25 C 1.780030 -3.606422 -1.668195 0
M  V30 26 H 4.315225 -5.496433 -2.227505 0
M  V30 27 H 4.311561 -5.499742 -2.205918 0
M  V30 28 H 4.867570 -3.375918 -0.250754 0
M  V30 29 H 3.611449 -2.003928 1.363581 0
M  V30 30 H 1.939363 -0.179463 -0.491523 0
M  V30 31 H 1.672410 1.006522 -2.556373 0
M  V30 32 H -0.298942 2.300933 -2.982040 0
M  V30 33 H -2.187190 2.453667 -1.338033 0
M  V30 34 H -3.207955 1.659365 0.428521 0
M  V30 35 H -3.743695 2.872009 2.171711 0
M  V30 36 H -3.789839 3.175162 4.658710 0
M  V30 37 H -2.209384 1.881949 6.101063 0
M  V30 38 H -0.579846 0.279489 5.024596 0
M  V30 39 H 0.093891 -2.638799 -0.807748 0
M  V30 40 H 1.197800 -4.002633 -2.462738 0
M  V30 END ATOM
M  V30 BEGIN BOND
M  V30 1 1 1 2
M  V30 2 2 2 3
M  V30 3 1 3 4
M  V30 4 2 4 5
M  V30 5 1 5 6
M  V30 6 2 6 7
M  V30 7 1 7 8
M  V30 8 2 8 9
M  V30 9 1 9 10
M  V30 10 1 10 11
M  V30 11 2 11 12
M  V30 12 1 12 13
M  V30 13 2 13 14
M  V30 14 1 14 15
M  V30 15 2 15 16
M  V30 16 1 16 17
M  V30 17 1 17 18
M  V30 18 2 18 19
M  V30 19 1 19 20
M  V30 20 2 20 21
M  V30 21 1 21 22
M  V30 22 2 22 23
M  V30 23 1 5 24
M  V30 24 2 24 25
M  V30 25 1 25 2
M  V30 26 1 10 6
M  V30 27 1 16 11
M  V30 28 1 23 18
M  V30 29 1 23 9
M  V30 30 1 1 26
M  V30 31 1 1 27
M  V30 32 1 3 28
M  V30 33 1 4 29
M  V30 34 1 12 30
M  V30 35 1 13 31
M  V30 36 1 14 32
M  V30 37 1 15 33
M  V30 38 1 17 34
M  V30 39 1 19 35
M  V30 40 1 20 36
M  V30 41 1 21 37
M  V30 42 1 22 38
M  V30 43 1 24 39
M  V30 44 1 25 40
M  V30 END BOND
M  V30 END CTAB
M  END
>  <Dataset>  (656) 
ChEMBL_Kinases

>  <Ligand_Instance>  (656) 
nan

>  <PDB_ID>  (656) 
nan

>  <Standardized_SMILES>  (656) 
Nc1ccc(-c2nnc3n2-c2ccccc2Nc2ccccc2-3)cc1

>  <Name>  (656) 
nan

>  <Pocket>  (656) 
nan

>  <ATP_Site>  (656) 
nan

>  <Peripheral>  (656) 
nan

>  <Num_H_Atoms_ProtBoundConf>  (656) 
nan

>  <Num_Resolved_Atoms>  (656) 
nan

>  <Num_Not_Resolved_Atoms>  (656) 
nan

$$$$
CHEMBL3679730
     RDKit          3D

  0  0  0  0  0  0  0  0  0  0999 V3000
M  V30 BEGIN CTAB
M  V30 COUNTS 46 50 0 0 0
M  V30 BEGIN ATOM
M  V30 1 C 4.935270 -3.675647 3.413685 0
M  V30 2 N 3.479830 -3.744454 3.485642 0
M  V30 3 C 2.791841 -4.536056 4.495553 0
M  V30 4 C 2.729747 -2.996562 2.515665 0
M  V30 5 C 3.428431 -2.264432 1.582393 0
M  V30 6 C 2.726663 -1.540118 0.643338 0
M  V30 7 C 1.321048 -1.514997 0.595204 0
M  V30 8 C 0.547747 -0.797412 -0.390595 0
M  V30 9 N 0.787101 -1.233035 -1.659920 0
M  V30 10 N -0.001951 -0.556767 -2.513476 0
M  V30 11 C -0.742710 0.305791 -1.803225 0
M  V30 12 N -0.385985 0.139751 -0.523665 0
M  V30 13 C -0.862981 0.806642 0.622959 0
M  V30 14 C 0.076827 0.782144 1.617764 0
M  V30 15 C -0.274896 1.348276 2.825742 0
M  V30 16 C -1.526435 1.905030 2.980141 0
M  V30 17 C -2.491475 1.946538 1.991097 0
M  V30 18 C -2.108512 1.372429 0.795110 0
M  V30 19 N -3.150571 1.537332 -0.200157 0
M  V30 20 C -2.838394 1.677181 -1.611726 0
M  V30 21 C -3.801275 2.464676 -2.227575 0
M  V30 22 C -3.640027 2.709858 -3.571442 0
M  V30 23 C -2.573270 2.199748 -4.279994 0
M  V30 24 C -1.598940 1.413649 -3.701143 0
M  V30 25 C -1.768892 1.174794 -2.362374 0
M  V30 26 C 0.736229 -2.303850 1.602640 0
M  V30 27 C 1.353541 -3.042628 2.559311 0
M  V30 28 H 5.385070 -4.415140 4.105194 0
M  V30 29 H 5.302831 -2.687721 3.753315 0
M  V30 30 H 5.209659 -3.928116 2.370169 0
M  V30 31 H 2.306129 -5.410929 4.021251 0
M  V30 32 H 3.507282 -4.875668 5.248900 0
M  V30 33 H 2.037608 -3.917191 5.030157 0
M  V30 34 H 4.507012 -2.209558 1.524034 0
M  V30 35 H 3.221786 -0.941030 -0.121222 0
M  V30 36 H 1.078524 0.440868 1.635039 0
M  V30 37 H 0.371702 1.401693 3.715559 0
M  V30 38 H -1.817765 2.355458 3.936302 0
M  V30 39 H -3.484680 2.363595 2.045231 0
M  V30 40 H -4.139943 1.572319 0.109683 0
M  V30 41 H -4.613694 2.832272 -1.617701 0
M  V30 42 H -4.376021 3.320955 -4.077074 0
M  V30 43 H -2.439690 2.393755 -5.356147 0
M  V30 44 H -0.734339 0.968079 -4.154883 0
M  V30 45 H -0.363845 -2.287744 1.569486 0
M  V30 46 H 0.782710 -3.600248 3.269655 0
M  V30 END ATOM
M  V30 BEGIN BOND
M  V30 1 1 1 2
M  V30 2 1 2 3
M  V30 3 1 2 4
M  V30 4 2 4 5
M  V30 5 1 5 6
M  V30 6 2 6 7
M  V30 7 1 7 8
M  V30 8 2 8 9
M  V30 9 1 9 10
M  V30 10 2 10 11
M  V30 11 1 11 12
M  V30 12 1 12 13
M  V30 13 2 13 14
M  V30 14 1 14 15
M  V30 15 2 15 16
M  V30 16 1 16 17
M  V30 17 2 17 18
M  V30 18 1 18 19
M  V30 19 1 19 20
M  V30 20 2 20 21
M  V30 21 1 21 22
M  V30 22 2 22 23
M  V30 23 1 23 24
M  V30 24 2 24 25
M  V30 25 1 7 26
M  V30 26 2 26 27
M  V30 27 1 27 4
M  V30 28 1 12 8
M  V30 29 1 18 13
M  V30 30 1 25 20
M  V30 31 1 25 11
M  V30 32 1 1 28
M  V30 33 1 1 29
M  V30 34 1 1 30
M  V30 35 1 3 31
M  V30 36 1 3 32
M  V30 37 1 3 33
M  V30 38 1 5 34
M  V30 39 1 6 35
M  V30 40 1 14 36
M  V30 41 1 15 37
M  V30 42 1 16 38
M  V30 43 1 17 39
M  V30 44 1 19 40
M  V30 45 1 21 41
M  V30 46 1 22 42
M  V30 47 1 23 43
M  V30 48 1 24 44
M  V30 49 1 26 45
M  V30 50 1 27 46
M  V30 END BOND
M  V30 END CTAB
M  END
>  <Dataset>  (657) 
ChEMBL_Kinases

>  <Ligand_Instance>  (657) 
nan

>  <PDB_ID>  (657) 
nan

>  <Standardized_SMILES>  (657) 
CN(C)c1ccc(-c2nnc3n2-c2ccccc2Nc2ccccc2-3)cc1

>  <Name>  (657) 
nan

>  <Pocket>  (657) 
nan

>  <ATP_Site>  (657) 
nan

>  <Peripheral>  (657) 
nan

>  <Num_H_Atoms_ProtBoundConf>  (657) 
nan

>  <Num_Resolved_Atoms>  (657) 
nan

>  <Num_Not_Resolved_Atoms>  (657) 
nan

$$$$
CHEMBL3679729
     RDKit          3D

  0  0  0  0  0  0  0  0  0  0999 V3000
M  V30 BEGIN CTAB
M  V30 COUNTS 38 42 0 0 0
M  V30 BEGIN ATOM
M  V30 1 C 1.331978 -5.379417 -0.920373 0
M  V30 2 C 2.402000 -4.875439 -0.210396 0
M  V30 3 C 2.240614 -3.721226 0.525812 0
M  V30 4 C 1.013836 -3.030368 0.581433 0
M  V30 5 C 0.784311 -1.836125 1.364292 0
M  V30 6 N 0.959990 -2.027033 2.699166 0
M  V30 7 N 0.681022 -0.892613 3.362639 0
M  V30 8 C 0.329515 0.018022 2.463957 0
M  V30 9 N 0.399389 -0.564322 1.258707 0
M  V30 10 C 0.130154 -0.025163 -0.016723 0
M  V30 11 C 0.822105 -0.705677 -0.978350 0
M  V30 12 C 0.603015 -0.317509 -2.282239 0
M  V30 13 C -0.261696 0.696284 -2.567772 0
M  V30 14 C -0.985216 1.420436 -1.617940 0
M  V30 15 C -0.740494 1.003053 -0.309799 0
M  V30 16 N -1.460166 1.851583 0.621483 0
M  V30 17 C -0.931658 2.133353 1.945371 0
M  V30 18 C -1.353600 3.407171 2.342572 0
M  V30 19 C -0.918404 3.837141 3.578545 0
M  V30 20 C -0.111182 3.063027 4.388069 0
M  V30 21 C 0.314435 1.806031 4.015322 0
M  V30 22 C -0.113476 1.368445 2.787413 0
M  V30 23 C -0.003339 -3.635967 -0.180159 0
M  V30 24 C 0.091828 -4.777515 -0.930230 0
M  V30 25 H 1.448288 -6.294012 -1.507717 0
M  V30 26 H 3.361742 -5.380605 -0.229733 0
M  V30 27 H 3.057913 -3.283538 1.104281 0
M  V30 28 H 1.552613 -1.470021 -0.916263 0
M  V30 29 H 1.083311 -0.770408 -3.157616 0
M  V30 30 H -0.449389 1.015943 -3.599333 0
M  V30 31 H -1.674072 2.217685 -1.755729 0
M  V30 32 H -2.352531 2.270970 0.325108 0
M  V30 33 H -1.978639 3.957847 1.674993 0
M  V30 34 H -1.231266 4.818674 3.907873 0
M  V30 35 H 0.237348 3.400267 5.370098 0
M  V30 36 H 0.940259 1.115927 4.558993 0
M  V30 37 H -0.962307 -3.114829 -0.149587 0
M  V30 38 H -0.783511 -5.121204 -1.463989 0
M  V30 END ATOM
M  V30 BEGIN BOND
M  V30 1 2 1 2
M  V30 2 1 2 3
M  V30 3 2 3 4
M  V30 4 1 4 5
M  V30 5 2 5 6
M  V30 6 1 6 7
M  V30 7 2 7 8
M  V30 8 1 8 9
M  V30 9 1 9 10
M  V30 10 2 10 11
M  V30 11 1 11 12
M  V30 12 2 12 13
M  V30 13 1 13 14
M  V30 14 2 14 15
M  V30 15 1 15 16
M  V30 16 1 16 17
M  V30 17 2 17 18
M  V30 18 1 18 19
M  V30 19 2 19 20
M  V30 20 1 20 21
M  V30 21 2 21 22
M  V30 22 1 4 23
M  V30 23 2 23 24
M  V30 24 1 24 1
M  V30 25 1 9 5
M  V30 26 1 15 10
M  V30 27 1 22 17
M  V30 28 1 22 8
M  V30 29 1 1 25
M  V30 30 1 2 26
M  V30 31 1 3 27
M  V30 32 1 11 28
M  V30 33 1 12 29
M  V30 34 1 13 30
M  V30 35 1 14 31
M  V30 36 1 16 32
M  V30 37 1 18 33
M  V30 38 1 19 34
M  V30 39 1 20 35
M  V30 40 1 21 36
M  V30 41 1 23 37
M  V30 42 1 24 38
M  V30 END BOND
M  V30 END CTAB
M  END
>  <Dataset>  (658) 
ChEMBL_Kinases

>  <Ligand_Instance>  (658) 
nan

>  <PDB_ID>  (658) 
nan

>  <Standardized_SMILES>  (658) 
c1ccc(-c2nnc3n2-c2ccccc2Nc2ccccc2-3)cc1

>  <Name>  (658) 
nan

>  <Pocket>  (658) 
nan

>  <ATP_Site>  (658) 
nan

>  <Peripheral>  (658) 
nan

>  <Num_H_Atoms_ProtBoundConf>  (658) 
nan

>  <Num_Resolved_Atoms>  (658) 
nan

>  <Num_Not_Resolved_Atoms>  (658) 
nan

$$$$
CHEMBL3679728
     RDKit          3D

  0  0  0  0  0  0  0  0  0  0999 V3000
M  V30 BEGIN CTAB
M  V30 COUNTS 38 42 0 0 0
M  V30 BEGIN ATOM
M  V30 1 O 0.867123 -1.303787 7.009932 0
M  V30 2 C 0.873159 -1.336540 5.609642 0
M  V30 3 C -0.314680 -1.377395 4.936018 0
M  V30 4 C -0.209947 -1.406947 3.582613 0
M  V30 5 C 0.964111 -1.400427 2.805373 0
M  V30 6 C 0.956257 -1.468293 1.360742 0
M  V30 7 N 1.564786 -2.584550 0.866890 0
M  V30 8 N 1.466471 -2.591209 -0.473196 0
M  V30 9 C 0.805300 -1.497853 -0.841474 0
M  V30 10 N 0.508197 -0.829824 0.281207 0
M  V30 11 C -0.178045 0.391022 0.431147 0
M  V30 12 C 0.189180 1.009024 1.594025 0
M  V30 13 C -0.438660 2.195135 1.912380 0
M  V30 14 C -1.407740 2.701252 1.036393 0
M  V30 15 N -1.757045 2.066682 -0.126116 0
M  V30 16 C -1.126484 0.890871 -0.430326 0
M  V30 17 N -1.556486 0.398368 -1.717578 0
M  V30 18 C -0.636977 -0.348916 -2.548055 0
M  V30 19 C -0.959996 -0.120406 -3.892974 0
M  V30 20 C -0.175711 -0.742402 -4.841639 0
M  V30 21 C 0.888234 -1.559692 -4.461421 0
M  V30 22 C 1.222574 -1.798289 -3.147077 0
M  V30 23 C 0.441055 -1.179450 -2.216272 0
M  V30 24 C 2.129890 -1.357384 3.593625 0
M  V30 25 C 2.093633 -1.325818 4.970814 0
M  V30 26 H 0.009248 -1.060550 7.499488 0
M  V30 27 H -1.283976 -1.386971 5.398884 0
M  V30 28 H -1.116084 -1.440763 2.956333 0
M  V30 29 H 0.925674 0.773069 2.314390 0
M  V30 30 H -0.263555 2.805386 2.794991 0
M  V30 31 H -1.919236 3.627045 1.258617 0
M  V30 32 H -2.518009 0.601964 -2.037416 0
M  V30 33 H -1.799491 0.522332 -4.113349 0
M  V30 34 H -0.403998 -0.582149 -5.874030 0
M  V30 35 H 1.517792 -2.058202 -5.213198 0
M  V30 36 H 2.009446 -2.401949 -2.761148 0
M  V30 37 H 3.076253 -1.350307 3.046592 0
M  V30 38 H 3.032459 -1.293207 5.517351 0
M  V30 END ATOM
M  V30 BEGIN BOND
M  V30 1 1 1 2
M  V30 2 2 2 3
M  V30 3 1 3 4
M  V30 4 2 4 5
M  V30 5 1 5 6
M  V30 6 2 6 7
M  V30 7 1 7 8
M  V30 8 2 8 9
M  V30 9 1 9 10
M  V30 10 1 10 11
M  V30 11 2 11 12
M  V30 12 1 12 13
M  V30 13 2 13 14
M  V30 14 1 14 15
M  V30 15 2 15 16
M  V30 16 1 16 17
M  V30 17 1 17 18
M  V30 18 2 18 19
M  V30 19 1 19 20
M  V30 20 2 20 21
M  V30 21 1 21 22
M  V30 22 2 22 23
M  V30 23 1 5 24
M  V30 24 2 24 25
M  V30 25 1 25 2
M  V30 26 1 10 6
M  V30 27 1 16 11
M  V30 28 1 23 18
M  V30 29 1 23 9
M  V30 30 1 1 26
M  V30 31 1 3 27
M  V30 32 1 4 28
M  V30 33 1 12 29
M  V30 34 1 13 30
M  V30 35 1 14 31
M  V30 36 1 17 32
M  V30 37 1 19 33
M  V30 38 1 20 34
M  V30 39 1 21 35
M  V30 40 1 22 36
M  V30 41 1 24 37
M  V30 42 1 25 38
M  V30 END BOND
M  V30 END CTAB
M  END
>  <Dataset>  (659) 
ChEMBL_Kinases

>  <Ligand_Instance>  (659) 
nan

>  <PDB_ID>  (659) 
nan

>  <Standardized_SMILES>  (659) 
Oc1ccc(-c2nnc3n2-c2cccnc2Nc2ccccc2-3)cc1

>  <Name>  (659) 
nan

>  <Pocket>  (659) 
nan

>  <ATP_Site>  (659) 
nan

>  <Peripheral>  (659) 
nan

>  <Num_H_Atoms_ProtBoundConf>  (659) 
nan

>  <Num_Resolved_Atoms>  (659) 
nan

>  <Num_Not_Resolved_Atoms>  (659) 
nan

$$$$
CHEMBL3679727
     RDKit          3D

  0  0  0  0  0  0  0  0  0  0999 V3000
M  V30 BEGIN CTAB
M  V30 COUNTS 39 43 0 0 0
M  V30 BEGIN ATOM
M  V30 1 N 3.932505 -0.923912 4.324244 0
M  V30 2 C 3.908977 -0.919112 2.902500 0
M  V30 3 C 5.008726 -0.756432 2.093170 0
M  V30 4 C 4.943659 -0.757978 0.731240 0
M  V30 5 C 3.722762 -0.930021 0.138537 0
M  V30 6 C 2.523675 -1.106388 0.851754 0
M  V30 7 C 1.231220 -1.322190 0.241535 0
M  V30 8 N 1.176635 -2.459207 -0.515080 0
M  V30 9 N -0.055851 -2.619339 -1.005045 0
M  V30 10 C -0.798599 -1.594693 -0.570909 0
M  V30 11 N -0.001236 -0.824637 0.175361 0
M  V30 12 C -0.300735 0.373563 0.853035 0
M  V30 13 C 0.829678 1.125730 1.016549 0
M  V30 14 C 0.706607 2.309460 1.714653 0
M  V30 15 C -0.561378 2.653033 2.199885 0
M  V30 16 N -1.693138 1.906299 2.035014 0
M  V30 17 C -1.534618 0.743467 1.340410 0
M  V30 18 N -2.813362 0.088326 1.170581 0
M  V30 19 C -3.081677 -0.700981 -0.013700 0
M  V30 20 C -4.448198 -0.638019 -0.312871 0
M  V30 21 C -4.874745 -1.326099 -1.429500 0
M  V30 22 C -3.995515 -2.052211 -2.228141 0
M  V30 23 C -2.649032 -2.125512 -1.948463 0
M  V30 24 C -2.224229 -1.442234 -0.838270 0
M  V30 25 C 2.716852 -1.086629 2.243431 0
M  V30 26 H 3.919169 -0.127014 5.016805 0
M  V30 27 H 3.969274 -1.911651 4.696885 0
M  V30 28 H 5.973640 -0.620493 2.569698 0
M  V30 29 H 5.810658 -0.629773 0.100261 0
M  V30 30 H 3.606294 -0.940569 -0.943376 0
M  V30 31 H 1.818509 1.001518 0.663663 0
M  V30 32 H 1.486945 3.034990 1.946260 0
M  V30 33 H -0.713487 3.567877 2.755060 0
M  V30 34 H -3.542953 0.198411 1.891137 0
M  V30 35 H -5.075860 -0.063643 0.342573 0
M  V30 36 H -5.926187 -1.295185 -1.685147 0
M  V30 37 H -4.329514 -2.595013 -3.109150 0
M  V30 38 H -1.882479 -2.653404 -2.491728 0
M  V30 39 H 1.803973 -1.221142 2.823249 0
M  V30 END ATOM
M  V30 BEGIN BOND
M  V30 1 1 1 2
M  V30 2 2 2 3
M  V30 3 1 3 4
M  V30 4 2 4 5
M  V30 5 1 5 6
M  V30 6 1 6 7
M  V30 7 2 7 8
M  V30 8 1 8 9
M  V30 9 2 9 10
M  V30 10 1 10 11
M  V30 11 1 11 12
M  V30 12 2 12 13
M  V30 13 1 13 14
M  V30 14 2 14 15
M  V30 15 1 15 16
M  V30 16 2 16 17
M  V30 17 1 17 18
M  V30 18 1 18 19
M  V30 19 2 19 20
M  V30 20 1 20 21
M  V30 21 2 21 22
M  V30 22 1 22 23
M  V30 23 2 23 24
M  V30 24 2 6 25
M  V30 25 1 25 2
M  V30 26 1 11 7
M  V30 27 1 17 12
M  V30 28 1 24 19
M  V30 29 1 24 10
M  V30 30 1 1 26
M  V30 31 1 1 27
M  V30 32 1 3 28
M  V30 33 1 4 29
M  V30 34 1 5 30
M  V30 35 1 13 31
M  V30 36 1 14 32
M  V30 37 1 15 33
M  V30 38 1 18 34
M  V30 39 1 20 35
M  V30 40 1 21 36
M  V30 41 1 22 37
M  V30 42 1 23 38
M  V30 43 1 25 39
M  V30 END BOND
M  V30 END CTAB
M  END
>  <Dataset>  (660) 
ChEMBL_Kinases

>  <Ligand_Instance>  (660) 
nan

>  <PDB_ID>  (660) 
nan

>  <Standardized_SMILES>  (660) 
Nc1cccc(-c2nnc3n2-c2cccnc2Nc2ccccc2-3)c1

>  <Name>  (660) 
nan

>  <Pocket>  (660) 
nan

>  <ATP_Site>  (660) 
nan

>  <Peripheral>  (660) 
nan

>  <Num_H_Atoms_ProtBoundConf>  (660) 
nan

>  <Num_Resolved_Atoms>  (660) 
nan

>  <Num_Not_Resolved_Atoms>  (660) 
nan

$$$$
CHEMBL3679726
     RDKit          3D

  0  0  0  0  0  0  0  0  0  0999 V3000
M  V30 BEGIN CTAB
M  V30 COUNTS 37 41 0 0 0
M  V30 BEGIN ATOM
M  V30 1 F 2.860893 -2.292246 6.412768 0
M  V30 2 C 2.401717 -2.138413 5.148482 0
M  V30 3 C 3.217088 -2.516289 4.108745 0
M  V30 4 C 2.698204 -2.335372 2.857896 0
M  V30 5 C 1.443570 -1.813849 2.524862 0
M  V30 6 C 1.030845 -1.788523 1.144761 0
M  V30 7 N 1.327144 -2.899438 0.394595 0
M  V30 8 N 0.852812 -2.739108 -0.839963 0
M  V30 9 C 0.247306 -1.545359 -0.932395 0
M  V30 10 N 0.386297 -1.005518 0.284907 0
M  V30 11 C -0.000169 0.302929 0.657452 0
M  V30 12 C 0.873620 0.803324 1.625738 0
M  V30 13 C 0.612458 2.058005 2.134271 0
M  V30 14 C -0.505622 2.750426 1.648473 0
M  V30 15 N -1.353662 2.250195 0.693254 0
M  V30 16 C -1.082661 1.003931 0.196268 0
M  V30 17 N -1.988723 0.666190 -0.878260 0
M  V30 18 C -1.494009 -0.095326 -2.011603 0
M  V30 19 C -2.193368 0.277322 -3.166658 0
M  V30 20 C -1.822876 -0.341976 -4.341471 0
M  V30 21 C -0.813834 -1.281832 -4.377845 0
M  V30 22 C -0.106160 -1.672681 -3.261959 0
M  V30 23 C -0.477379 -1.056689 -2.099061 0
M  V30 24 C 0.707949 -1.468664 3.671335 0
M  V30 25 F -0.555944 -1.000154 3.536649 0
M  V30 26 C 1.145896 -1.613065 4.964672 0
M  V30 27 H 4.207061 -2.931858 4.234469 0
M  V30 28 H 3.330504 -2.629433 2.023714 0
M  V30 29 H 1.769387 0.363568 2.004233 0
M  V30 30 H 1.188199 2.573313 2.880615 0
M  V30 31 H -0.740728 3.720932 2.018342 0
M  V30 32 H -2.965773 0.988512 -0.840909 0
M  V30 33 H -2.970342 1.017456 -3.049717 0
M  V30 34 H -2.343683 -0.071825 -5.233157 0
M  V30 35 H -0.517230 -1.775361 -5.312798 0
M  V30 36 H 0.692566 -2.390536 -3.174370 0
M  V30 37 H 0.536296 -1.329012 5.796637 0
M  V30 END ATOM
M  V30 BEGIN BOND
M  V30 1 1 1 2
M  V30 2 2 2 3
M  V30 3 1 3 4
M  V30 4 2 4 5
M  V30 5 1 5 6
M  V30 6 2 6 7
M  V30 7 1 7 8
M  V30 8 2 8 9
M  V30 9 1 9 10
M  V30 10 1 10 11
M  V30 11 2 11 12
M  V30 12 1 12 13
M  V30 13 2 13 14
M  V30 14 1 14 15
M  V30 15 2 15 16
M  V30 16 1 16 17
M  V30 17 1 17 18
M  V30 18 2 18 19
M  V30 19 1 19 20
M  V30 20 2 20 21
M  V30 21 1 21 22
M  V30 22 2 22 23
M  V30 23 1 5 24
M  V30 24 1 24 25
M  V30 25 2 24 26
M  V30 26 1 26 2
M  V30 27 1 10 6
M  V30 28 1 16 11
M  V30 29 1 23 18
M  V30 30 1 23 9
M  V30 31 1 3 27
M  V30 32 1 4 28
M  V30 33 1 12 29
M  V30 34 1 13 30
M  V30 35 1 14 31
M  V30 36 1 17 32
M  V30 37 1 19 33
M  V30 38 1 20 34
M  V30 39 1 21 35
M  V30 40 1 22 36
M  V30 41 1 26 37
M  V30 END BOND
M  V30 END CTAB
M  END
>  <Dataset>  (661) 
ChEMBL_Kinases

>  <Ligand_Instance>  (661) 
nan

>  <PDB_ID>  (661) 
nan

>  <Standardized_SMILES>  (661) 
Fc1ccc(-c2nnc3n2-c2cccnc2Nc2ccccc2-3)c(F)c1

>  <Name>  (661) 
nan

>  <Pocket>  (661) 
nan

>  <ATP_Site>  (661) 
nan

>  <Peripheral>  (661) 
nan

>  <Num_H_Atoms_ProtBoundConf>  (661) 
nan

>  <Num_Resolved_Atoms>  (661) 
nan

>  <Num_Not_Resolved_Atoms>  (661) 
nan

$$$$
CHEMBL3679722
     RDKit          3D

  0  0  0  0  0  0  0  0  0  0999 V3000
M  V30 BEGIN CTAB
M  V30 COUNTS 37 41 0 0 0
M  V30 BEGIN ATOM
M  V30 1 Cl 2.507835 -2.368361 6.890837 0
M  V30 2 C 2.083049 -2.220906 5.178757 0
M  V30 3 C 3.024196 -2.449639 4.198465 0
M  V30 4 C 2.666322 -2.327836 2.874708 0
M  V30 5 C 1.369000 -1.976521 2.472653 0
M  V30 6 C 0.922663 -1.866082 1.103301 0
M  V30 7 N 1.017541 -3.041989 0.421228 0
M  V30 8 N 0.535925 -2.861155 -0.819460 0
M  V30 9 C 0.133069 -1.585359 -0.943057 0
M  V30 10 N 0.383508 -1.007735 0.236855 0
M  V30 11 C 0.154205 0.323744 0.633470 0
M  V30 12 C 1.002341 0.680401 1.645190 0
M  V30 13 C 0.860899 1.944508 2.180919 0
M  V30 14 C -0.132246 2.784674 1.661903 0
M  V30 15 N -0.969535 2.409720 0.644779 0
M  V30 16 C -0.817988 1.153598 0.122865 0
M  V30 17 N -1.720826 0.954813 -0.977409 0
M  V30 18 C -1.341969 0.095023 -2.078708 0
M  V30 19 C -1.953940 0.546266 -3.255090 0
M  V30 20 C -1.685244 -0.156492 -4.411922 0
M  V30 21 C -0.839106 -1.270710 -4.410917 0
M  V30 22 C -0.231495 -1.726931 -3.266459 0
M  V30 23 C -0.507335 -1.020292 -2.124923 0
M  V30 24 C 0.499055 -1.768735 3.555101 0
M  V30 25 C 0.780001 -1.870593 4.897525 0
M  V30 26 Cl -0.469739 -1.564313 6.074034 0
M  V30 27 H 4.040291 -2.723441 4.448162 0
M  V30 28 H 3.385338 -2.501873 2.090483 0
M  V30 29 H 1.814778 0.174098 2.092978 0
M  V30 30 H 1.447838 2.377449 2.982782 0
M  V30 31 H -0.272333 3.778654 2.058542 0
M  V30 32 H -2.634953 1.440269 -0.988804 0
M  V30 33 H -2.595251 1.407686 -3.185469 0
M  V30 34 H -2.140353 0.166152 -5.329926 0
M  V30 35 H -0.629066 -1.822731 -5.326700 0
M  V30 36 H 0.431010 -2.568602 -3.159366 0
M  V30 37 H -0.519839 -1.493181 3.255643 0
M  V30 END ATOM
M  V30 BEGIN BOND
M  V30 1 1 1 2
M  V30 2 2 2 3
M  V30 3 1 3 4
M  V30 4 2 4 5
M  V30 5 1 5 6
M  V30 6 2 6 7
M  V30 7 1 7 8
M  V30 8 2 8 9
M  V30 9 1 9 10
M  V30 10 1 10 11
M  V30 11 2 11 12
M  V30 12 1 12 13
M  V30 13 2 13 14
M  V30 14 1 14 15
M  V30 15 2 15 16
M  V30 16 1 16 17
M  V30 17 1 17 18
M  V30 18 2 18 19
M  V30 19 1 19 20
M  V30 20 2 20 21
M  V30 21 1 21 22
M  V30 22 2 22 23
M  V30 23 1 5 24
M  V30 24 2 24 25
M  V30 25 1 25 26
M  V30 26 1 25 2
M  V30 27 1 10 6
M  V30 28 1 16 11
M  V30 29 1 23 18
M  V30 30 1 23 9
M  V30 31 1 3 27
M  V30 32 1 4 28
M  V30 33 1 12 29
M  V30 34 1 13 30
M  V30 35 1 14 31
M  V30 36 1 17 32
M  V30 37 1 19 33
M  V30 38 1 20 34
M  V30 39 1 21 35
M  V30 40 1 22 36
M  V30 41 1 24 37
M  V30 END BOND
M  V30 END CTAB
M  END
>  <Dataset>  (662) 
ChEMBL_Kinases

>  <Ligand_Instance>  (662) 
nan

>  <PDB_ID>  (662) 
nan

>  <Standardized_SMILES>  (662) 
Clc1ccc(-c2nnc3n2-c2cccnc2Nc2ccccc2-3)cc1Cl

>  <Name>  (662) 
nan

>  <Pocket>  (662) 
nan

>  <ATP_Site>  (662) 
nan

>  <Peripheral>  (662) 
nan

>  <Num_H_Atoms_ProtBoundConf>  (662) 
nan

>  <Num_Resolved_Atoms>  (662) 
nan

>  <Num_Not_Resolved_Atoms>  (662) 
nan

$$$$
CHEMBL3679721
     RDKit          3D

  0  0  0  0  0  0  0  0  0  0999 V3000
M  V30 BEGIN CTAB
M  V30 COUNTS 45 49 0 0 0
M  V30 BEGIN ATOM
M  V30 1 C 3.611002 -5.400944 1.223798 0
M  V30 2 N 2.834110 -5.028324 0.054622 0
M  V30 3 C 3.001281 -5.766839 -1.201408 0
M  V30 4 C 1.914609 -3.948222 0.134006 0
M  V30 5 C 1.802208 -3.292535 1.342324 0
M  V30 6 C 0.896297 -2.254056 1.361063 0
M  V30 7 C 0.099206 -1.816622 0.287253 0
M  V30 8 C -0.846187 -0.732294 0.429803 0
M  V30 9 N -2.146071 -1.105597 0.228200 0
M  V30 10 N -2.956791 -0.072147 0.423952 0
M  V30 11 C -2.204383 0.975269 0.751879 0
M  V30 12 N -0.929598 0.560484 0.747748 0
M  V30 13 C 0.248498 1.284962 1.021329 0
M  V30 14 C 1.317080 0.709833 0.391032 0
M  V30 15 C 2.554763 1.278880 0.610869 0
M  V30 16 C 2.623174 2.394123 1.453248 0
M  V30 17 N 1.558450 2.976819 2.083479 0
M  V30 18 C 0.351750 2.386459 1.841740 0
M  V30 19 N -0.701593 3.131214 2.494845 0
M  V30 20 C -2.026753 3.203162 1.911032 0
M  V30 21 C -2.616019 4.428525 2.246547 0
M  V30 22 C -3.881391 4.667067 1.753571 0
M  V30 23 C -4.549080 3.741992 0.960547 0
M  V30 24 C -3.984656 2.531039 0.621083 0
M  V30 25 C -2.725303 2.288914 1.110023 0
M  V30 26 C 0.290663 -2.551964 -0.897516 0
M  V30 27 C 1.181227 -3.601160 -0.980823 0
M  V30 28 H 4.391199 -4.661206 1.478449 0
M  V30 29 H 2.913310 -5.564802 2.079629 0
M  V30 30 H 4.078349 -6.408575 1.029764 0
M  V30 31 H 3.470830 -5.170488 -1.983912 0
M  V30 32 H 1.972051 -6.028407 -1.571501 0
M  V30 33 H 3.548681 -6.695758 -1.031287 0
M  V30 34 H 2.347649 -3.517638 2.246941 0
M  V30 35 H 0.771556 -1.705023 2.293189 0
M  V30 36 H 1.387024 -0.091085 -0.295346 0
M  V30 37 H 3.521347 0.959962 0.197794 0
M  V30 38 H 3.565445 2.876737 1.661069 0
M  V30 39 H -0.503514 3.631631 3.380509 0
M  V30 40 H -2.046789 5.104177 2.868292 0
M  V30 41 H -4.340922 5.602758 2.005077 0
M  V30 42 H -5.542881 3.927046 0.571650 0
M  V30 43 H -4.403345 1.742619 0.018790 0
M  V30 44 H -0.311333 -2.226665 -1.719984 0
M  V30 45 H 1.293680 -4.136328 -1.913224 0
M  V30 END ATOM
M  V30 BEGIN BOND
M  V30 1 1 1 2
M  V30 2 1 2 3
M  V30 3 1 2 4
M  V30 4 2 4 5
M  V30 5 1 5 6
M  V30 6 2 6 7
M  V30 7 1 7 8
M  V30 8 2 8 9
M  V30 9 1 9 10
M  V30 10 2 10 11
M  V30 11 1 11 12
M  V30 12 1 12 13
M  V30 13 2 13 14
M  V30 14 1 14 15
M  V30 15 2 15 16
M  V30 16 1 16 17
M  V30 17 2 17 18
M  V30 18 1 18 19
M  V30 19 1 19 20
M  V30 20 2 20 21
M  V30 21 1 21 22
M  V30 22 2 22 23
M  V30 23 1 23 24
M  V30 24 2 24 25
M  V30 25 1 7 26
M  V30 26 2 26 27
M  V30 27 1 27 4
M  V30 28 1 12 8
M  V30 29 1 18 13
M  V30 30 1 25 20
M  V30 31 1 25 11
M  V30 32 1 1 28
M  V30 33 1 1 29
M  V30 34 1 1 30
M  V30 35 1 3 31
M  V30 36 1 3 32
M  V30 37 1 3 33
M  V30 38 1 5 34
M  V30 39 1 6 35
M  V30 40 1 14 36
M  V30 41 1 15 37
M  V30 42 1 16 38
M  V30 43 1 19 39
M  V30 44 1 21 40
M  V30 45 1 22 41
M  V30 46 1 23 42
M  V30 47 1 24 43
M  V30 48 1 26 44
M  V30 49 1 27 45
M  V30 END BOND
M  V30 END CTAB
M  END
>  <Dataset>  (663) 
ChEMBL_Kinases

>  <Ligand_Instance>  (663) 
nan

>  <PDB_ID>  (663) 
nan

>  <Standardized_SMILES>  (663) 
CN(C)c1ccc(-c2nnc3n2-c2cccnc2Nc2ccccc2-3)cc1

>  <Name>  (663) 
nan

>  <Pocket>  (663) 
nan

>  <ATP_Site>  (663) 
nan

>  <Peripheral>  (663) 
nan

>  <Num_H_Atoms_ProtBoundConf>  (663) 
nan

>  <Num_Resolved_Atoms>  (663) 
nan

>  <Num_Not_Resolved_Atoms>  (663) 
nan

$$$$
CHEMBL3679720
     RDKit          3D

  0  0  0  0  0  0  0  0  0  0999 V3000
M  V30 BEGIN CTAB
M  V30 COUNTS 39 43 0 0 0
M  V30 BEGIN ATOM
M  V30 1 N 1.883354 -0.626231 6.801495 0
M  V30 2 C 1.643580 -0.831037 5.398482 0
M  V30 3 C 2.693523 -1.130600 4.558178 0
M  V30 4 C 2.446063 -1.323689 3.216658 0
M  V30 5 C 1.155830 -1.227111 2.663712 0
M  V30 6 C 0.842759 -1.453461 1.271374 0
M  V30 7 N 1.135078 -2.716521 0.838803 0
M  V30 8 N 0.774215 -2.860725 -0.431630 0
M  V30 9 C 0.249410 -1.709855 -0.837423 0
M  V30 10 N 0.300897 -0.866736 0.203273 0
M  V30 11 C -0.122732 0.475104 0.287987 0
M  V30 12 C 0.576126 1.133924 1.261454 0
M  V30 13 C 0.234307 2.448613 1.501584 0
M  V30 14 C -0.794535 3.011412 0.735430 0
M  V30 15 N -1.482801 2.351421 -0.234104 0
M  V30 16 C -1.126623 1.058163 -0.450959 0
M  V30 17 N -1.880577 0.503294 -1.553102 0
M  V30 18 C -1.291755 -0.499935 -2.417937 0
M  V30 19 C -1.828965 -0.373297 -3.703618 0
M  V30 20 C -1.364132 -1.243979 -4.662378 0
M  V30 21 C -0.412050 -2.198144 -4.369383 0
M  V30 22 C 0.134428 -2.347209 -3.113873 0
M  V30 23 C -0.326694 -1.482531 -2.157748 0
M  V30 24 C 0.170270 -0.917597 3.618021 0
M  V30 25 C 0.342301 -0.713424 4.959038 0
M  V30 26 H 2.220162 -1.546934 7.159376 0
M  V30 27 H 2.225586 -1.559892 7.167635 0
M  V30 28 H 3.685172 -1.209046 4.958412 0
M  V30 29 H 3.236217 -1.561356 2.513025 0
M  V30 30 H 1.392362 0.842393 1.866913 0
M  V30 31 H 0.677428 3.117794 2.231433 0
M  V30 32 H -1.108911 4.026661 0.874298 0
M  V30 33 H -2.843726 0.840169 -1.732055 0
M  V30 34 H -2.573366 0.394020 -3.864297 0
M  V30 35 H -1.760525 -1.170553 -5.665725 0
M  V30 36 H -0.033596 -2.898142 -5.127776 0
M  V30 37 H 0.877503 -3.053294 -2.777738 0
M  V30 38 H -0.836635 -0.840842 3.194801 0
M  V30 39 H -0.521985 -0.481630 5.564479 0
M  V30 END ATOM
M  V30 BEGIN BOND
M  V30 1 1 1 2
M  V30 2 2 2 3
M  V30 3 1 3 4
M  V30 4 2 4 5
M  V30 5 1 5 6
M  V30 6 2 6 7
M  V30 7 1 7 8
M  V30 8 2 8 9
M  V30 9 1 9 10
M  V30 10 1 10 11
M  V30 11 2 11 12
M  V30 12 1 12 13
M  V30 13 2 13 14
M  V30 14 1 14 15
M  V30 15 2 15 16
M  V30 16 1 16 17
M  V30 17 1 17 18
M  V30 18 2 18 19
M  V30 19 1 19 20
M  V30 20 2 20 21
M  V30 21 1 21 22
M  V30 22 2 22 23
M  V30 23 1 5 24
M  V30 24 2 24 25
M  V30 25 1 25 2
M  V30 26 1 10 6
M  V30 27 1 16 11
M  V30 28 1 23 18
M  V30 29 1 23 9
M  V30 30 1 1 26
M  V30 31 1 1 27
M  V30 32 1 3 28
M  V30 33 1 4 29
M  V30 34 1 12 30
M  V30 35 1 13 31
M  V30 36 1 14 32
M  V30 37 1 17 33
M  V30 38 1 19 34
M  V30 39 1 20 35
M  V30 40 1 21 36
M  V30 41 1 22 37
M  V30 42 1 24 38
M  V30 43 1 25 39
M  V30 END BOND
M  V30 END CTAB
M  END
>  <Dataset>  (664) 
ChEMBL_Kinases

>  <Ligand_Instance>  (664) 
nan

>  <PDB_ID>  (664) 
nan

>  <Standardized_SMILES>  (664) 
Nc1ccc(-c2nnc3n2-c2cccnc2Nc2ccccc2-3)cc1

>  <Name>  (664) 
nan

>  <Pocket>  (664) 
nan

>  <ATP_Site>  (664) 
nan

>  <Peripheral>  (664) 
nan

>  <Num_H_Atoms_ProtBoundConf>  (664) 
nan

>  <Num_Resolved_Atoms>  (664) 
nan

>  <Num_Not_Resolved_Atoms>  (664) 
nan

$$$$
CHEMBL3679718
     RDKit          3D

  0  0  0  0  0  0  0  0  0  0999 V3000
M  V30 BEGIN CTAB
M  V30 COUNTS 37 41 0 0 0
M  V30 BEGIN ATOM
M  V30 1 Cl 2.864527 -4.204887 5.903211 0
M  V30 2 C 2.193707 -3.557561 4.413764 0
M  V30 3 C 0.998584 -2.870980 4.451138 0
M  V30 4 C 0.574595 -2.415909 3.245032 0
M  V30 5 C 1.197761 -2.559756 1.990866 0
M  V30 6 C 0.625442 -2.053223 0.763626 0
M  V30 7 N 0.335562 -3.034387 -0.137323 0
M  V30 8 N -0.235732 -2.492563 -1.226016 0
M  V30 9 C -0.313256 -1.187197 -1.031514 0
M  V30 10 N 0.214031 -0.931074 0.174997 0
M  V30 11 C 0.371139 0.299787 0.843397 0
M  V30 12 C 1.406715 0.227859 1.734851 0
M  V30 13 C 1.648460 1.345494 2.506840 0
M  V30 14 C 0.816692 2.454876 2.309885 0
M  V30 15 N -0.214151 2.552129 1.429526 0
M  V30 16 C -0.415129 1.421475 0.687541 0
M  V30 17 N -1.479033 1.649886 -0.269079 0
M  V30 18 C -1.459815 0.993496 -1.563527 0
M  V30 19 C -2.077007 1.818082 -2.512428 0
M  V30 20 C -2.131220 1.354669 -3.808906 0
M  V30 21 C -1.595438 0.117995 -4.163947 0
M  V30 22 C -0.984620 -0.709163 -3.246426 0
M  V30 23 C -0.933055 -0.245386 -1.958315 0
M  V30 24 C 2.408294 -3.274747 2.065527 0
M  V30 25 C 2.905672 -3.768939 3.251897 0
M  V30 26 H 0.434317 -2.696961 5.334430 0
M  V30 27 H -0.367313 -1.858998 3.183391 0
M  V30 28 H 2.118969 -0.527979 1.932203 0
M  V30 29 H 2.419387 1.467317 3.260190 0
M  V30 30 H 0.967260 3.359901 2.897396 0
M  V30 31 H -2.244097 2.290505 -0.040344 0
M  V30 32 H -2.473306 2.762807 -2.169454 0
M  V30 33 H -2.603682 1.976375 -4.557164 0
M  V30 34 H -1.637451 -0.248365 -5.187515 0
M  V30 35 H -0.544554 -1.670620 -3.412126 0
M  V30 36 H 2.953622 -3.428834 1.130392 0
M  V30 37 H 3.851776 -4.311546 3.216954 0
M  V30 END ATOM
M  V30 BEGIN BOND
M  V30 1 1 1 2
M  V30 2 2 2 3
M  V30 3 1 3 4
M  V30 4 2 4 5
M  V30 5 1 5 6
M  V30 6 2 6 7
M  V30 7 1 7 8
M  V30 8 2 8 9
M  V30 9 1 9 10
M  V30 10 1 10 11
M  V30 11 2 11 12
M  V30 12 1 12 13
M  V30 13 2 13 14
M  V30 14 1 14 15
M  V30 15 2 15 16
M  V30 16 1 16 17
M  V30 17 1 17 18
M  V30 18 2 18 19
M  V30 19 1 19 20
M  V30 20 2 20 21
M  V30 21 1 21 22
M  V30 22 2 22 23
M  V30 23 1 5 24
M  V30 24 2 24 25
M  V30 25 1 25 2
M  V30 26 1 10 6
M  V30 27 1 16 11
M  V30 28 1 23 18
M  V30 29 1 23 9
M  V30 30 1 3 26
M  V30 31 1 4 27
M  V30 32 1 12 28
M  V30 33 1 13 29
M  V30 34 1 14 30
M  V30 35 1 17 31
M  V30 36 1 19 32
M  V30 37 1 20 33
M  V30 38 1 21 34
M  V30 39 1 22 35
M  V30 40 1 24 36
M  V30 41 1 25 37
M  V30 END BOND
M  V30 END CTAB
M  END
>  <Dataset>  (665) 
ChEMBL_Kinases

>  <Ligand_Instance>  (665) 
nan

>  <PDB_ID>  (665) 
nan

>  <Standardized_SMILES>  (665) 
Clc1ccc(-c2nnc3n2-c2cccnc2Nc2ccccc2-3)cc1

>  <Name>  (665) 
nan

>  <Pocket>  (665) 
nan

>  <ATP_Site>  (665) 
nan

>  <Peripheral>  (665) 
nan

>  <Num_H_Atoms_ProtBoundConf>  (665) 
nan

>  <Num_Resolved_Atoms>  (665) 
nan

>  <Num_Not_Resolved_Atoms>  (665) 
nan

$$$$
CHEMBL3679716
     RDKit          3D

  0  0  0  0  0  0  0  0  0  0999 V3000
M  V30 BEGIN CTAB
M  V30 COUNTS 49 53 0 0 0
M  V30 BEGIN ATOM
M  V30 1 C 2.630609 -3.917956 4.145463 0
M  V30 2 C 3.384974 -3.247156 3.046311 0
M  V30 3 C 4.369627 -2.281142 3.662707 0
M  V30 4 C 4.110768 -4.315901 2.256287 0
M  V30 5 C 2.478542 -2.571347 2.084372 0
M  V30 6 C 3.014854 -1.901362 1.005302 0
M  V30 7 C 2.168912 -1.275059 0.114347 0
M  V30 8 C 0.769906 -1.289835 0.259438 0
M  V30 9 C -0.157457 -0.678846 -0.662807 0
M  V30 10 N -0.095409 -1.201424 -1.922934 0
M  V30 11 N -1.018002 -0.616986 -2.698022 0
M  V30 12 C -1.670178 0.269518 -1.959958 0
M  V30 13 N -1.136052 0.223502 -0.730788 0
M  V30 14 C -1.471654 0.972496 0.415495 0
M  V30 15 C -0.400055 1.057096 1.259727 0
M  V30 16 C -0.586744 1.715349 2.456591 0
M  V30 17 C -1.850780 2.253566 2.729078 0
M  V30 18 N -2.914313 2.164577 1.871712 0
M  V30 19 C -2.705010 1.510473 0.697059 0
M  V30 20 N -3.888871 1.564301 -0.130296 0
M  V30 21 C -3.770547 1.597439 -1.574376 0
M  V30 22 C -4.851555 2.316704 -2.101066 0
M  V30 23 C -4.893008 2.464543 -3.471933 0
M  V30 24 C -3.903924 1.922527 -4.294635 0
M  V30 25 C -2.835940 1.212216 -3.786472 0
M  V30 26 C -2.797528 1.066847 -2.429795 0
M  V30 27 C 0.333668 -1.999823 1.391337 0
M  V30 28 C 1.121819 -2.645891 2.317777 0
M  V30 29 H 2.112501 -3.198200 4.822296 0
M  V30 30 H 3.359999 -4.448178 4.795906 0
M  V30 31 H 1.870365 -4.639020 3.805608 0
M  V30 32 H 4.070346 -1.221767 3.528527 0
M  V30 33 H 4.463119 -2.457752 4.751795 0
M  V30 34 H 5.386273 -2.405077 3.235756 0
M  V30 35 H 4.381834 -5.135977 2.955368 0
M  V30 36 H 3.371686 -4.778795 1.554762 0
M  V30 37 H 5.018612 -3.952380 1.752903 0
M  V30 38 H 4.089215 -1.857529 0.843865 0
M  V30 39 H 2.541375 -0.730856 -0.756659 0
M  V30 40 H 0.604569 0.743928 1.160577 0
M  V30 41 H 0.138141 1.879131 3.244457 0
M  V30 42 H -2.052738 2.774446 3.646826 0
M  V30 43 H -4.820214 1.595025 0.320486 0
M  V30 44 H -5.585046 2.708454 -1.410149 0
M  V30 45 H -5.714889 3.014652 -3.908329 0
M  V30 46 H -3.936827 2.039412 -5.371203 0
M  V30 47 H -2.031494 0.758712 -4.321703 0
M  V30 48 H -0.750893 -2.010823 1.503043 0
M  V30 49 H 0.640312 -3.153284 3.141545 0
M  V30 END ATOM
M  V30 BEGIN BOND
M  V30 1 1 1 2
M  V30 2 1 2 3
M  V30 3 1 2 4
M  V30 4 1 2 5
M  V30 5 2 5 6
M  V30 6 1 6 7
M  V30 7 2 7 8
M  V30 8 1 8 9
M  V30 9 2 9 10
M  V30 10 1 10 11
M  V30 11 2 11 12
M  V30 12 1 12 13
M  V30 13 1 13 14
M  V30 14 2 14 15
M  V30 15 1 15 16
M  V30 16 2 16 17
M  V30 17 1 17 18
M  V30 18 2 18 19
M  V30 19 1 19 20
M  V30 20 1 20 21
M  V30 21 2 21 22
M  V30 22 1 22 23
M  V30 23 2 23 24
M  V30 24 1 24 25
M  V30 25 2 25 26
M  V30 26 1 8 27
M  V30 27 2 27 28
M  V30 28 1 28 5
M  V30 29 1 13 9
M  V30 30 1 19 14
M  V30 31 1 26 21
M  V30 32 1 26 12
M  V30 33 1 1 29
M  V30 34 1 1 30
M  V30 35 1 1 31
M  V30 36 1 3 32
M  V30 37 1 3 33
M  V30 38 1 3 34
M  V30 39 1 4 35
M  V30 40 1 4 36
M  V30 41 1 4 37
M  V30 42 1 6 38
M  V30 43 1 7 39
M  V30 44 1 15 40
M  V30 45 1 16 41
M  V30 46 1 17 42
M  V30 47 1 20 43
M  V30 48 1 22 44
M  V30 49 1 23 45
M  V30 50 1 24 46
M  V30 51 1 25 47
M  V30 52 1 27 48
M  V30 53 1 28 49
M  V30 END BOND
M  V30 END CTAB
M  END
>  <Dataset>  (666) 
ChEMBL_Kinases

>  <Ligand_Instance>  (666) 
nan

>  <PDB_ID>  (666) 
nan

>  <Standardized_SMILES>  (666) 
CC(C)(C)c1ccc(-c2nnc3n2-c2cccnc2Nc2ccccc2-3)cc1

>  <Name>  (666) 
nan

>  <Pocket>  (666) 
nan

>  <ATP_Site>  (666) 
nan

>  <Peripheral>  (666) 
nan

>  <Num_H_Atoms_ProtBoundConf>  (666) 
nan

>  <Num_Resolved_Atoms>  (666) 
nan

>  <Num_Not_Resolved_Atoms>  (666) 
nan

$$$$
CHEMBL3679714
     RDKit          3D

  0  0  0  0  0  0  0  0  0  0999 V3000
M  V30 BEGIN CTAB
M  V30 COUNTS 38 42 0 0 0
M  V30 BEGIN ATOM
M  V30 1 N 0.786439 -1.140436 7.010113 0
M  V30 2 C 0.545414 -1.212185 5.610018 0
M  V30 3 C 1.134584 -2.234113 4.896063 0
M  V30 4 C 0.847005 -2.226080 3.548341 0
M  V30 5 C 0.034581 -1.297328 2.872376 0
M  V30 6 C -0.194456 -1.448935 1.452929 0
M  V30 7 N -0.789988 -2.631679 1.122412 0
M  V30 8 N -1.012632 -2.673268 -0.193687 0
M  V30 9 C -0.568106 -1.529974 -0.721107 0
M  V30 10 N -0.073698 -0.804236 0.290932 0
M  V30 11 C 0.518748 0.474612 0.264780 0
M  V30 12 C 1.366573 0.628746 1.326025 0
M  V30 13 C 1.981143 1.855444 1.466010 0
M  V30 14 C 1.700550 2.848855 0.520847 0
M  V30 15 N 0.852380 2.680300 -0.539999 0
M  V30 16 C 0.262205 1.467566 -0.655049 0
M  V30 17 N -0.540893 1.408728 -1.855224 0
M  V30 18 C -0.698201 0.161466 -2.575434 0
M  V30 19 C -0.864534 0.429921 -3.939385 0
M  V30 20 C -1.012367 -0.655996 -4.776494 0
M  V30 21 C -0.997820 -1.949608 -4.296974 0
M  V30 22 C -0.836581 -2.244453 -2.959891 0
M  V30 23 C -0.690029 -1.165261 -2.126260 0
M  V30 24 C -0.502695 -0.309623 3.716596 0
M  V30 25 N -0.242810 -0.288950 5.031049 0
M  V30 26 H 1.467739 -1.772046 7.483734 0
M  V30 27 H 1.468040 -1.772774 7.482064 0
M  V30 28 H 1.772960 -3.000360 5.301115 0
M  V30 29 H 1.283944 -3.009260 2.931509 0
M  V30 30 H 1.696565 -0.044334 2.071231 0
M  V30 31 H 2.684668 2.154647 2.253106 0
M  V30 32 H 2.153382 3.824039 0.587324 0
M  V30 33 H -0.993584 2.269910 -2.210641 0
M  V30 34 H -0.868955 1.465397 -4.248381 0
M  V30 35 H -1.140189 -0.462854 -5.821360 0
M  V30 36 H -1.114011 -2.815566 -4.955115 0
M  V30 37 H -0.810339 -3.210060 -2.478769 0
M  V30 38 H -1.130313 0.408614 3.197375 0
M  V30 END ATOM
M  V30 BEGIN BOND
M  V30 1 1 1 2
M  V30 2 2 2 3
M  V30 3 1 3 4
M  V30 4 2 4 5
M  V30 5 1 5 6
M  V30 6 2 6 7
M  V30 7 1 7 8
M  V30 8 2 8 9
M  V30 9 1 9 10
M  V30 10 1 10 11
M  V30 11 2 11 12
M  V30 12 1 12 13
M  V30 13 2 13 14
M  V30 14 1 14 15
M  V30 15 2 15 16
M  V30 16 1 16 17
M  V30 17 1 17 18
M  V30 18 2 18 19
M  V30 19 1 19 20
M  V30 20 2 20 21
M  V30 21 1 21 22
M  V30 22 2 22 23
M  V30 23 1 5 24
M  V30 24 2 24 25
M  V30 25 1 25 2
M  V30 26 1 10 6
M  V30 27 1 16 11
M  V30 28 1 23 18
M  V30 29 1 23 9
M  V30 30 1 1 26
M  V30 31 1 1 27
M  V30 32 1 3 28
M  V30 33 1 4 29
M  V30 34 1 12 30
M  V30 35 1 13 31
M  V30 36 1 14 32
M  V30 37 1 17 33
M  V30 38 1 19 34
M  V30 39 1 20 35
M  V30 40 1 21 36
M  V30 41 1 22 37
M  V30 42 1 24 38
M  V30 END BOND
M  V30 END CTAB
M  END
>  <Dataset>  (667) 
ChEMBL_Kinases

>  <Ligand_Instance>  (667) 
nan

>  <PDB_ID>  (667) 
nan

>  <Standardized_SMILES>  (667) 
Nc1ccc(-c2nnc3n2-c2cccnc2Nc2ccccc2-3)cn1

>  <Name>  (667) 
nan

>  <Pocket>  (667) 
nan

>  <ATP_Site>  (667) 
nan

>  <Peripheral>  (667) 
nan

>  <Num_H_Atoms_ProtBoundConf>  (667) 
nan

>  <Num_Resolved_Atoms>  (667) 
nan

>  <Num_Not_Resolved_Atoms>  (667) 
nan

$$$$
CHEMBL3679713
     RDKit          3D

  0  0  0  0  0  0  0  0  0  0999 V3000
M  V30 BEGIN CTAB
M  V30 COUNTS 35 39 0 0 0
M  V30 BEGIN ATOM
M  V30 1 C 3.226831 -3.840574 2.876654 0
M  V30 2 C 3.774343 -3.436536 1.687147 0
M  V30 3 N 2.866518 -2.658869 1.133243 0
M  V30 4 C 1.718507 -2.429594 1.754504 0
M  V30 5 C 0.475913 -1.700612 1.819494 0
M  V30 6 N -0.536308 -1.886095 2.727312 0
M  V30 7 N -1.557269 -1.115025 2.467336 0
M  V30 8 C -1.313540 -0.370228 1.394261 0
M  V30 9 N -0.079232 -0.758362 1.060329 0
M  V30 10 C 0.671512 -0.075815 0.035050 0
M  V30 11 C 2.015310 0.025964 0.432381 0
M  V30 12 C 2.874121 0.623582 -0.504453 0
M  V30 13 C 2.384518 1.078880 -1.739876 0
M  V30 14 N 1.067673 0.969120 -2.088858 0
M  V30 15 C 0.241708 0.392923 -1.182914 0
M  V30 16 N -1.140955 0.502027 -1.614307 0
M  V30 17 C -2.179510 0.825419 -0.636141 0
M  V30 18 C -3.184076 1.599104 -1.220066 0
M  V30 19 C -4.206465 2.001146 -0.390661 0
M  V30 20 C -4.245620 1.664016 0.942817 0
M  V30 21 C -3.272144 0.899089 1.558941 0
M  V30 22 C -2.268302 0.507009 0.729954 0
M  V30 23 C 2.002022 -3.225611 2.889166 0
M  V30 24 H 3.742313 -4.491393 3.556818 0
M  V30 25 H 4.730742 -3.668853 1.247083 0
M  V30 26 H 2.983741 -2.240839 0.194712 0
M  V30 27 H 2.394412 -0.248882 1.393018 0
M  V30 28 H 3.930385 0.744565 -0.291664 0
M  V30 29 H 3.050987 1.537629 -2.461859 0
M  V30 30 H -1.390148 0.385003 -2.604040 0
M  V30 31 H -3.058645 1.802583 -2.272220 0
M  V30 32 H -4.975723 2.593880 -0.838313 0
M  V30 33 H -5.068128 1.994729 1.587372 0
M  V30 34 H -3.211723 0.582841 2.583513 0
M  V30 35 H 1.430393 -3.453675 3.803560 0
M  V30 END ATOM
M  V30 BEGIN BOND
M  V30 1 2 1 2
M  V30 2 1 2 3
M  V30 3 1 3 4
M  V30 4 1 4 5
M  V30 5 2 5 6
M  V30 6 1 6 7
M  V30 7 2 7 8
M  V30 8 1 8 9
M  V30 9 1 9 10
M  V30 10 2 10 11
M  V30 11 1 11 12
M  V30 12 2 12 13
M  V30 13 1 13 14
M  V30 14 2 14 15
M  V30 15 1 15 16
M  V30 16 1 16 17
M  V30 17 2 17 18
M  V30 18 1 18 19
M  V30 19 2 19 20
M  V30 20 1 20 21
M  V30 21 2 21 22
M  V30 22 2 4 23
M  V30 23 1 23 1
M  V30 24 1 9 5
M  V30 25 1 15 10
M  V30 26 1 22 17
M  V30 27 1 22 8
M  V30 28 1 1 24
M  V30 29 1 2 25
M  V30 30 1 3 26
M  V30 31 1 11 27
M  V30 32 1 12 28
M  V30 33 1 13 29
M  V30 34 1 16 30
M  V30 35 1 18 31
M  V30 36 1 19 32
M  V30 37 1 20 33
M  V30 38 1 21 34
M  V30 39 1 23 35
M  V30 END BOND
M  V30 END CTAB
M  END
>  <Dataset>  (668) 
ChEMBL_Kinases

>  <Ligand_Instance>  (668) 
nan

>  <PDB_ID>  (668) 
nan

>  <Standardized_SMILES>  (668) 
c1c[nH]c(-c2nnc3n2-c2cccnc2Nc2ccccc2-3)c1

>  <Name>  (668) 
nan

>  <Pocket>  (668) 
nan

>  <ATP_Site>  (668) 
nan

>  <Peripheral>  (668) 
nan

>  <Num_H_Atoms_ProtBoundConf>  (668) 
nan

>  <Num_Resolved_Atoms>  (668) 
nan

>  <Num_Not_Resolved_Atoms>  (668) 
nan

$$$$
CHEMBL3679585
     RDKit          3D

  0  0  0  0  0  0  0  0  0  0999 V3000
M  V30 BEGIN CTAB
M  V30 COUNTS 55 58 0 0 0
M  V30 BEGIN ATOM
M  V30 1 C 3.452263 -0.329231 -1.215148 0
M  V30 2 O 2.571934 -0.543299 -0.134885 0
M  V30 3 C 1.371411 -1.228801 -0.262968 0
M  V30 4 O 1.284915 -1.574701 -1.479251 0
M  V30 5 C 0.391313 -1.509319 0.768695 0
M  V30 6 C 0.514950 -1.123439 2.066260 0
M  V30 7 C 1.735205 -0.354742 2.493631 0
M  V30 8 N 1.566989 1.009482 2.015738 0
M  V30 9 C 2.547126 2.013718 2.248107 0
M  V30 10 O 3.577611 1.690652 2.885192 0
M  V30 11 C 2.428737 3.393738 1.792388 0
M  V30 12 C 3.456451 4.252090 2.089835 0
M  V30 13 C 3.409172 5.581955 1.686866 0
M  V30 14 C 2.314550 6.045692 0.978307 0
M  V30 15 F 2.190176 7.341060 0.544416 0
M  V30 16 C 1.261497 5.200278 0.663790 0
M  V30 17 C 1.376621 3.901056 1.093805 0
M  V30 18 C -0.480446 -1.442145 2.974479 0
M  V30 19 O -0.386204 -1.094292 4.182388 0
M  V30 20 C -1.588433 -2.148733 2.552181 0
M  V30 21 C -2.620252 -2.502056 3.400583 0
M  V30 22 C -3.725258 -3.209577 2.968555 0
M  V30 23 C -3.803466 -3.576470 1.647541 0
M  V30 24 O -4.936732 -4.289808 1.254719 0
M  V30 25 C -4.994654 -4.658718 -0.118624 0
M  V30 26 C -2.784006 -3.226625 0.812301 0
M  V30 27 C -1.672419 -2.522093 1.217592 0
M  V30 28 N -0.673942 -2.187923 0.365649 0
M  V30 29 C -0.872261 -2.626807 -0.981101 0
M  V30 30 C -0.505153 -3.828353 -1.487987 0
M  V30 31 C -0.731078 -4.183000 -2.805698 0
M  V30 32 C -1.361751 -3.289918 -3.679272 0
M  V30 33 C -1.744404 -2.048695 -3.167676 0
M  V30 34 C -1.502286 -1.728233 -1.844282 0
M  V30 35 H 3.293479 -1.023201 -2.054419 0
M  V30 36 H 3.412557 0.686308 -1.639366 0
M  V30 37 H 4.496616 -0.471372 -0.826397 0
M  V30 38 H 1.694444 -0.260467 3.618176 0
M  V30 39 H 2.666639 -0.828225 2.181113 0
M  V30 40 H 0.722729 1.315012 1.481855 0
M  V30 41 H 4.370050 4.005748 2.641294 0
M  V30 42 H 4.169505 6.302115 1.882640 0
M  V30 43 H 0.373188 5.524539 0.103738 0
M  V30 44 H 0.553629 3.244879 0.846843 0
M  V30 45 H -2.519379 -2.196236 4.422690 0
M  V30 46 H -4.500569 -3.460727 3.665001 0
M  V30 47 H -4.851796 -3.751518 -0.754330 0
M  V30 48 H -4.142865 -5.325981 -0.364480 0
M  V30 49 H -5.936378 -5.146112 -0.385071 0
M  V30 50 H -2.854921 -3.520709 -0.228989 0
M  V30 51 H -0.019037 -4.512670 -0.808213 0
M  V30 52 H -0.435840 -5.137701 -3.195810 0
M  V30 53 H -1.574543 -3.494548 -4.727122 0
M  V30 54 H -2.230955 -1.341243 -3.814035 0
M  V30 55 H -1.809642 -0.751569 -1.463994 0
M  V30 END ATOM
M  V30 BEGIN BOND
M  V30 1 1 1 2
M  V30 2 1 2 3
M  V30 3 2 3 4
M  V30 4 1 3 5
M  V30 5 2 5 6
M  V30 6 1 6 7
M  V30 7 1 7 8
M  V30 8 1 8 9
M  V30 9 2 9 10
M  V30 10 1 9 11
M  V30 11 2 11 12
M  V30 12 1 12 13
M  V30 13 2 13 14
M  V30 14 1 14 15
M  V30 15 1 14 16
M  V30 16 2 16 17
M  V30 17 1 6 18
M  V30 18 2 18 19
M  V30 19 1 18 20
M  V30 20 2 20 21
M  V30 21 1 21 22
M  V30 22 2 22 23
M  V30 23 1 23 24
M  V30 24 1 24 25
M  V30 25 1 23 26
M  V30 26 2 26 27
M  V30 27 1 27 28
M  V30 28 1 28 29
M  V30 29 2 29 30
M  V30 30 1 30 31
M  V30 31 2 31 32
M  V30 32 1 32 33
M  V30 33 2 33 34
M  V30 34 1 28 5
M  V30 35 1 34 29
M  V30 36 1 17 11
M  V30 37 1 27 20
M  V30 38 1 1 35
M  V30 39 1 1 36
M  V30 40 1 1 37
M  V30 41 1 7 38
M  V30 42 1 7 39
M  V30 43 1 8 40
M  V30 44 1 12 41
M  V30 45 1 13 42
M  V30 46 1 16 43
M  V30 47 1 17 44
M  V30 48 1 21 45
M  V30 49 1 22 46
M  V30 50 1 25 47
M  V30 51 1 25 48
M  V30 52 1 25 49
M  V30 53 1 26 50
M  V30 54 1 30 51
M  V30 55 1 31 52
M  V30 56 1 32 53
M  V30 57 1 33 54
M  V30 58 1 34 55
M  V30 END BOND
M  V30 END CTAB
M  END
>  <Dataset>  (669) 
ChEMBL_Kinases

>  <Ligand_Instance>  (669) 
nan

>  <PDB_ID>  (669) 
nan

>  <Standardized_SMILES>  (669) 
COC(=O)c1c(CNC(=O)c2ccc(F)cc2)c(=O)c2ccc(OC)cc2n1-c1ccccc1

>  <Name>  (669) 
nan

>  <Pocket>  (669) 
nan

>  <ATP_Site>  (669) 
nan

>  <Peripheral>  (669) 
nan

>  <Num_H_Atoms_ProtBoundConf>  (669) 
nan

>  <Num_Resolved_Atoms>  (669) 
nan

>  <Num_Not_Resolved_Atoms>  (669) 
nan

$$$$
CHEMBL3679586
     RDKit          3D

  0  0  0  0  0  0  0  0  0  0999 V3000
M  V30 BEGIN CTAB
M  V30 COUNTS 63 66 0 0 0
M  V30 BEGIN ATOM
M  V30 1 C -0.470838 0.044517 4.733080 0
M  V30 2 O -0.397708 -0.954744 3.758030 0
M  V30 3 C 0.586755 -1.012074 2.781376 0
M  V30 4 O 1.154990 0.028402 3.190943 0
M  V30 5 C 0.719201 -2.021043 1.742503 0
M  V30 6 C 1.751105 -1.933801 0.851485 0
M  V30 7 C 2.772495 -0.857370 0.857479 0
M  V30 8 N 2.284255 0.405112 0.340380 0
M  V30 9 C 1.764986 0.743195 -0.910393 0
M  V30 10 O 1.699634 -0.207126 -1.762437 0
M  V30 11 C 1.315416 2.072667 -1.267807 0
M  V30 12 C 1.314339 3.188732 -0.470228 0
M  V30 13 C 0.852915 4.414889 -0.935089 0
M  V30 14 C 0.373697 4.589935 -2.207116 0
M  V30 15 N -0.092783 5.838676 -2.668184 0
M  V30 16 C -0.123750 7.050525 -1.883203 0
M  V30 17 C -0.588702 5.953402 -4.036484 0
M  V30 18 C 0.364244 3.498672 -3.018342 0
M  V30 19 C 0.820692 2.281239 -2.560758 0
M  V30 20 C 1.761781 -2.971884 -0.088086 0
M  V30 21 O 2.647872 -3.022923 -0.963922 0
M  V30 22 C 0.827420 -3.986292 -0.119659 0
M  V30 23 C 0.884055 -4.982612 -1.066317 0
M  V30 24 C -0.073715 -5.987535 -1.068747 0
M  V30 25 C -1.064404 -5.954190 -0.108945 0
M  V30 26 O -2.080980 -6.908146 -0.010521 0
M  V30 27 C -2.200741 -8.012209 -0.888111 0
M  V30 28 C -1.114067 -4.949374 0.838893 0
M  V30 29 C -0.168636 -3.938073 0.858421 0
M  V30 30 N -0.230296 -2.967229 1.786214 0
M  V30 31 C -1.285654 -3.008298 2.738933 0
M  V30 32 C -1.279905 -3.709771 3.925865 0
M  V30 33 C -2.374797 -3.674576 4.781085 0
M  V30 34 C -3.484710 -2.925415 4.435479 0
M  V30 35 C -3.519639 -2.209907 3.249241 0
M  V30 36 C -2.411600 -2.252054 2.394724 0
M  V30 37 H 0.386747 -0.015653 5.444265 0
M  V30 38 H -1.426988 -0.059589 5.277610 0
M  V30 39 H -0.505715 1.035205 4.205007 0
M  V30 40 H 3.583071 -1.159468 0.126528 0
M  V30 41 H 3.292061 -0.755712 1.811377 0
M  V30 42 H 2.324381 1.220824 1.018521 0
M  V30 43 H 1.681924 3.077670 0.522608 0
M  V30 44 H 0.899738 5.219757 -0.220989 0
M  V30 45 H -0.981585 7.713329 -2.195167 0
M  V30 46 H 0.781144 7.692581 -2.085293 0
M  V30 47 H -0.189194 6.832249 -0.812944 0
M  V30 48 H 0.261806 5.796170 -4.727970 0
M  V30 49 H -1.389801 5.179232 -4.159592 0
M  V30 50 H -1.088523 6.921442 -4.234994 0
M  V30 51 H -0.004730 3.575370 -4.038756 0
M  V30 52 H 0.791864 1.434755 -3.252325 0
M  V30 53 H 1.664666 -4.985860 -1.801248 0
M  V30 54 H -0.069247 -6.786403 -1.789742 0
M  V30 55 H -1.846210 -7.778416 -1.915303 0
M  V30 56 H -3.273506 -8.293791 -0.894603 0
M  V30 57 H -1.609875 -8.857500 -0.479784 0
M  V30 58 H -1.897848 -4.919241 1.601105 0
M  V30 59 H -0.384846 -4.280430 4.147415 0
M  V30 60 H -2.336746 -4.244679 5.719185 0
M  V30 61 H -4.353870 -2.887031 5.097766 0
M  V30 62 H -4.393080 -1.605990 2.953970 0
M  V30 63 H -2.504030 -1.664705 1.473864 0
M  V30 END ATOM
M  V30 BEGIN BOND
M  V30 1 1 1 2
M  V30 2 1 2 3
M  V30 3 2 3 4
M  V30 4 1 3 5
M  V30 5 2 5 6
M  V30 6 1 6 7
M  V30 7 1 7 8
M  V30 8 1 8 9
M  V30 9 2 9 10
M  V30 10 1 9 11
M  V30 11 2 11 12
M  V30 12 1 12 13
M  V30 13 2 13 14
M  V30 14 1 14 15
M  V30 15 1 15 16
M  V30 16 1 15 17
M  V30 17 1 14 18
M  V30 18 2 18 19
M  V30 19 1 6 20
M  V30 20 2 20 21
M  V30 21 1 20 22
M  V30 22 2 22 23
M  V30 23 1 23 24
M  V30 24 2 24 25
M  V30 25 1 25 26
M  V30 26 1 26 27
M  V30 27 1 25 28
M  V30 28 2 28 29
M  V30 29 1 29 30
M  V30 30 1 30 31
M  V30 31 2 31 32
M  V30 32 1 32 33
M  V30 33 2 33 34
M  V30 34 1 34 35
M  V30 35 2 35 36
M  V30 36 1 30 5
M  V30 37 1 36 31
M  V30 38 1 19 11
M  V30 39 1 29 22
M  V30 40 1 1 37
M  V30 41 1 1 38
M  V30 42 1 1 39
M  V30 43 1 7 40
M  V30 44 1 7 41
M  V30 45 1 8 42
M  V30 46 1 12 43
M  V30 47 1 13 44
M  V30 48 1 16 45
M  V30 49 1 16 46
M  V30 50 1 16 47
M  V30 51 1 17 48
M  V30 52 1 17 49
M  V30 53 1 17 50
M  V30 54 1 18 51
M  V30 55 1 19 52
M  V30 56 1 23 53
M  V30 57 1 24 54
M  V30 58 1 27 55
M  V30 59 1 27 56
M  V30 60 1 27 57
M  V30 61 1 28 58
M  V30 62 1 32 59
M  V30 63 1 33 60
M  V30 64 1 34 61
M  V30 65 1 35 62
M  V30 66 1 36 63
M  V30 END BOND
M  V30 END CTAB
M  END
>  <Dataset>  (670) 
ChEMBL_Kinases

>  <Ligand_Instance>  (670) 
nan

>  <PDB_ID>  (670) 
nan

>  <Standardized_SMILES>  (670) 
COC(=O)c1c(CNC(=O)c2ccc(N(C)C)cc2)c(=O)c2ccc(OC)cc2n1-c1ccccc1

>  <Name>  (670) 
nan

>  <Pocket>  (670) 
nan

>  <ATP_Site>  (670) 
nan

>  <Peripheral>  (670) 
nan

>  <Num_H_Atoms_ProtBoundConf>  (670) 
nan

>  <Num_Resolved_Atoms>  (670) 
nan

>  <Num_Not_Resolved_Atoms>  (670) 
nan

$$$$
CHEMBL3679587
     RDKit          3D

  0  0  0  0  0  0  0  0  0  0999 V3000
M  V30 BEGIN CTAB
M  V30 COUNTS 55 58 0 0 0
M  V30 BEGIN ATOM
M  V30 1 C 3.913690 -1.438275 -1.315059 0
M  V30 2 O 3.029262 -1.323821 -0.254546 0
M  V30 3 C 1.696900 -1.681697 -0.226250 0
M  V30 4 O 1.600475 -2.105697 -1.400550 0
M  V30 5 C 0.612489 -1.659153 0.728599 0
M  V30 6 C 0.864155 -1.153412 1.959422 0
M  V30 7 C 2.072418 -0.474366 2.487076 0
M  V30 8 N 1.991812 0.926963 2.187082 0
M  V30 9 C 1.881451 1.930794 1.209715 0
M  V30 10 O 1.820607 1.449147 0.067893 0
M  V30 11 C 1.839442 3.348177 1.437062 0
M  V30 12 C 1.902969 4.016119 2.652060 0
M  V30 13 C 1.852219 5.387994 2.740739 0
M  V30 14 C 1.735650 6.165779 1.625537 0
M  V30 15 Cl 1.669673 7.915281 1.724055 0
M  V30 16 C 1.670185 5.509674 0.391679 0
M  V30 17 C 1.722805 4.139729 0.330896 0
M  V30 18 C -0.240320 -1.253785 2.819734 0
M  V30 19 O -0.154688 -0.821511 4.013705 0
M  V30 20 C -1.455000 -1.798843 2.474985 0
M  V30 21 C -2.495188 -1.861893 3.377525 0
M  V30 22 C -3.664041 -2.432688 2.906500 0
M  V30 23 C -3.844618 -2.929574 1.619706 0
M  V30 24 O -5.060209 -3.481463 1.253284 0
M  V30 25 C -5.154875 -3.967918 -0.091127 0
M  V30 26 C -2.759001 -2.827902 0.784503 0
M  V30 27 C -1.557701 -2.269553 1.184635 0
M  V30 28 N -0.526297 -2.195449 0.326741 0
M  V30 29 C -0.726282 -2.701212 -0.964898 0
M  V30 30 C -0.588646 -4.028419 -1.290451 0
M  V30 31 C -0.796745 -4.498846 -2.588945 0
M  V30 32 C -1.147710 -3.532581 -3.506896 0
M  V30 33 C -1.302735 -2.184971 -3.246303 0
M  V30 34 C -1.085024 -1.768137 -1.942193 0
M  V30 35 H 3.512610 -1.783982 -2.270542 0
M  V30 36 H 4.467325 -0.483855 -1.532252 0
M  V30 37 H 4.738546 -2.138703 -0.991983 0
M  V30 38 H 2.092596 -0.648234 3.571562 0
M  V30 39 H 3.004415 -0.900176 2.020158 0
M  V30 40 H 2.035826 1.458479 3.125920 0
M  V30 41 H 1.995039 3.420970 3.538607 0
M  V30 42 H 1.908712 5.829435 3.731693 0
M  V30 43 H 1.577539 6.082410 -0.519099 0
M  V30 44 H 1.664643 3.704509 -0.678944 0
M  V30 45 H -2.394093 -1.490739 4.374946 0
M  V30 46 H -4.510541 -2.506962 3.574001 0
M  V30 47 H -4.834240 -3.209026 -0.829152 0
M  V30 48 H -4.472816 -4.846322 -0.230063 0
M  V30 49 H -6.174867 -4.294495 -0.339296 0
M  V30 50 H -2.867507 -3.205694 -0.223161 0
M  V30 51 H -0.311376 -4.737459 -0.523016 0
M  V30 52 H -0.697552 -5.530104 -2.878447 0
M  V30 53 H -1.323900 -3.842099 -4.540113 0
M  V30 54 H -1.584932 -1.498533 -4.048786 0
M  V30 55 H -1.197469 -0.718851 -1.700702 0
M  V30 END ATOM
M  V30 BEGIN BOND
M  V30 1 1 1 2
M  V30 2 1 2 3
M  V30 3 2 3 4
M  V30 4 1 3 5
M  V30 5 2 5 6
M  V30 6 1 6 7
M  V30 7 1 7 8
M  V30 8 1 8 9
M  V30 9 2 9 10
M  V30 10 1 9 11
M  V30 11 2 11 12
M  V30 12 1 12 13
M  V30 13 2 13 14
M  V30 14 1 14 15
M  V30 15 1 14 16
M  V30 16 2 16 17
M  V30 17 1 6 18
M  V30 18 2 18 19
M  V30 19 1 18 20
M  V30 20 2 20 21
M  V30 21 1 21 22
M  V30 22 2 22 23
M  V30 23 1 23 24
M  V30 24 1 24 25
M  V30 25 1 23 26
M  V30 26 2 26 27
M  V30 27 1 27 28
M  V30 28 1 28 29
M  V30 29 2 29 30
M  V30 30 1 30 31
M  V30 31 2 31 32
M  V30 32 1 32 33
M  V30 33 2 33 34
M  V30 34 1 28 5
M  V30 35 1 34 29
M  V30 36 1 17 11
M  V30 37 1 27 20
M  V30 38 1 1 35
M  V30 39 1 1 36
M  V30 40 1 1 37
M  V30 41 1 7 38
M  V30 42 1 7 39
M  V30 43 1 8 40
M  V30 44 1 12 41
M  V30 45 1 13 42
M  V30 46 1 16 43
M  V30 47 1 17 44
M  V30 48 1 21 45
M  V30 49 1 22 46
M  V30 50 1 25 47
M  V30 51 1 25 48
M  V30 52 1 25 49
M  V30 53 1 26 50
M  V30 54 1 30 51
M  V30 55 1 31 52
M  V30 56 1 32 53
M  V30 57 1 33 54
M  V30 58 1 34 55
M  V30 END BOND
M  V30 END CTAB
M  END
>  <Dataset>  (671) 
ChEMBL_Kinases

>  <Ligand_Instance>  (671) 
nan

>  <PDB_ID>  (671) 
nan

>  <Standardized_SMILES>  (671) 
COC(=O)c1c(CNC(=O)c2ccc(Cl)cc2)c(=O)c2ccc(OC)cc2n1-c1ccccc1

>  <Name>  (671) 
nan

>  <Pocket>  (671) 
nan

>  <ATP_Site>  (671) 
nan

>  <Peripheral>  (671) 
nan

>  <Num_H_Atoms_ProtBoundConf>  (671) 
nan

>  <Num_Resolved_Atoms>  (671) 
nan

>  <Num_Not_Resolved_Atoms>  (671) 
nan

$$$$
CHEMBL3679588
     RDKit          3D

  0  0  0  0  0  0  0  0  0  0999 V3000
M  V30 BEGIN CTAB
M  V30 COUNTS 63 67 0 0 0
M  V30 BEGIN ATOM
M  V30 1 C 1.101328 3.037642 3.192654 0
M  V30 2 O 1.310461 1.733920 2.813373 0
M  V30 3 C 0.846527 0.563141 3.304941 0
M  V30 4 O 0.177642 1.165928 4.176441 0
M  V30 5 C 1.057211 -0.826767 2.951731 0
M  V30 6 C 1.832870 -1.240699 1.908964 0
M  V30 7 C 2.391344 -0.294026 0.908081 0
M  V30 8 N 1.343508 -0.209977 -0.129626 0
M  V30 9 C 1.641551 0.806832 -1.115847 0
M  V30 10 O 2.690112 1.314820 -0.724064 0
M  V30 11 C 0.707969 0.953645 -2.217601 0
M  V30 12 C 0.745443 2.031986 -3.080053 0
M  V30 13 C -0.114084 2.088399 -4.155570 0
M  V30 14 C -1.017536 1.091007 -4.396668 0
M  V30 15 N -1.971679 0.862595 -5.418444 0
M  V30 16 C -1.638060 0.445075 -6.788980 0
M  V30 17 C -2.268700 -0.901974 -7.087316 0
M  V30 18 O -2.890434 -1.358326 -5.936579 0
M  V30 19 C -3.985362 -0.486343 -5.697490 0
M  V30 20 C -3.439491 0.916916 -5.496619 0
M  V30 21 N -1.014553 0.071038 -3.528378 0
M  V30 22 C -0.218538 -0.062136 -2.464333 0
M  V30 23 C 2.038074 -2.581200 1.732001 0
M  V30 24 O 2.751456 -2.954152 0.774178 0
M  V30 25 C 1.469758 -3.528811 2.593748 0
M  V30 26 C 1.689781 -4.851484 2.389301 0
M  V30 27 C 1.141784 -5.801216 3.216725 0
M  V30 28 C 0.380096 -5.279521 4.227567 0
M  V30 29 F -0.199637 -6.171503 5.097081 0
M  V30 30 C 0.120087 -3.965308 4.486733 0
M  V30 31 C 0.682428 -3.002991 3.637948 0
M  V30 32 N 0.482273 -1.677162 3.811398 0
M  V30 33 C -0.318712 -1.326381 4.946596 0
M  V30 34 C 0.479550 -1.596542 6.060290 0
M  V30 35 C 0.024941 -1.373972 7.374529 0
M  V30 36 C -1.281852 -0.864803 7.494263 0
M  V30 37 C -2.036844 -0.611351 6.376576 0
M  V30 38 C -1.585244 -0.829657 5.102998 0
M  V30 39 H 0.080232 3.279203 3.525713 0
M  V30 40 H 1.464568 3.767902 2.417500 0
M  V30 41 H 1.817557 3.233438 4.056218 0
M  V30 42 H 3.306694 -0.761643 0.465415 0
M  V30 43 H 2.569349 0.685049 1.319792 0
M  V30 44 H 0.500870 -0.835015 -0.104875 0
M  V30 45 H 1.436920 2.813824 -2.895183 0
M  V30 46 H -0.149983 2.888505 -4.862486 0
M  V30 47 H -0.537802 0.305702 -6.801629 0
M  V30 48 H -1.853155 1.216339 -7.532266 0
M  V30 49 H -1.493508 -1.628705 -7.390592 0
M  V30 50 H -3.028148 -0.810145 -7.890932 0
M  V30 51 H -4.528561 -0.883765 -4.837654 0
M  V30 52 H -4.641055 -0.559033 -6.583824 0
M  V30 53 H -3.882141 1.279214 -4.521349 0
M  V30 54 H -3.816740 1.551573 -6.295990 0
M  V30 55 H -0.338906 -0.962634 -1.859087 0
M  V30 56 H 2.309165 -5.173137 1.560803 0
M  V30 57 H 1.271461 -6.862710 3.119591 0
M  V30 58 H -0.508024 -3.667808 5.320766 0
M  V30 59 H 1.507133 -1.986811 6.139892 0
M  V30 60 H 0.564851 -1.555062 8.292608 0
M  V30 61 H -1.717134 -0.656344 8.479644 0
M  V30 62 H -3.064242 -0.215480 6.415091 0
M  V30 63 H -2.050334 -0.681667 4.142575 0
M  V30 END ATOM
M  V30 BEGIN BOND
M  V30 1 1 1 2
M  V30 2 1 2 3
M  V30 3 2 3 4
M  V30 4 1 3 5
M  V30 5 2 5 6
M  V30 6 1 6 7
M  V30 7 1 7 8
M  V30 8 1 8 9
M  V30 9 2 9 10
M  V30 10 1 9 11
M  V30 11 2 11 12
M  V30 12 1 12 13
M  V30 13 2 13 14
M  V30 14 1 14 15
M  V30 15 1 15 16
M  V30 16 1 16 17
M  V30 17 1 17 18
M  V30 18 1 18 19
M  V30 19 1 19 20
M  V30 20 1 14 21
M  V30 21 2 21 22
M  V30 22 1 6 23
M  V30 23 2 23 24
M  V30 24 1 23 25
M  V30 25 2 25 26
M  V30 26 1 26 27
M  V30 27 2 27 28
M  V30 28 1 28 29
M  V30 29 1 28 30
M  V30 30 2 30 31
M  V30 31 1 31 32
M  V30 32 1 32 33
M  V30 33 2 33 34
M  V30 34 1 34 35
M  V30 35 2 35 36
M  V30 36 1 36 37
M  V30 37 2 37 38
M  V30 38 1 32 5
M  V30 39 1 38 33
M  V30 40 1 22 11
M  V30 41 1 31 25
M  V30 42 1 20 15
M  V30 43 1 1 39
M  V30 44 1 1 40
M  V30 45 1 1 41
M  V30 46 1 7 42
M  V30 47 1 7 43
M  V30 48 1 8 44
M  V30 49 1 12 45
M  V30 50 1 13 46
M  V30 51 1 16 47
M  V30 52 1 16 48
M  V30 53 1 17 49
M  V30 54 1 17 50
M  V30 55 1 19 51
M  V30 56 1 19 52
M  V30 57 1 20 53
M  V30 58 1 20 54
M  V30 59 1 22 55
M  V30 60 1 26 56
M  V30 61 1 27 57
M  V30 62 1 30 58
M  V30 63 1 34 59
M  V30 64 1 35 60
M  V30 65 1 36 61
M  V30 66 1 37 62
M  V30 67 1 38 63
M  V30 END BOND
M  V30 END CTAB
M  END
>  <Dataset>  (672) 
ChEMBL_Kinases

>  <Ligand_Instance>  (672) 
nan

>  <PDB_ID>  (672) 
nan

>  <Standardized_SMILES>  (672) 
COC(=O)c1c(CNC(=O)c2ccc(N3CCOCC3)nc2)c(=O)c2ccc(F)cc2n1-c1ccccc1

>  <Name>  (672) 
nan

>  <Pocket>  (672) 
nan

>  <ATP_Site>  (672) 
nan

>  <Peripheral>  (672) 
nan

>  <Num_H_Atoms_ProtBoundConf>  (672) 
nan

>  <Num_Resolved_Atoms>  (672) 
nan

>  <Num_Not_Resolved_Atoms>  (672) 
nan

$$$$
CHEMBL3679589
     RDKit          3D

  0  0  0  0  0  0  0  0  0  0999 V3000
M  V30 BEGIN CTAB
M  V30 COUNTS 50 53 0 0 0
M  V30 BEGIN ATOM
M  V30 1 C 3.645923 -2.654519 -0.041773 0
M  V30 2 O 2.654770 -2.134619 0.815147 0
M  V30 3 C 1.341582 -2.159934 0.403695 0
M  V30 4 O 1.509772 -2.696424 -0.715278 0
M  V30 5 C 0.058019 -1.774943 0.895742 0
M  V30 6 C 0.005194 -1.179652 2.121111 0
M  V30 7 C 1.087638 -0.719846 3.022476 0
M  V30 8 N 1.466945 0.616055 2.652117 0
M  V30 9 C 1.961375 1.481098 1.658595 0
M  V30 10 O 2.193917 0.863593 0.589814 0
M  V30 11 C 2.194736 2.907048 1.786721 0
M  V30 12 C 2.004650 3.701665 2.893162 0
M  V30 13 C 2.251443 5.055165 2.922861 0
M  V30 14 C 2.718966 5.610993 1.744102 0
M  V30 15 Cl 3.051200 7.328269 1.717213 0
M  V30 16 N 2.911224 4.843659 0.647467 0
M  V30 17 C 2.660824 3.526214 0.652159 0
M  V30 18 C -1.283887 -0.888914 2.589450 0
M  V30 19 O -1.488785 -0.335663 3.717095 0
M  V30 20 C -2.427136 -1.176531 1.871968 0
M  V30 21 C -3.684798 -0.878390 2.357540 0
M  V30 22 C -4.781669 -1.194710 1.583880 0
M  V30 23 C -4.618711 -1.794939 0.354413 0
M  V30 24 F -5.727965 -2.088106 -0.372557 0
M  V30 25 C -3.352260 -2.084204 -0.111797 0
M  V30 26 C -2.224726 -1.776625 0.647000 0
M  V30 27 N -1.007958 -2.071943 0.164148 0
M  V30 28 C -0.868945 -2.690825 -1.107666 0
M  V30 29 C -0.757419 -1.774181 -2.148067 0
M  V30 30 C -0.617268 -2.255524 -3.451199 0
M  V30 31 C -0.593731 -3.626442 -3.666290 0
M  V30 32 C -0.704850 -4.527291 -2.629347 0
M  V30 33 C -0.844933 -4.049754 -1.326948 0
M  V30 34 H 4.612211 -2.796166 0.487740 0
M  V30 35 H 3.384589 -3.670067 -0.422923 0
M  V30 36 H 3.850896 -1.976049 -0.902460 0
M  V30 37 H 1.958331 -1.423320 2.897445 0
M  V30 38 H 0.762437 -0.752377 4.070921 0
M  V30 39 H 1.307834 1.259523 3.504350 0
M  V30 40 H 1.643919 3.223936 3.773979 0
M  V30 41 H 2.077440 5.612650 3.832075 0
M  V30 42 H 2.842763 2.996151 -0.265553 0
M  V30 43 H -3.808980 -0.409594 3.318166 0
M  V30 44 H -5.788517 -0.964092 1.956160 0
M  V30 45 H -3.264010 -2.558580 -1.087567 0
M  V30 46 H -0.767946 -0.701138 -2.053399 0
M  V30 47 H -0.528055 -1.554104 -4.284648 0
M  V30 48 H -0.485924 -4.039395 -4.670983 0
M  V30 49 H -0.690435 -5.602291 -2.759655 0
M  V30 50 H -0.938170 -4.686303 -0.461340 0
M  V30 END ATOM
M  V30 BEGIN BOND
M  V30 1 1 1 2
M  V30 2 1 2 3
M  V30 3 2 3 4
M  V30 4 1 3 5
M  V30 5 2 5 6
M  V30 6 1 6 7
M  V30 7 1 7 8
M  V30 8 1 8 9
M  V30 9 2 9 10
M  V30 10 1 9 11
M  V30 11 2 11 12
M  V30 12 1 12 13
M  V30 13 2 13 14
M  V30 14 1 14 15
M  V30 15 1 14 16
M  V30 16 2 16 17
M  V30 17 1 6 18
M  V30 18 2 18 19
M  V30 19 1 18 20
M  V30 20 2 20 21
M  V30 21 1 21 22
M  V30 22 2 22 23
M  V30 23 1 23 24
M  V30 24 1 23 25
M  V30 25 2 25 26
M  V30 26 1 26 27
M  V30 27 1 27 28
M  V30 28 2 28 29
M  V30 29 1 29 30
M  V30 30 2 30 31
M  V30 31 1 31 32
M  V30 32 2 32 33
M  V30 33 1 27 5
M  V30 34 1 33 28
M  V30 35 1 17 11
M  V30 36 1 26 20
M  V30 37 1 1 34
M  V30 38 1 1 35
M  V30 39 1 1 36
M  V30 40 1 7 37
M  V30 41 1 7 38
M  V30 42 1 8 39
M  V30 43 1 12 40
M  V30 44 1 13 41
M  V30 45 1 17 42
M  V30 46 1 21 43
M  V30 47 1 22 44
M  V30 48 1 25 45
M  V30 49 1 29 46
M  V30 50 1 30 47
M  V30 51 1 31 48
M  V30 52 1 32 49
M  V30 53 1 33 50
M  V30 END BOND
M  V30 END CTAB
M  END
>  <Dataset>  (673) 
ChEMBL_Kinases

>  <Ligand_Instance>  (673) 
nan

>  <PDB_ID>  (673) 
nan

>  <Standardized_SMILES>  (673) 
COC(=O)c1c(CNC(=O)c2ccc(Cl)nc2)c(=O)c2ccc(F)cc2n1-c1ccccc1

>  <Name>  (673) 
nan

>  <Pocket>  (673) 
nan

>  <ATP_Site>  (673) 
nan

>  <Peripheral>  (673) 
nan

>  <Num_H_Atoms_ProtBoundConf>  (673) 
nan

>  <Num_Resolved_Atoms>  (673) 
nan

>  <Num_Not_Resolved_Atoms>  (673) 
nan

$$$$
CHEMBL3679590
     RDKit          3D

  0  0  0  0  0  0  0  0  0  0999 V3000
M  V30 BEGIN CTAB
M  V30 COUNTS 55 59 0 0 0
M  V30 BEGIN ATOM
M  V30 1 C 6.829484 -5.004684 -0.942135 0
M  V30 2 O 5.463044 -4.805083 -0.804068 0
M  V30 3 C 4.838233 -3.652880 -0.421194 0
M  V30 4 C 5.469729 -2.469625 -0.100793 0
M  V30 5 C 4.829776 -1.313571 0.284240 0
M  V30 6 N 5.514580 -0.203120 0.579511 0
M  V30 7 C 4.841000 0.921657 0.957003 0
M  V30 8 N 3.502015 0.884534 1.022604 0
M  V30 9 C 2.777479 -0.199001 0.737818 0
M  V30 10 N 1.339365 -0.143537 0.840247 0
M  V30 11 C 0.734378 1.126905 1.255636 0
M  V30 12 C -0.740909 1.021511 1.338068 0
M  V30 13 C -1.636836 1.516720 0.420024 0
M  V30 14 N -2.939639 1.307657 0.690949 0
M  V30 15 C -3.895898 1.804459 -0.239033 0
M  V30 16 C -4.479870 3.051032 -0.311244 0
M  V30 17 C -5.394107 3.323930 -1.306921 0
M  V30 18 C -5.734959 2.360625 -2.237911 0
M  V30 19 C -5.149665 1.096347 -2.173274 0
M  V30 20 C -4.223339 0.833055 -1.157714 0
M  V30 21 C -3.406555 0.666059 1.767498 0
M  V30 22 C -4.737311 0.475532 2.006198 0
M  V30 23 C -5.209968 -0.193627 3.131707 0
M  V30 24 Cl -6.924786 -0.431966 3.428413 0
M  V30 25 C -4.325816 -0.699441 4.067232 0
M  V30 26 C -2.963187 -0.502776 3.819899 0
M  V30 27 C -2.521976 0.165063 2.694569 0
M  V30 28 C -1.158031 0.346671 2.475353 0
M  V30 29 O -0.382224 -0.135090 3.361672 0
M  V30 30 C 3.443203 -1.360456 0.349705 0
M  V30 31 C 2.734707 -2.488949 0.050266 0
M  V30 32 C 3.461606 -3.616746 -0.331420 0
M  V30 33 O 2.765303 -4.777756 -0.641512 0
M  V30 34 C 1.355726 -4.867335 -0.587082 0
M  V30 35 H 7.007369 -5.425885 -1.975434 0
M  V30 36 H 7.466467 -4.130658 -0.783368 0
M  V30 37 H 7.243124 -5.795080 -0.250536 0
M  V30 38 H 6.540439 -2.428323 -0.149909 0
M  V30 39 H 5.411809 1.814694 1.193994 0
M  V30 40 H 0.677338 -0.899338 0.654091 0
M  V30 41 H 1.179414 1.464803 2.223689 0
M  V30 42 H 1.018511 1.924621 0.513514 0
M  V30 43 H -1.238317 2.029366 -0.438071 0
M  V30 44 H -4.141734 3.725716 0.464238 0
M  V30 45 H -5.820876 4.315209 -1.317729 0
M  V30 46 H -6.466905 2.673739 -2.985472 0
M  V30 47 H -5.461532 0.391795 -2.932185 0
M  V30 48 H -3.845409 -0.181346 -1.220054 0
M  V30 49 H -5.482554 0.858397 1.292464 0
M  V30 50 H -4.607153 -1.232279 4.969280 0
M  V30 51 H -2.265526 -0.899188 4.553525 0
M  V30 52 H 1.674900 -2.535685 0.096271 0
M  V30 53 H 1.064473 -5.905270 -0.814624 0
M  V30 54 H 0.993987 -4.152242 -1.383606 0
M  V30 55 H 0.922708 -4.590098 0.372862 0
M  V30 END ATOM
M  V30 BEGIN BOND
M  V30 1 1 1 2
M  V30 2 1 2 3
M  V30 3 2 3 4
M  V30 4 1 4 5
M  V30 5 2 5 6
M  V30 6 1 6 7
M  V30 7 2 7 8
M  V30 8 1 8 9
M  V30 9 1 9 10
M  V30 10 1 10 11
M  V30 11 1 11 12
M  V30 12 2 12 13
M  V30 13 1 13 14
M  V30 14 1 14 15
M  V30 15 2 15 16
M  V30 16 1 16 17
M  V30 17 2 17 18
M  V30 18 1 18 19
M  V30 19 2 19 20
M  V30 20 1 14 21
M  V30 21 2 21 22
M  V30 22 1 22 23
M  V30 23 1 23 24
M  V30 24 2 23 25
M  V30 25 1 25 26
M  V30 26 2 26 27
M  V30 27 1 27 28
M  V30 28 2 28 29
M  V30 29 2 9 30
M  V30 30 1 30 31
M  V30 31 2 31 32
M  V30 32 1 32 33
M  V30 33 1 33 34
M  V30 34 1 32 3
M  V30 35 1 30 5
M  V30 36 1 28 12
M  V30 37 1 20 15
M  V30 38 1 27 21
M  V30 39 1 1 35
M  V30 40 1 1 36
M  V30 41 1 1 37
M  V30 42 1 4 38
M  V30 43 1 7 39
M  V30 44 1 10 40
M  V30 45 1 11 41
M  V30 46 1 11 42
M  V30 47 1 13 43
M  V30 48 1 16 44
M  V30 49 1 17 45
M  V30 50 1 18 46
M  V30 51 1 19 47
M  V30 52 1 20 48
M  V30 53 1 22 49
M  V30 54 1 25 50
M  V30 55 1 26 51
M  V30 56 1 31 52
M  V30 57 1 34 53
M  V30 58 1 34 54
M  V30 59 1 34 55
M  V30 END BOND
M  V30 END CTAB
M  END
>  <Dataset>  (674) 
ChEMBL_Kinases

>  <Ligand_Instance>  (674) 
nan

>  <PDB_ID>  (674) 
nan

>  <Standardized_SMILES>  (674) 
COc1cc2ncnc(NCc3cn(-c4ccccc4)c4cc(Cl)ccc4c3=O)c2cc1OC

>  <Name>  (674) 
nan

>  <Pocket>  (674) 
nan

>  <ATP_Site>  (674) 
nan

>  <Peripheral>  (674) 
nan

>  <Num_H_Atoms_ProtBoundConf>  (674) 
nan

>  <Num_Resolved_Atoms>  (674) 
nan

>  <Num_Not_Resolved_Atoms>  (674) 
nan

$$$$
CHEMBL3679591
     RDKit          3D

  0  0  0  0  0  0  0  0  0  0999 V3000
M  V30 BEGIN CTAB
M  V30 COUNTS 47 51 0 0 0
M  V30 BEGIN ATOM
M  V30 1 O -1.819605 0.091592 3.590787 0
M  V30 2 C -1.538919 -0.637722 2.605447 0
M  V30 3 C -1.324567 -0.139292 1.339607 0
M  V30 4 C -1.418243 1.342628 1.071028 0
M  V30 5 N -0.292743 2.029448 1.526443 0
M  V30 6 C 0.863071 2.734664 1.994622 0
M  V30 7 N 1.406044 2.861181 3.209042 0
M  V30 8 C 2.508789 3.585701 3.409447 0
M  V30 9 N 3.079946 4.196349 2.372405 0
M  V30 10 C 2.623532 4.136769 1.123681 0
M  V30 11 C 3.329857 4.826370 0.163167 0
M  V30 12 C 2.851951 4.760897 -1.126384 0
M  V30 13 F 3.483740 5.408111 -2.127977 0
M  V30 14 C 1.717156 4.030080 -1.406681 0
M  V30 15 C 1.074948 3.374166 -0.392216 0
M  V30 16 C 1.477255 3.380543 0.929307 0
M  V30 17 C -1.028102 -1.055909 0.368599 0
M  V30 18 N -0.924382 -2.386206 0.519128 0
M  V30 19 C -0.611683 -3.278081 -0.543787 0
M  V30 20 C -1.501477 -4.181039 -1.135730 0
M  V30 21 C -1.061099 -4.994333 -2.167157 0
M  V30 22 C 0.262033 -4.883675 -2.582008 0
M  V30 23 C 1.170221 -4.007848 -2.025885 0
M  V30 24 C 0.692064 -3.204728 -0.989774 0
M  V30 25 C -1.135549 -2.886585 1.773449 0
M  V30 26 C -1.039479 -4.246536 1.972272 0
M  V30 27 C -1.257092 -4.757008 3.257078 0
M  V30 28 Cl -1.124208 -6.489478 3.454902 0
M  V30 29 C -1.563937 -3.890930 4.303145 0
M  V30 30 C -1.649901 -2.545161 4.061982 0
M  V30 31 C -1.440787 -1.995633 2.798097 0
M  V30 32 H -2.382152 1.704061 1.498528 0
M  V30 33 H -1.577484 1.455118 -0.050336 0
M  V30 34 H -0.539326 1.676948 2.494185 0
M  V30 35 H 2.820164 3.589737 4.441826 0
M  V30 36 H 4.204998 5.379435 0.441634 0
M  V30 37 H 1.349623 3.981786 -2.412482 0
M  V30 38 H 0.203396 2.822540 -0.654306 0
M  V30 39 H -0.850742 -0.702349 -0.648678 0
M  V30 40 H -2.521095 -4.184263 -0.730363 0
M  V30 41 H -1.761497 -5.686045 -2.611957 0
M  V30 42 H 0.614509 -5.527327 -3.398452 0
M  V30 43 H 2.201200 -3.934294 -2.362514 0
M  V30 44 H 1.433733 -2.527801 -0.576500 0
M  V30 45 H -0.796678 -4.914979 1.138455 0
M  V30 46 H -1.723880 -4.331200 5.283185 0
M  V30 47 H -1.893514 -1.923971 4.923337 0
M  V30 END ATOM
M  V30 BEGIN BOND
M  V30 1 2 1 2
M  V30 2 1 2 3
M  V30 3 1 3 4
M  V30 4 1 4 5
M  V30 5 1 5 6
M  V30 6 2 6 7
M  V30 7 1 7 8
M  V30 8 2 8 9
M  V30 9 1 9 10
M  V30 10 2 10 11
M  V30 11 1 11 12
M  V30 12 1 12 13
M  V30 13 2 12 14
M  V30 14 1 14 15
M  V30 15 2 15 16
M  V30 16 2 3 17
M  V30 17 1 17 18
M  V30 18 1 18 19
M  V30 19 2 19 20
M  V30 20 1 20 21
M  V30 21 2 21 22
M  V30 22 1 22 23
M  V30 23 2 23 24
M  V30 24 1 18 25
M  V30 25 2 25 26
M  V30 26 1 26 27
M  V30 27 1 27 28
M  V30 28 2 27 29
M  V30 29 1 29 30
M  V30 30 2 30 31
M  V30 31 1 31 2
M  V30 32 1 16 6
M  V30 33 1 24 19
M  V30 34 1 31 25
M  V30 35 1 16 10
M  V30 36 1 4 32
M  V30 37 1 4 33
M  V30 38 1 5 34
M  V30 39 1 8 35
M  V30 40 1 11 36
M  V30 41 1 14 37
M  V30 42 1 15 38
M  V30 43 1 17 39
M  V30 44 1 20 40
M  V30 45 1 21 41
M  V30 46 1 22 42
M  V30 47 1 23 43
M  V30 48 1 24 44
M  V30 49 1 26 45
M  V30 50 1 29 46
M  V30 51 1 30 47
M  V30 END BOND
M  V30 END CTAB
M  END
>  <Dataset>  (675) 
ChEMBL_Kinases

>  <Ligand_Instance>  (675) 
nan

>  <PDB_ID>  (675) 
nan

>  <Standardized_SMILES>  (675) 
O=c1c(CNc2ncnc3cc(F)ccc23)cn(-c2ccccc2)c2cc(Cl)ccc12

>  <Name>  (675) 
nan

>  <Pocket>  (675) 
nan

>  <ATP_Site>  (675) 
nan

>  <Peripheral>  (675) 
nan

>  <Num_H_Atoms_ProtBoundConf>  (675) 
nan

>  <Num_Resolved_Atoms>  (675) 
nan

>  <Num_Not_Resolved_Atoms>  (675) 
nan

$$$$
CHEMBL3679592
     RDKit          3D

  0  0  0  0  0  0  0  0  0  0999 V3000
M  V30 BEGIN CTAB
M  V30 COUNTS 56 60 0 0 0
M  V30 BEGIN ATOM
M  V30 1 O 1.925228 -3.241577 1.182533 0
M  V30 2 C 0.870691 -3.516930 0.590793 0
M  V30 3 C -0.090656 -2.535024 0.681224 0
M  V30 4 C -0.045911 -1.223737 1.370394 0
M  V30 5 N 1.206424 -0.978216 2.032964 0
M  V30 6 C 1.165263 0.317189 2.666668 0
M  V30 7 C 1.581800 1.440423 1.955208 0
M  V30 8 C 1.540181 2.661085 2.560126 0
M  V30 9 N 1.952330 3.841195 1.884380 0
M  V30 10 C 2.455360 3.976801 0.553279 0
M  V30 11 C 1.440711 4.760468 -0.251777 0
M  V30 12 C 1.524472 6.190333 0.262157 0
M  V30 13 C 1.084826 6.131982 1.714828 0
M  V30 14 C 1.908440 5.147115 2.510422 0
M  V30 15 N 1.105323 2.792964 3.825306 0
M  V30 16 C 0.697122 1.697998 4.524846 0
M  V30 17 N 0.727118 0.469296 3.949151 0
M  V30 18 C -1.315149 -2.718116 0.063926 0
M  V30 19 N -1.598743 -3.854459 -0.637892 0
M  V30 20 C -2.838571 -4.095222 -1.291159 0
M  V30 21 C -3.330363 -3.450429 -2.407395 0
M  V30 22 C -4.564298 -3.824444 -2.901865 0
M  V30 23 C -5.307032 -4.820162 -2.307270 0
M  V30 24 C -4.833259 -5.479511 -1.187718 0
M  V30 25 C -3.584624 -5.107455 -0.679939 0
M  V30 26 C -0.644310 -4.805425 -0.715471 0
M  V30 27 C -0.809202 -5.992672 -1.392521 0
M  V30 28 C 0.165042 -6.965709 -1.472885 0
M  V30 29 Cl -0.115613 -8.467439 -2.360143 0
M  V30 30 C 1.380373 -6.769843 -0.852970 0
M  V30 31 C 1.600009 -5.588635 -0.155602 0
M  V30 32 C 0.596443 -4.668920 -0.115028 0
M  V30 33 H -0.221675 -0.440806 0.604933 0
M  V30 34 H -0.911716 -1.141104 2.091698 0
M  V30 35 H 2.170387 -1.224333 2.325386 0
M  V30 36 H 1.915895 1.288906 0.962639 0
M  V30 37 H 3.395530 4.599302 0.511709 0
M  V30 38 H 2.661363 2.985791 0.125040 0
M  V30 39 H 1.661193 4.701571 -1.331486 0
M  V30 40 H 0.401707 4.428597 -0.100203 0
M  V30 41 H 0.842382 6.839425 -0.285539 0
M  V30 42 H 2.578910 6.521515 0.258569 0
M  V30 43 H 1.241275 7.129875 2.140376 0
M  V30 44 H 0.023218 5.845133 1.783710 0
M  V30 45 H 2.948200 5.547627 2.618406 0
M  V30 46 H 1.473417 5.121049 3.530212 0
M  V30 47 H 0.355860 1.845787 5.535513 0
M  V30 48 H -2.162192 -2.032375 0.051927 0
M  V30 49 H -2.696347 -2.683986 -2.818262 0
M  V30 50 H -4.912216 -3.293160 -3.778506 0
M  V30 51 H -6.281651 -5.107180 -2.707529 0
M  V30 52 H -5.417558 -6.253040 -0.731225 0
M  V30 53 H -3.278661 -5.663655 0.194004 0
M  V30 54 H -1.737558 -6.197797 -1.894411 0
M  V30 55 H 2.179841 -7.503079 -0.885589 0
M  V30 56 H 2.544476 -5.442853 0.322902 0
M  V30 END ATOM
M  V30 BEGIN BOND
M  V30 1 2 1 2
M  V30 2 1 2 3
M  V30 3 1 3 4
M  V30 4 1 4 5
M  V30 5 1 5 6
M  V30 6 2 6 7
M  V30 7 1 7 8
M  V30 8 1 8 9
M  V30 9 1 9 10
M  V30 10 1 10 11
M  V30 11 1 11 12
M  V30 12 1 12 13
M  V30 13 1 13 14
M  V30 14 2 8 15
M  V30 15 1 15 16
M  V30 16 2 16 17
M  V30 17 2 3 18
M  V30 18 1 18 19
M  V30 19 1 19 20
M  V30 20 2 20 21
M  V30 21 1 21 22
M  V30 22 2 22 23
M  V30 23 1 23 24
M  V30 24 2 24 25
M  V30 25 1 19 26
M  V30 26 2 26 27
M  V30 27 1 27 28
M  V30 28 1 28 29
M  V30 29 2 28 30
M  V30 30 1 30 31
M  V30 31 2 31 32
M  V30 32 1 32 2
M  V30 33 1 17 6
M  V30 34 1 25 20
M  V30 35 1 32 26
M  V30 36 1 14 9
M  V30 37 1 4 33
M  V30 38 1 4 34
M  V30 39 1 5 35
M  V30 40 1 7 36
M  V30 41 1 10 37
M  V30 42 1 10 38
M  V30 43 1 11 39
M  V30 44 1 11 40
M  V30 45 1 12 41
M  V30 46 1 12 42
M  V30 47 1 13 43
M  V30 48 1 13 44
M  V30 49 1 14 45
M  V30 50 1 14 46
M  V30 51 1 16 47
M  V30 52 1 18 48
M  V30 53 1 21 49
M  V30 54 1 22 50
M  V30 55 1 23 51
M  V30 56 1 24 52
M  V30 57 1 25 53
M  V30 58 1 27 54
M  V30 59 1 30 55
M  V30 60 1 31 56
M  V30 END BOND
M  V30 END CTAB
M  END
>  <Dataset>  (676) 
ChEMBL_Kinases

>  <Ligand_Instance>  (676) 
nan

>  <PDB_ID>  (676) 
nan

>  <Standardized_SMILES>  (676) 
O=c1c(CNc2cc(N3CCCCC3)ncn2)cn(-c2ccccc2)c2cc(Cl)ccc12

>  <Name>  (676) 
nan

>  <Pocket>  (676) 
nan

>  <ATP_Site>  (676) 
nan

>  <Peripheral>  (676) 
nan

>  <Num_H_Atoms_ProtBoundConf>  (676) 
nan

>  <Num_Resolved_Atoms>  (676) 
nan

>  <Num_Not_Resolved_Atoms>  (676) 
nan

$$$$
CHEMBL3679711
     RDKit          3D

  0  0  0  0  0  0  0  0  0  0999 V3000
M  V30 BEGIN CTAB
M  V30 COUNTS 34 38 0 0 0
M  V30 BEGIN ATOM
M  V30 1 C 2.886046 -4.476357 0.688658 0
M  V30 2 C 2.966608 -4.419152 -0.701699 0
M  V30 3 O 2.066910 -3.646559 -1.210848 0
M  V30 4 C 1.309639 -3.118730 -0.247116 0
M  V30 5 C 0.185310 -2.210872 -0.269307 0
M  V30 6 N -0.928209 -2.747626 -0.832268 0
M  V30 7 N -1.931403 -1.854944 -0.766858 0
M  V30 8 C -1.462725 -0.752206 -0.164927 0
M  V30 9 N -0.174488 -0.989907 0.125533 0
M  V30 10 C 0.758930 -0.142987 0.756571 0
M  V30 11 C 2.029261 -0.493812 0.386670 0
M  V30 12 C 3.067528 0.211161 0.960924 0
M  V30 13 C 2.744931 1.226350 1.870371 0
M  V30 14 N 1.470242 1.567210 2.226683 0
M  V30 15 C 0.482669 0.857753 1.645947 0
M  V30 16 N -0.805487 1.372080 2.058714 0
M  V30 17 C -1.945610 1.324226 1.164457 0
M  V30 18 C -2.795193 2.405094 1.428863 0
M  V30 19 C -3.925166 2.515216 0.648916 0
M  V30 20 C -4.215008 1.599885 -0.355420 0
M  V30 21 C -3.393478 0.528278 -0.632677 0
M  V30 22 C -2.271459 0.421012 0.144391 0
M  V30 23 C 1.818180 -3.634718 0.940960 0
M  V30 24 H 3.503667 -5.036738 1.379047 0
M  V30 25 H 3.716503 -4.974498 -1.284041 0
M  V30 26 H 2.400489 -1.198991 -0.310495 0
M  V30 27 H 4.120484 0.068802 0.787665 0
M  V30 28 H 3.506275 1.811464 2.354008 0
M  V30 29 H -0.913835 1.793562 2.997311 0
M  V30 30 H -2.510508 3.077452 2.225345 0
M  V30 31 H -4.586225 3.340688 0.841320 0
M  V30 32 H -5.107497 1.690545 -0.968994 0
M  V30 33 H -3.519389 -0.230415 -1.376175 0
M  V30 34 H 1.450402 -3.425750 1.946715 0
M  V30 END ATOM
M  V30 BEGIN BOND
M  V30 1 2 1 2
M  V30 2 1 2 3
M  V30 3 1 3 4
M  V30 4 1 4 5
M  V30 5 2 5 6
M  V30 6 1 6 7
M  V30 7 2 7 8
M  V30 8 1 8 9
M  V30 9 1 9 10
M  V30 10 2 10 11
M  V30 11 1 11 12
M  V30 12 2 12 13
M  V30 13 1 13 14
M  V30 14 2 14 15
M  V30 15 1 15 16
M  V30 16 1 16 17
M  V30 17 2 17 18
M  V30 18 1 18 19
M  V30 19 2 19 20
M  V30 20 1 20 21
M  V30 21 2 21 22
M  V30 22 2 4 23
M  V30 23 1 23 1
M  V30 24 1 9 5
M  V30 25 1 15 10
M  V30 26 1 22 17
M  V30 27 1 22 8
M  V30 28 1 1 24
M  V30 29 1 2 25
M  V30 30 1 11 26
M  V30 31 1 12 27
M  V30 32 1 13 28
M  V30 33 1 16 29
M  V30 34 1 18 30
M  V30 35 1 19 31
M  V30 36 1 20 32
M  V30 37 1 21 33
M  V30 38 1 23 34
M  V30 END BOND
M  V30 END CTAB
M  END
>  <Dataset>  (677) 
ChEMBL_Kinases

>  <Ligand_Instance>  (677) 
nan

>  <PDB_ID>  (677) 
nan

>  <Standardized_SMILES>  (677) 
c1coc(-c2nnc3n2-c2cccnc2Nc2ccccc2-3)c1

>  <Name>  (677) 
nan

>  <Pocket>  (677) 
nan

>  <ATP_Site>  (677) 
nan

>  <Peripheral>  (677) 
nan

>  <Num_H_Atoms_ProtBoundConf>  (677) 
nan

>  <Num_Resolved_Atoms>  (677) 
nan

>  <Num_Not_Resolved_Atoms>  (677) 
nan

$$$$
CHEMBL3679594
     RDKit          3D

  0  0  0  0  0  0  0  0  0  0999 V3000
M  V30 BEGIN CTAB
M  V30 COUNTS 46 50 0 0 0
M  V30 BEGIN ATOM
M  V30 1 O 0.845892 -2.115225 4.246330 0
M  V30 2 C -0.021233 -1.837103 3.346777 0
M  V30 3 C -0.155018 -0.496855 3.072881 0
M  V30 4 C 0.709208 0.638432 3.619093 0
M  V30 5 N 1.659361 1.045627 2.697434 0
M  V30 6 C 2.663042 1.246631 1.760058 0
M  V30 7 N 2.212339 0.706018 0.590438 0
M  V30 8 C 3.124938 0.874590 -0.413032 0
M  V30 9 C 3.265920 0.600546 -1.778131 0
M  V30 10 C 4.394490 0.996546 -2.470765 0
M  V30 11 C 5.382316 1.687243 -1.743154 0
M  V30 12 C 5.217228 1.934575 -0.422471 0
M  V30 13 C 4.108175 1.539624 0.250263 0
M  V30 14 N 3.855680 1.772002 1.555701 0
M  V30 15 C -1.085358 -0.194222 2.098971 0
M  V30 16 N -1.815609 -1.152041 1.456143 0
M  V30 17 C -2.635131 -0.601470 0.408255 0
M  V30 18 C -1.681895 -0.486762 -0.645930 0
M  V30 19 C -2.065773 0.017754 -1.885795 0
M  V30 20 C -3.371950 0.395689 -2.062259 0
M  V30 21 C -4.325233 0.291831 -1.051363 0
M  V30 22 C -3.927448 -0.213428 0.188279 0
M  V30 23 C -1.660983 -2.453069 1.753897 0
M  V30 24 C -2.480060 -3.345675 1.049104 0
M  V30 25 C -2.315731 -4.698148 1.397144 0
M  V30 26 Cl -3.286071 -5.946400 0.602875 0
M  V30 27 C -1.386605 -5.044585 2.378666 0
M  V30 28 C -0.596698 -4.138695 3.046438 0
M  V30 29 C -0.751566 -2.810934 2.711945 0
M  V30 30 H 1.300890 0.117995 4.493289 0
M  V30 31 H 0.085002 1.355854 4.148581 0
M  V30 32 H 1.446073 2.115352 2.789365 0
M  V30 33 H 2.381478 0.072624 -2.123802 0
M  V30 34 H 4.367406 0.710506 -3.531712 0
M  V30 35 H 6.211443 1.946870 -2.354692 0
M  V30 36 H 6.049972 2.476418 0.054957 0
M  V30 37 H 4.285074 2.212614 2.371449 0
M  V30 38 H -1.208956 0.881396 1.888782 0
M  V30 39 H -0.606748 -0.728779 -0.704606 0
M  V30 40 H -1.418521 0.162099 -2.762067 0
M  V30 41 H -3.772172 0.807191 -3.001884 0
M  V30 42 H -5.384148 0.536157 -1.044443 0
M  V30 43 H -4.446730 -0.403493 1.125178 0
M  V30 44 H -3.182738 -3.029452 0.301563 0
M  V30 45 H -1.227239 -6.096763 2.676167 0
M  V30 46 H 0.131982 -4.395556 3.803987 0
M  V30 END ATOM
M  V30 BEGIN BOND
M  V30 1 2 1 2
M  V30 2 1 2 3
M  V30 3 1 3 4
M  V30 4 1 4 5
M  V30 5 1 5 6
M  V30 6 2 6 7
M  V30 7 1 7 8
M  V30 8 2 8 9
M  V30 9 1 9 10
M  V30 10 2 10 11
M  V30 11 1 11 12
M  V30 12 2 12 13
M  V30 13 1 13 14
M  V30 14 2 3 15
M  V30 15 1 15 16
M  V30 16 1 16 17
M  V30 17 2 17 18
M  V30 18 1 18 19
M  V30 19 2 19 20
M  V30 20 1 20 21
M  V30 21 2 21 22
M  V30 22 1 16 23
M  V30 23 2 23 24
M  V30 24 1 24 25
M  V30 25 1 25 26
M  V30 26 2 25 27
M  V30 27 1 27 28
M  V30 28 2 28 29
M  V30 29 1 29 2
M  V30 30 1 14 6
M  V30 31 1 22 17
M  V30 32 1 29 23
M  V30 33 1 13 8
M  V30 34 1 4 30
M  V30 35 1 4 31
M  V30 36 1 5 32
M  V30 37 1 9 33
M  V30 38 1 10 34
M  V30 39 1 11 35
M  V30 40 1 12 36
M  V30 41 1 14 37
M  V30 42 1 15 38
M  V30 43 1 18 39
M  V30 44 1 19 40
M  V30 45 1 20 41
M  V30 46 1 21 42
M  V30 47 1 22 43
M  V30 48 1 24 44
M  V30 49 1 27 45
M  V30 50 1 28 46
M  V30 END BOND
M  V30 END CTAB
M  END
>  <Dataset>  (678) 
ChEMBL_Kinases

>  <Ligand_Instance>  (678) 
nan

>  <PDB_ID>  (678) 
nan

>  <Standardized_SMILES>  (678) 
O=c1c(CNc2nc3ccccc3[nH]2)cn(-c2ccccc2)c2cc(Cl)ccc12

>  <Name>  (678) 
nan

>  <Pocket>  (678) 
nan

>  <ATP_Site>  (678) 
nan

>  <Peripheral>  (678) 
nan

>  <Num_H_Atoms_ProtBoundConf>  (678) 
nan

>  <Num_Resolved_Atoms>  (678) 
nan

>  <Num_Not_Resolved_Atoms>  (678) 
nan

$$$$
CHEMBL3679595
     RDKit          3D

  0  0  0  0  0  0  0  0  0  0999 V3000
M  V30 BEGIN CTAB
M  V30 COUNTS 50 53 0 0 0
M  V30 BEGIN ATOM
M  V30 1 N 0.922077 -4.916180 3.185062 0
M  V30 2 C -0.065075 -4.667644 2.631999 0
M  V30 3 N -1.260383 -4.390410 1.975694 0
M  V30 4 C -1.673920 -3.208226 1.355236 0
M  V30 5 N -0.746434 -2.367709 1.175034 0
M  V30 6 C 0.625564 -2.507036 1.531107 0
M  V30 7 C 1.249684 -1.287007 0.861346 0
M  V30 8 C 1.631429 -0.145704 1.537823 0
M  V30 9 N 2.170071 0.873167 0.853832 0
M  V30 10 C 2.570008 2.057513 1.523973 0
M  V30 11 C 3.686987 2.241909 2.324888 0
M  V30 12 C 3.939455 3.464217 2.910380 0
M  V30 13 C 3.097715 4.557274 2.729049 0
M  V30 14 C 1.989670 4.355472 1.928124 0
M  V30 15 C 1.715726 3.138415 1.330069 0
M  V30 16 C 2.350928 0.817780 -0.476671 0
M  V30 17 C 2.912092 1.898170 -1.136757 0
M  V30 18 C 3.095097 1.840355 -2.487811 0
M  V30 19 Cl 3.807703 3.208088 -3.330159 0
M  V30 20 C 2.745668 0.739855 -3.261584 0
M  V30 21 C 2.177322 -0.359429 -2.607212 0
M  V30 22 C 2.002859 -0.276200 -1.241461 0
M  V30 23 C 1.450375 -1.315905 -0.525121 0
M  V30 24 O 1.101674 -2.354282 -1.131091 0
M  V30 25 N -3.038797 -2.990245 0.964757 0
M  V30 26 C -4.101993 -2.345238 1.705879 0
M  V30 27 C -5.399971 -2.969506 1.202000 0
M  V30 28 O -5.637393 -2.634543 -0.129285 0
M  V30 29 C -4.491275 -2.599411 -0.887168 0
M  V30 30 C -3.398846 -3.481606 -0.345706 0
M  V30 31 H -1.943176 -5.212460 1.959323 0
M  V30 32 H 0.856767 -2.296871 2.583183 0
M  V30 33 H 1.179409 -3.297710 1.028021 0
M  V30 34 H 1.477799 -0.126800 2.589611 0
M  V30 35 H 4.307501 1.375101 2.438082 0
M  V30 36 H 4.821314 3.582034 3.533307 0
M  V30 37 H 3.322631 5.506698 3.203125 0
M  V30 38 H 1.348622 5.214589 1.798942 0
M  V30 39 H 0.822830 3.116494 0.732373 0
M  V30 40 H 3.214689 2.798654 -0.610825 0
M  V30 41 H 2.886078 0.684739 -4.326923 0
M  V30 42 H 1.876068 -1.257607 -3.133967 0
M  V30 43 H -4.050800 -2.578115 2.784351 0
M  V30 44 H -4.072508 -1.262874 1.511339 0
M  V30 45 H -5.240081 -4.067131 1.230770 0
M  V30 46 H -6.217226 -2.662199 1.867157 0
M  V30 47 H -4.746184 -2.942888 -1.921501 0
M  V30 48 H -4.060027 -1.584601 -0.998312 0
M  V30 49 H -3.763976 -4.537806 -0.227069 0
M  V30 50 H -2.546225 -3.468619 -1.037950 0
M  V30 END ATOM
M  V30 BEGIN BOND
M  V30 1 3 1 2
M  V30 2 1 2 3
M  V30 3 1 3 4
M  V30 4 2 4 5
M  V30 5 1 5 6
M  V30 6 1 6 7
M  V30 7 2 7 8
M  V30 8 1 8 9
M  V30 9 1 9 10
M  V30 10 2 10 11
M  V30 11 1 11 12
M  V30 12 2 12 13
M  V30 13 1 13 14
M  V30 14 2 14 15
M  V30 15 1 9 16
M  V30 16 2 16 17
M  V30 17 1 17 18
M  V30 18 1 18 19
M  V30 19 2 18 20
M  V30 20 1 20 21
M  V30 21 2 21 22
M  V30 22 1 22 23
M  V30 23 2 23 24
M  V30 24 1 4 25
M  V30 25 1 25 26
M  V30 26 1 26 27
M  V30 27 1 27 28
M  V30 28 1 28 29
M  V30 29 1 29 30
M  V30 30 1 23 7
M  V30 31 1 30 25
M  V30 32 1 15 10
M  V30 33 1 22 16
M  V30 34 1 3 31
M  V30 35 1 6 32
M  V30 36 1 6 33
M  V30 37 1 8 34
M  V30 38 1 11 35
M  V30 39 1 12 36
M  V30 40 1 13 37
M  V30 41 1 14 38
M  V30 42 1 15 39
M  V30 43 1 17 40
M  V30 44 1 20 41
M  V30 45 1 21 42
M  V30 46 1 26 43
M  V30 47 1 26 44
M  V30 48 1 27 45
M  V30 49 1 27 46
M  V30 50 1 29 47
M  V30 51 1 29 48
M  V30 52 1 30 49
M  V30 53 1 30 50
M  V30 END BOND
M  V30 END CTAB
M  END
>  <Dataset>  (679) 
ChEMBL_Kinases

>  <Ligand_Instance>  (679) 
nan

>  <PDB_ID>  (679) 
nan

>  <Standardized_SMILES>  (679) 
N#CN/C(=N\Cc1cn(-c2ccccc2)c2cc(Cl)ccc2c1=O)N1CCOCC1

>  <Name>  (679) 
nan

>  <Pocket>  (679) 
nan

>  <ATP_Site>  (679) 
nan

>  <Peripheral>  (679) 
nan

>  <Num_H_Atoms_ProtBoundConf>  (679) 
nan

>  <Num_Resolved_Atoms>  (679) 
nan

>  <Num_Not_Resolved_Atoms>  (679) 
nan

$$$$
CHEMBL3679596
     RDKit          3D

  0  0  0  0  0  0  0  0  0  0999 V3000
M  V30 BEGIN CTAB
M  V30 COUNTS 49 52 0 0 0
M  V30 BEGIN ATOM
M  V30 1 N 1.306908 -0.925332 6.020863 0
M  V30 2 C 0.590065 -1.704763 5.552048 0
M  V30 3 N -0.276999 -2.655217 5.008862 0
M  V30 4 C -0.965067 -2.495014 3.784650 0
M  V30 5 N -0.496214 -1.705073 2.903082 0
M  V30 6 C 0.718988 -0.978751 3.137019 0
M  V30 7 C 1.073434 -0.509399 1.725357 0
M  V30 8 C 0.891752 0.787136 1.278654 0
M  V30 9 N 1.235797 1.097810 0.022024 0
M  V30 10 C 0.986997 2.473984 -0.288023 0
M  V30 11 C -0.305117 2.982832 -0.333044 0
M  V30 12 C -0.573972 4.312032 -0.631089 0
M  V30 13 C 0.540504 5.091550 -0.879813 0
M  V30 14 C 1.847880 4.677479 -0.858012 0
M  V30 15 C 2.030462 3.335604 -0.551981 0
M  V30 16 C 1.753625 0.191398 -0.825498 0
M  V30 17 C 2.051139 0.678057 -2.078785 0
M  V30 18 C 2.586653 -0.211379 -2.992396 0
M  V30 19 Cl 3.009251 0.275722 -4.616663 0
M  V30 20 C 2.802658 -1.534411 -2.628001 0
M  V30 21 C 2.496221 -2.009506 -1.356993 0
M  V30 22 C 1.962107 -1.119064 -0.448326 0
M  V30 23 C 1.610383 -1.446765 0.844486 0
M  V30 24 O 1.809378 -2.647489 1.167552 0
M  V30 25 N -2.159054 -3.179164 3.493211 0
M  V30 26 C -2.637737 -3.514894 2.205111 0
M  V30 27 C -3.905043 -4.101045 2.085898 0
M  V30 28 C -4.456811 -4.469585 0.882579 0
M  V30 29 C -3.762681 -4.269668 -0.284208 0
M  V30 30 C -2.511759 -3.696036 -0.216232 0
M  V30 31 C -2.015947 -3.350817 1.009927 0
M  V30 32 H -0.445175 -3.546724 5.526300 0
M  V30 33 H 1.602382 -1.558464 3.381196 0
M  V30 34 H 0.568471 -0.009345 3.636230 0
M  V30 35 H 0.467655 1.473738 2.014840 0
M  V30 36 H -1.151882 2.336022 -0.130800 0
M  V30 37 H -1.577852 4.715006 -0.668043 0
M  V30 38 H 0.337927 6.135951 -1.114767 0
M  V30 39 H 2.662481 5.360805 -1.066140 0
M  V30 40 H 3.030210 2.928803 -0.513569 0
M  V30 41 H 1.901002 1.691579 -2.403255 0
M  V30 42 H 3.215521 -2.287653 -3.281594 0
M  V30 43 H 2.653591 -3.032794 -1.047167 0
M  V30 44 H -2.734965 -3.464809 4.330460 0
M  V30 45 H -4.519882 -4.293672 2.958923 0
M  V30 46 H -5.437271 -4.919357 0.828480 0
M  V30 47 H -4.201655 -4.559863 -1.213900 0
M  V30 48 H -1.974227 -3.541680 -1.122009 0
M  V30 49 H -1.041234 -2.915226 0.998160 0
M  V30 END ATOM
M  V30 BEGIN BOND
M  V30 1 3 1 2
M  V30 2 1 2 3
M  V30 3 1 3 4
M  V30 4 2 4 5
M  V30 5 1 5 6
M  V30 6 1 6 7
M  V30 7 2 7 8
M  V30 8 1 8 9
M  V30 9 1 9 10
M  V30 10 2 10 11
M  V30 11 1 11 12
M  V30 12 2 12 13
M  V30 13 1 13 14
M  V30 14 2 14 15
M  V30 15 1 9 16
M  V30 16 2 16 17
M  V30 17 1 17 18
M  V30 18 1 18 19
M  V30 19 2 18 20
M  V30 20 1 20 21
M  V30 21 2 21 22
M  V30 22 1 22 23
M  V30 23 2 23 24
M  V30 24 1 4 25
M  V30 25 1 25 26
M  V30 26 2 26 27
M  V30 27 1 27 28
M  V30 28 2 28 29
M  V30 29 1 29 30
M  V30 30 2 30 31
M  V30 31 1 23 7
M  V30 32 1 31 26
M  V30 33 1 15 10
M  V30 34 1 22 16
M  V30 35 1 3 32
M  V30 36 1 6 33
M  V30 37 1 6 34
M  V30 38 1 8 35
M  V30 39 1 11 36
M  V30 40 1 12 37
M  V30 41 1 13 38
M  V30 42 1 14 39
M  V30 43 1 15 40
M  V30 44 1 17 41
M  V30 45 1 20 42
M  V30 46 1 21 43
M  V30 47 1 25 44
M  V30 48 1 27 45
M  V30 49 1 28 46
M  V30 50 1 29 47
M  V30 51 1 30 48
M  V30 52 1 31 49
M  V30 END BOND
M  V30 END CTAB
M  END
>  <Dataset>  (680) 
ChEMBL_Kinases

>  <Ligand_Instance>  (680) 
nan

>  <PDB_ID>  (680) 
nan

>  <Standardized_SMILES>  (680) 
N#CN/C(=N\Cc1cn(-c2ccccc2)c2cc(Cl)ccc2c1=O)Nc1ccccc1

>  <Name>  (680) 
nan

>  <Pocket>  (680) 
nan

>  <ATP_Site>  (680) 
nan

>  <Peripheral>  (680) 
nan

>  <Num_H_Atoms_ProtBoundConf>  (680) 
nan

>  <Num_Resolved_Atoms>  (680) 
nan

>  <Num_Not_Resolved_Atoms>  (680) 
nan

$$$$
CHEMBL3679597
     RDKit          3D

  0  0  0  0  0  0  0  0  0  0999 V3000
M  V30 BEGIN CTAB
M  V30 COUNTS 46 49 0 0 0
M  V30 BEGIN ATOM
M  V30 1 O -3.350343 -1.679446 0.697065 0
M  V30 2 C -2.327686 -2.426010 0.616375 0
M  V30 3 N -1.170629 -1.652193 0.993329 0
M  V30 4 C -1.434030 -0.262204 1.358562 0
M  V30 5 C -0.101141 0.334764 1.696183 0
M  V30 6 C 0.523674 1.169082 0.783524 0
M  V30 7 N 1.722591 1.707938 1.072693 0
M  V30 8 C 2.270972 2.545237 0.059054 0
M  V30 9 C 2.612526 3.871971 0.097699 0
M  V30 10 C 3.138669 4.444376 -1.060735 0
M  V30 11 C 3.326328 3.738527 -2.228163 0
M  V30 12 C 2.975644 2.384312 -2.261144 0
M  V30 13 C 2.456395 1.821535 -1.115966 0
M  V30 14 C 2.325796 1.436554 2.260201 0
M  V30 15 C 3.559452 2.023790 2.495989 0
M  V30 16 C 4.193874 1.765899 3.692706 0
M  V30 17 Cl 5.764274 2.467287 4.081350 0
M  V30 18 C 3.604522 0.937321 4.632895 0
M  V30 19 C 2.377054 0.360154 4.384995 0
M  V30 20 C 1.704489 0.598256 3.184032 0
M  V30 21 C 0.461463 0.021999 2.918141 0
M  V30 22 O -0.071642 -0.731735 3.776555 0
M  V30 23 O -2.039391 -3.730941 0.277064 0
M  V30 24 C -2.970921 -4.680808 -0.120543 0
M  V30 25 C -3.261471 -4.753080 -1.477641 0
M  V30 26 C -4.192983 -5.694499 -1.926603 0
M  V30 27 C -4.826199 -6.553021 -1.028498 0
M  V30 28 C -4.469327 -6.401554 0.294923 0
M  V30 29 C -3.568348 -5.508874 0.826562 0
M  V30 30 H -0.193319 -2.073771 1.001441 0
M  V30 31 H -1.805044 0.221520 0.439758 0
M  V30 32 H -2.106987 -0.190450 2.231296 0
M  V30 33 H 0.020917 1.358466 -0.133919 0
M  V30 34 H 2.431184 4.326867 1.039038 0
M  V30 35 H 3.379573 5.497092 -0.936001 0
M  V30 36 H 3.740776 4.264350 -3.080333 0
M  V30 37 H 3.141230 1.874476 -3.195719 0
M  V30 38 H 2.225756 0.761203 -1.278904 0
M  V30 39 H 4.015161 2.662399 1.772387 0
M  V30 40 H 4.048664 0.695423 5.588847 0
M  V30 41 H 1.834373 -0.307269 5.066209 0
M  V30 42 H -2.772087 -4.087082 -2.184142 0
M  V30 43 H -4.444793 -5.782063 -2.966178 0
M  V30 44 H -5.552145 -7.295006 -1.332789 0
M  V30 45 H -4.960401 -7.070620 1.009276 0
M  V30 46 H -3.348172 -5.456641 1.867029 0
M  V30 END ATOM
M  V30 BEGIN BOND
M  V30 1 2 1 2
M  V30 2 1 2 3
M  V30 3 1 3 4
M  V30 4 1 4 5
M  V30 5 2 5 6
M  V30 6 1 6 7
M  V30 7 1 7 8
M  V30 8 2 8 9
M  V30 9 1 9 10
M  V30 10 2 10 11
M  V30 11 1 11 12
M  V30 12 2 12 13
M  V30 13 1 7 14
M  V30 14 2 14 15
M  V30 15 1 15 16
M  V30 16 1 16 17
M  V30 17 2 16 18
M  V30 18 1 18 19
M  V30 19 2 19 20
M  V30 20 1 20 21
M  V30 21 2 21 22
M  V30 22 1 2 23
M  V30 23 1 23 24
M  V30 24 2 24 25
M  V30 25 1 25 26
M  V30 26 2 26 27
M  V30 27 1 27 28
M  V30 28 2 28 29
M  V30 29 1 21 5
M  V30 30 1 29 24
M  V30 31 1 13 8
M  V30 32 1 20 14
M  V30 33 1 3 30
M  V30 34 1 4 31
M  V30 35 1 4 32
M  V30 36 1 6 33
M  V30 37 1 9 34
M  V30 38 1 10 35
M  V30 39 1 11 36
M  V30 40 1 12 37
M  V30 41 1 13 38
M  V30 42 1 15 39
M  V30 43 1 18 40
M  V30 44 1 19 41
M  V30 45 1 25 42
M  V30 46 1 26 43
M  V30 47 1 27 44
M  V30 48 1 28 45
M  V30 49 1 29 46
M  V30 END BOND
M  V30 END CTAB
M  END
>  <Dataset>  (681) 
ChEMBL_Kinases

>  <Ligand_Instance>  (681) 
nan

>  <PDB_ID>  (681) 
nan

>  <Standardized_SMILES>  (681) 
O=C(NCc1cn(-c2ccccc2)c2cc(Cl)ccc2c1=O)Oc1ccccc1

>  <Name>  (681) 
nan

>  <Pocket>  (681) 
nan

>  <ATP_Site>  (681) 
nan

>  <Peripheral>  (681) 
nan

>  <Num_H_Atoms_ProtBoundConf>  (681) 
nan

>  <Num_Resolved_Atoms>  (681) 
nan

>  <Num_Not_Resolved_Atoms>  (681) 
nan

$$$$
CHEMBL3679598
     RDKit          3D

  0  0  0  0  0  0  0  0  0  0999 V3000
M  V30 BEGIN CTAB
M  V30 COUNTS 59 63 0 0 0
M  V30 BEGIN ATOM
M  V30 1 O -0.268842 -2.905014 3.103239 0
M  V30 2 C 0.756107 -3.097891 2.415974 0
M  V30 3 N 1.806334 -2.174145 2.485498 0
M  V30 4 C 2.207021 -0.945194 3.113230 0
M  V30 5 C 1.266842 0.132172 2.723999 0
M  V30 6 C 1.613393 0.928435 1.644270 0
M  V30 7 N 0.910493 1.934718 1.096979 0
M  V30 8 C 1.382910 2.678404 -0.018780 0
M  V30 9 C 1.475991 2.259341 -1.330323 0
M  V30 10 C 1.963521 3.130851 -2.286420 0
M  V30 11 C 2.363409 4.418683 -1.964989 0
M  V30 12 C 2.261843 4.815583 -0.649320 0
M  V30 13 C 1.774341 3.965478 0.347419 0
M  V30 14 C -0.283910 2.248255 1.625241 0
M  V30 15 C -1.097012 3.255260 1.154893 0
M  V30 16 C -2.327032 3.566683 1.710703 0
M  V30 17 Cl -3.334598 4.855793 1.085066 0
M  V30 18 C -2.706401 2.786634 2.798233 0
M  V30 19 C -1.931722 1.765672 3.310672 0
M  V30 20 C -0.714491 1.509181 2.706558 0
M  V30 21 C 0.039637 0.486247 3.235521 0
M  V30 22 O -0.377201 -0.163482 4.221532 0
M  V30 23 N 0.619650 -4.287517 1.668453 0
M  V30 24 C -0.589011 -5.024752 1.809839 0
M  V30 25 C -1.175396 -5.471934 0.488797 0
M  V30 26 N -0.539282 -4.711035 -0.565169 0
M  V30 27 C -1.217656 -3.780038 -1.388002 0
M  V30 28 C -2.544274 -3.466326 -1.225367 0
M  V30 29 C -3.227190 -2.564826 -2.013598 0
M  V30 30 C -2.576073 -1.913752 -3.041859 0
M  V30 31 C -1.243357 -2.204253 -3.234200 0
M  V30 32 C -0.605700 -3.113885 -2.418424 0
M  V30 33 C 0.864214 -5.017061 -0.664874 0
M  V30 34 C 1.451825 -5.004406 0.726144 0
M  V30 35 H 2.536304 -2.587121 1.810492 0
M  V30 36 H 2.191560 -1.037553 4.235247 0
M  V30 37 H 3.198808 -0.665473 2.750823 0
M  V30 38 H 2.577766 0.747942 1.141471 0
M  V30 39 H 1.148061 1.244689 -1.510998 0
M  V30 40 H 2.023984 2.771101 -3.307305 0
M  V30 41 H 2.744804 5.097836 -2.717532 0
M  V30 42 H 2.575748 5.831270 -0.384211 0
M  V30 43 H 1.734756 4.374296 1.348904 0
M  V30 44 H -0.739408 3.824260 0.304125 0
M  V30 45 H -3.668150 2.981311 3.283927 0
M  V30 46 H -2.276528 1.180890 4.169055 0
M  V30 47 H -1.359819 -4.421047 2.328858 0
M  V30 48 H -0.451709 -5.929970 2.453249 0
M  V30 49 H -0.867720 -6.547745 0.333745 0
M  V30 50 H -2.268486 -5.444383 0.479177 0
M  V30 51 H -3.150028 -3.903974 -0.464935 0
M  V30 52 H -4.269081 -2.319980 -1.883859 0
M  V30 53 H -3.086434 -1.211061 -3.664660 0
M  V30 54 H -0.748184 -1.682226 -4.048322 0
M  V30 55 H 0.423303 -3.255437 -2.665454 0
M  V30 56 H 0.922635 -6.073931 -1.033723 0
M  V30 57 H 1.433222 -4.420253 -1.374762 0
M  V30 58 H 1.645698 -6.030090 1.081313 0
M  V30 59 H 2.399383 -4.430168 0.673986 0
M  V30 END ATOM
M  V30 BEGIN BOND
M  V30 1 2 1 2
M  V30 2 1 2 3
M  V30 3 1 3 4
M  V30 4 1 4 5
M  V30 5 2 5 6
M  V30 6 1 6 7
M  V30 7 1 7 8
M  V30 8 2 8 9
M  V30 9 1 9 10
M  V30 10 2 10 11
M  V30 11 1 11 12
M  V30 12 2 12 13
M  V30 13 1 7 14
M  V30 14 2 14 15
M  V30 15 1 15 16
M  V30 16 1 16 17
M  V30 17 2 16 18
M  V30 18 1 18 19
M  V30 19 2 19 20
M  V30 20 1 20 21
M  V30 21 2 21 22
M  V30 22 1 2 23
M  V30 23 1 23 24
M  V30 24 1 24 25
M  V30 25 1 25 26
M  V30 26 1 26 27
M  V30 27 2 27 28
M  V30 28 1 28 29
M  V30 29 2 29 30
M  V30 30 1 30 31
M  V30 31 2 31 32
M  V30 32 1 26 33
M  V30 33 1 33 34
M  V30 34 1 21 5
M  V30 35 1 34 23
M  V30 36 1 13 8
M  V30 37 1 20 14
M  V30 38 1 32 27
M  V30 39 1 3 35
M  V30 40 1 4 36
M  V30 41 1 4 37
M  V30 42 1 6 38
M  V30 43 1 9 39
M  V30 44 1 10 40
M  V30 45 1 11 41
M  V30 46 1 12 42
M  V30 47 1 13 43
M  V30 48 1 15 44
M  V30 49 1 18 45
M  V30 50 1 19 46
M  V30 51 1 24 47
M  V30 52 1 24 48
M  V30 53 1 25 49
M  V30 54 1 25 50
M  V30 55 1 28 51
M  V30 56 1 29 52
M  V30 57 1 30 53
M  V30 58 1 31 54
M  V30 59 1 32 55
M  V30 60 1 33 56
M  V30 61 1 33 57
M  V30 62 1 34 58
M  V30 63 1 34 59
M  V30 END BOND
M  V30 END CTAB
M  END
>  <Dataset>  (682) 
ChEMBL_Kinases

>  <Ligand_Instance>  (682) 
nan

>  <PDB_ID>  (682) 
nan

>  <Standardized_SMILES>  (682) 
O=C(NCc1cn(-c2ccccc2)c2cc(Cl)ccc2c1=O)N1CCN(c2ccccc2)CC1

>  <Name>  (682) 
nan

>  <Pocket>  (682) 
nan

>  <ATP_Site>  (682) 
nan

>  <Peripheral>  (682) 
nan

>  <Num_H_Atoms_ProtBoundConf>  (682) 
nan

>  <Num_Resolved_Atoms>  (682) 
nan

>  <Num_Not_Resolved_Atoms>  (682) 
nan

$$$$
CHEMBL3679635
     RDKit          3D

  0  0  0  0  0  0  0  0  0  0999 V3000
M  V30 BEGIN CTAB
M  V30 COUNTS 69 76 0 0 0
M  V30 BEGIN ATOM
M  V30 1 N 3.016819 -1.409381 4.110157 0
M  V30 2 C 3.507551 -0.599952 3.001663 0 CFG=2
M  V30 3 C 2.545332 -0.449101 1.904462 0
M  V30 4 C 2.603143 -0.622474 0.537947 0
M  V30 5 C 1.494511 -0.389255 -0.249586 0
M  V30 6 C 0.293547 0.020605 0.269905 0
M  V30 7 C -0.742402 0.210699 -0.739612 0
M  V30 8 N -0.513308 1.168781 -1.661467 0
M  V30 9 C -1.425725 1.421169 -2.643606 0
M  V30 10 C -1.137418 2.400549 -3.571681 0
M  V30 11 C -2.066036 2.628742 -4.565794 0
M  V30 12 C -3.201484 1.846989 -4.530353 0
M  V30 13 N -4.239142 1.878883 -5.383961 0
M  V30 14 N -5.115104 0.945523 -4.967469 0
M  V30 15 C -4.640260 0.328556 -3.862620 0
M  V30 16 C -5.476713 -0.717602 -3.272807 0
M  V30 17 N -6.883449 -0.561807 -3.761902 0
M  V30 18 C -7.406514 -1.809975 -3.186486 0
M  V30 19 N -6.370590 -2.754686 -3.556665 0
M  V30 20 N -5.189595 -2.045179 -3.658333 0
M  V30 21 N -3.465037 0.908109 -3.628874 0
M  V30 22 C -2.581153 0.672718 -2.664830 0
M  V30 23 C -2.828882 -0.301473 -1.740650 0
M  V30 24 C -1.903912 -0.575914 -0.723284 0
M  V30 25 C -2.046187 -1.587032 0.322311 0
M  V30 26 C -1.194422 -2.671150 0.462618 0
M  V30 27 C -1.396037 -3.592741 1.482089 0
M  V30 28 C -2.436873 -3.462098 2.377142 0
M  V30 29 C -3.277659 -2.378468 2.226573 0
M  V30 30 C -3.101301 -1.443378 1.219773 0
M  V30 31 C 0.203935 0.203013 1.635109 0
M  V30 32 C 1.320920 -0.030924 2.437226 0
M  V30 33 C 4.864178 -1.024863 2.506683 0
M  V30 34 C 5.470639 -0.045192 3.522691 0 CFG=2
M  V30 35 O 6.432561 0.754076 2.908383 0
M  V30 36 C 5.869309 -0.633528 4.831705 0
M  V30 37 C 6.895849 -1.728059 4.865484 0
M  V30 38 C 7.270788 -0.355840 5.324775 0
M  V30 39 C 4.144014 0.677820 3.501401 0
M  V30 40 H 2.108658 -1.881054 3.829966 0
M  V30 41 H 2.831840 -0.748883 4.911888 0
M  V30 42 H 3.576477 -0.944917 0.219489 0
M  V30 43 H 1.739927 -0.580902 -1.300009 0
M  V30 44 H -0.210211 2.987993 -3.538156 0
M  V30 45 H -1.892334 3.387508 -5.325044 0
M  V30 46 H -5.651290 -0.626763 -2.172338 0
M  V30 47 H -7.307126 0.241855 -3.273457 0
M  V30 48 H -8.386222 -2.050235 -3.592863 0
M  V30 49 H -7.468036 -1.631618 -2.093500 0
M  V30 50 H -6.354492 -3.464506 -2.772502 0
M  V30 51 H -4.745961 -2.114305 -4.581779 0
M  V30 52 H -3.640072 -0.962271 -1.635078 0
M  V30 53 H -0.405591 -2.698614 -0.281065 0
M  V30 54 H -0.675914 -4.423358 1.523854 0
M  V30 55 H -2.576675 -4.185349 3.159424 0
M  V30 56 H -4.117321 -2.212464 2.894616 0
M  V30 57 H -3.768465 -0.587406 1.103219 0
M  V30 58 H -0.766271 0.524628 1.974816 0
M  V30 59 H 1.052508 0.167983 3.488484 0
M  V30 60 H 5.109798 -0.793613 1.471801 0
M  V30 61 H 5.063273 -2.087542 2.756344 0
M  V30 62 H 6.494644 0.603368 1.944062 0
M  V30 63 H 5.101842 -0.596487 5.659152 0
M  V30 64 H 7.267804 -2.077823 3.882179 0
M  V30 65 H 6.788801 -2.540272 5.622787 0
M  V30 66 H 7.446783 -0.157646 6.395544 0
M  V30 67 H 7.884791 0.287437 4.652911 0
M  V30 68 H 4.087814 1.539619 2.811166 0
M  V30 69 H 3.725970 0.943694 4.490300 0
M  V30 END ATOM
M  V30 BEGIN BOND
M  V30 1 1 2 1 CFG=1
M  V30 2 1 2 3
M  V30 3 2 3 4
M  V30 4 1 4 5
M  V30 5 2 5 6
M  V30 6 1 6 7
M  V30 7 2 7 8
M  V30 8 1 8 9
M  V30 9 1 9 10
M  V30 10 2 10 11
M  V30 11 1 11 12
M  V30 12 2 12 13
M  V30 13 1 13 14
M  V30 14 2 14 15
M  V30 15 1 15 16
M  V30 16 1 16 17
M  V30 17 1 17 18
M  V30 18 1 18 19
M  V30 19 1 19 20
M  V30 20 1 15 21
M  V30 21 1 21 22
M  V30 22 1 22 23
M  V30 23 2 23 24
M  V30 24 1 24 25
M  V30 25 2 25 26
M  V30 26 1 26 27
M  V30 27 2 27 28
M  V30 28 1 28 29
M  V30 29 2 29 30
M  V30 30 1 6 31
M  V30 31 2 31 32
M  V30 32 1 2 33
M  V30 33 1 33 34
M  V30 34 1 34 35 CFG=3
M  V30 35 1 34 36
M  V30 36 1 36 37
M  V30 37 1 37 38
M  V30 38 1 34 39
M  V30 39 1 39 2
M  V30 40 1 32 3
M  V30 41 1 38 36
M  V30 42 1 24 7
M  V30 43 1 30 25
M  V30 44 2 22 9
M  V30 45 1 21 12
M  V30 46 1 20 16
M  V30 47 1 1 40
M  V30 48 1 1 41
M  V30 49 1 4 42
M  V30 50 1 5 43
M  V30 51 1 10 44
M  V30 52 1 11 45
M  V30 53 1 16 46
M  V30 54 1 17 47
M  V30 55 1 18 48
M  V30 56 1 18 49
M  V30 57 1 19 50
M  V30 58 1 20 51
M  V30 59 1 23 52
M  V30 60 1 26 53
M  V30 61 1 27 54
M  V30 62 1 28 55
M  V30 63 1 29 56
M  V30 64 1 30 57
M  V30 65 1 31 58
M  V30 66 1 32 59
M  V30 67 1 33 60
M  V30 68 1 33 61
M  V30 69 1 35 62
M  V30 70 1 36 63
M  V30 71 1 37 64
M  V30 72 1 37 65
M  V30 73 1 38 66
M  V30 74 1 38 67
M  V30 75 1 39 68
M  V30 76 1 39 69
M  V30 END BOND
M  V30 END CTAB
M  END
>  <Dataset>  (683) 
ChEMBL_Kinases

>  <Ligand_Instance>  (683) 
nan

>  <PDB_ID>  (683) 
nan

>  <Standardized_SMILES>  (683) 
N[C@]1(c2ccc(-c3nc4ccc5nnc(C6NCNN6)n5c4cc3-c3ccccc3)cc2)C[C@](O)(C2CC2)C1

>  <Name>  (683) 
nan

>  <Pocket>  (683) 
nan

>  <ATP_Site>  (683) 
nan

>  <Peripheral>  (683) 
nan

>  <Num_H_Atoms_ProtBoundConf>  (683) 
nan

>  <Num_Resolved_Atoms>  (683) 
nan

>  <Num_Not_Resolved_Atoms>  (683) 
nan

$$$$
CHEMBL3679636
     RDKit          3D

  0  0  0  0  0  0  0  0  0  0999 V3000
M  V30 BEGIN CTAB
M  V30 COUNTS 62 68 0 0 0
M  V30 BEGIN ATOM
M  V30 1 N -3.609617 -0.812756 -2.247125 0
M  V30 2 C -3.404005 -1.499529 -0.985785 0 CFG=2
M  V30 3 C -2.196184 -1.085549 -0.242486 0
M  V30 4 C -1.183794 -1.878177 0.262848 0
M  V30 5 C -0.117239 -1.321207 0.940208 0
M  V30 6 C -0.035349 0.040722 1.129564 0
M  V30 7 C 1.156320 0.444800 1.865319 0
M  V30 8 N 0.916297 1.034105 3.050925 0
M  V30 9 C 1.961934 1.446869 3.814472 0
M  V30 10 C 1.669024 2.045066 5.020777 0
M  V30 11 C 2.739820 2.457836 5.783140 0
M  V30 12 C 3.992753 2.227968 5.257011 0
M  V30 13 N 5.168463 2.544924 5.823675 0
M  V30 14 N 6.130774 2.144532 4.974738 0
M  V30 15 C 5.581879 1.573978 3.869422 0
M  V30 16 C 6.469382 1.076142 2.832280 0
M  V30 17 F 6.492022 1.776246 1.646082 0
M  V30 18 F 6.537513 -0.296840 2.697971 0
M  V30 19 N 4.270490 1.652406 4.096533 0
M  V30 20 C 3.243144 1.249749 3.351709 0
M  V30 21 C 3.502207 0.652765 2.149844 0
M  V30 22 C 2.445875 0.227356 1.361687 0
M  V30 23 C 2.510892 -0.425030 0.060511 0
M  V30 24 C 3.183183 -1.649816 0.055151 0
M  V30 25 C 3.333766 -2.393174 -1.090586 0
M  V30 26 C 2.808217 -1.922414 -2.274080 0
M  V30 27 C 2.131603 -0.700774 -2.295641 0
M  V30 28 C 1.993882 0.026793 -1.131100 0
M  V30 29 C -1.038267 0.850870 0.631453 0
M  V30 30 C -2.105325 0.286677 -0.046910 0
M  V30 31 C -3.513328 -2.993805 -1.199700 0
M  V30 32 C -5.008761 -2.817738 -1.022828 0 CFG=2
M  V30 33 O -5.610265 -3.836515 -0.289418 0
M  V30 34 C -5.722207 -2.526805 -2.322320 0
M  V30 35 C -5.703089 -3.436528 -3.467561 0
M  V30 36 C -6.948575 -3.354673 -2.614499 0
M  V30 37 C -4.678789 -1.578242 -0.212235 0
M  V30 38 H -2.722540 -0.798896 -2.764227 0
M  V30 39 H -3.897979 0.187821 -2.089187 0
M  V30 40 H -1.307171 -2.924208 0.081720 0
M  V30 41 H 0.586614 -2.057849 1.272806 0
M  V30 42 H 0.615435 2.165660 5.318299 0
M  V30 43 H 2.552184 2.932080 6.736796 0
M  V30 44 H 7.529281 1.299941 3.228062 0
M  V30 45 H 4.382833 0.426726 1.650876 0
M  V30 46 H 3.630883 -2.093519 0.958821 0
M  V30 47 H 3.852957 -3.350793 -1.123613 0
M  V30 48 H 2.864690 -2.423281 -3.245644 0
M  V30 49 H 1.684523 -0.257687 -3.198555 0
M  V30 50 H 1.483046 0.982516 -1.065101 0
M  V30 51 H -0.899043 1.906412 0.822152 0
M  V30 52 H -2.817028 1.053946 -0.380364 0
M  V30 53 H -3.160932 -3.633566 -0.357997 0
M  V30 54 H -3.205127 -3.341341 -2.204282 0
M  V30 55 H -6.545835 -3.566273 -0.120276 0
M  V30 56 H -5.881753 -1.449386 -2.521193 0
M  V30 57 H -5.730671 -2.979268 -4.498826 0
M  V30 58 H -5.217021 -4.421979 -3.459475 0
M  V30 59 H -7.200680 -4.212219 -1.954705 0
M  V30 60 H -7.831332 -2.892894 -3.106220 0
M  V30 61 H -5.369133 -0.742758 -0.397591 0
M  V30 62 H -4.562025 -1.861656 0.868381 0
M  V30 END ATOM
M  V30 BEGIN BOND
M  V30 1 1 2 1 CFG=3
M  V30 2 1 2 3
M  V30 3 2 3 4
M  V30 4 1 4 5
M  V30 5 2 5 6
M  V30 6 1 6 7
M  V30 7 2 7 8
M  V30 8 1 8 9
M  V30 9 1 9 10
M  V30 10 2 10 11
M  V30 11 1 11 12
M  V30 12 2 12 13
M  V30 13 1 13 14
M  V30 14 2 14 15
M  V30 15 1 15 16
M  V30 16 1 16 17
M  V30 17 1 16 18
M  V30 18 1 15 19
M  V30 19 1 19 20
M  V30 20 1 20 21
M  V30 21 2 21 22
M  V30 22 1 22 23
M  V30 23 2 23 24
M  V30 24 1 24 25
M  V30 25 2 25 26
M  V30 26 1 26 27
M  V30 27 2 27 28
M  V30 28 1 6 29
M  V30 29 2 29 30
M  V30 30 1 2 31
M  V30 31 1 31 32
M  V30 32 1 32 33 CFG=1
M  V30 33 1 32 34
M  V30 34 1 34 35
M  V30 35 1 35 36
M  V30 36 1 32 37
M  V30 37 1 37 2
M  V30 38 1 30 3
M  V30 39 1 36 34
M  V30 40 1 22 7
M  V30 41 1 28 23
M  V30 42 2 20 9
M  V30 43 1 19 12
M  V30 44 1 1 38
M  V30 45 1 1 39
M  V30 46 1 4 40
M  V30 47 1 5 41
M  V30 48 1 10 42
M  V30 49 1 11 43
M  V30 50 1 16 44
M  V30 51 1 21 45
M  V30 52 1 24 46
M  V30 53 1 25 47
M  V30 54 1 26 48
M  V30 55 1 27 49
M  V30 56 1 28 50
M  V30 57 1 29 51
M  V30 58 1 30 52
M  V30 59 1 31 53
M  V30 60 1 31 54
M  V30 61 1 33 55
M  V30 62 1 34 56
M  V30 63 1 35 57
M  V30 64 1 35 58
M  V30 65 1 36 59
M  V30 66 1 36 60
M  V30 67 1 37 61
M  V30 68 1 37 62
M  V30 END BOND
M  V30 END CTAB
M  END
>  <Dataset>  (684) 
ChEMBL_Kinases

>  <Ligand_Instance>  (684) 
nan

>  <PDB_ID>  (684) 
nan

>  <Standardized_SMILES>  (684) 
N[C@]1(c2ccc(-c3nc4ccc5nnc(C(F)F)n5c4cc3-c3ccccc3)cc2)C[C@](O)(C2CC2)C1

>  <Name>  (684) 
nan

>  <Pocket>  (684) 
nan

>  <ATP_Site>  (684) 
nan

>  <Peripheral>  (684) 
nan

>  <Num_H_Atoms_ProtBoundConf>  (684) 
nan

>  <Num_Resolved_Atoms>  (684) 
nan

>  <Num_Not_Resolved_Atoms>  (684) 
nan

$$$$
CHEMBL3679710
     RDKit          3D

  0  0  0  0  0  0  0  0  0  0999 V3000
M  V30 BEGIN CTAB
M  V30 COUNTS 37 41 0 0 0
M  V30 BEGIN ATOM
M  V30 1 C 3.565807 -4.636749 0.898282 0
M  V30 2 C 2.740419 -4.354343 -0.163520 0
M  V30 3 C 1.760616 -3.425861 0.109065 0
M  V30 4 C 1.523972 -2.757474 1.322612 0
M  V30 5 C 0.431825 -1.825272 1.481886 0
M  V30 6 N -0.487490 -2.226969 2.409370 0
M  V30 7 N -1.491804 -1.333621 2.458987 0
M  V30 8 C -1.222275 -0.363076 1.570025 0
M  V30 9 N -0.053650 -0.681515 0.995593 0
M  V30 10 C 0.660230 0.021021 0.003811 0
M  V30 11 C 1.991493 -0.285454 0.080205 0
M  V30 12 C 2.825574 0.281408 -0.861482 0
M  V30 13 C 2.272271 1.128841 -1.828105 0
M  V30 14 N 0.934408 1.419530 -1.875600 0
M  V30 15 C 0.124533 0.846862 -0.932049 0
M  V30 16 N -1.230287 1.321092 -1.089760 0
M  V30 17 C -2.086575 1.459404 0.069081 0
M  V30 18 C -3.000106 2.498086 -0.148424 0
M  V30 19 C -3.885600 2.775938 0.869352 0
M  V30 20 C -3.870299 2.060946 2.048642 0
M  V30 21 C -2.986336 1.032451 2.297012 0
M  V30 22 C -2.107598 0.759983 1.280007 0
M  V30 23 C 2.427521 -3.124071 2.336609 0
M  V30 24 C 3.429766 -4.046750 2.127704 0
M  V30 25 H 4.362174 -5.373729 0.722252 0
M  V30 26 H 2.784400 -4.773204 -1.150455 0
M  V30 27 H 1.064600 -3.147009 -0.681097 0
M  V30 28 H 2.552219 -0.859218 0.768493 0
M  V30 29 H 3.902497 0.148378 -0.952363 0
M  V30 30 H 2.869887 1.593539 -2.582725 0
M  V30 31 H -1.580650 1.576397 -2.029553 0
M  V30 32 H -2.954137 3.011968 -1.097739 0
M  V30 33 H -4.601482 3.573516 0.726595 0
M  V30 34 H -4.574734 2.277418 2.867202 0
M  V30 35 H -2.893048 0.418430 3.174093 0
M  V30 36 H 2.297204 -2.643095 3.296780 0
M  V30 37 H 4.102303 -4.304223 2.922187 0
M  V30 END ATOM
M  V30 BEGIN BOND
M  V30 1 2 1 2
M  V30 2 1 2 3
M  V30 3 2 3 4
M  V30 4 1 4 5
M  V30 5 2 5 6
M  V30 6 1 6 7
M  V30 7 2 7 8
M  V30 8 1 8 9
M  V30 9 1 9 10
M  V30 10 2 10 11
M  V30 11 1 11 12
M  V30 12 2 12 13
M  V30 13 1 13 14
M  V30 14 2 14 15
M  V30 15 1 15 16
M  V30 16 1 16 17
M  V30 17 2 17 18
M  V30 18 1 18 19
M  V30 19 2 19 20
M  V30 20 1 20 21
M  V30 21 2 21 22
M  V30 22 1 4 23
M  V30 23 2 23 24
M  V30 24 1 24 1
M  V30 25 1 9 5
M  V30 26 1 15 10
M  V30 27 1 22 17
M  V30 28 1 22 8
M  V30 29 1 1 25
M  V30 30 1 2 26
M  V30 31 1 3 27
M  V30 32 1 11 28
M  V30 33 1 12 29
M  V30 34 1 13 30
M  V30 35 1 16 31
M  V30 36 1 18 32
M  V30 37 1 19 33
M  V30 38 1 20 34
M  V30 39 1 21 35
M  V30 40 1 23 36
M  V30 41 1 24 37
M  V30 END BOND
M  V30 END CTAB
M  END
>  <Dataset>  (685) 
ChEMBL_Kinases

>  <Ligand_Instance>  (685) 
nan

>  <PDB_ID>  (685) 
nan

>  <Standardized_SMILES>  (685) 
c1ccc(-c2nnc3n2-c2cccnc2Nc2ccccc2-3)cc1

>  <Name>  (685) 
nan

>  <Pocket>  (685) 
nan

>  <ATP_Site>  (685) 
nan

>  <Peripheral>  (685) 
nan

>  <Num_H_Atoms_ProtBoundConf>  (685) 
nan

>  <Num_Resolved_Atoms>  (685) 
nan

>  <Num_Not_Resolved_Atoms>  (685) 
nan

$$$$
CHEMBL3679593
     RDKit          3D

  0  0  0  0  0  0  0  0  0  0999 V3000
M  V30 BEGIN CTAB
M  V30 COUNTS 45 49 0 0 0
M  V30 BEGIN ATOM
M  V30 1 O 1.509286 -4.200248 1.787854 0
M  V30 2 C 0.779564 -3.175729 1.772201 0
M  V30 3 C 1.287353 -1.951349 2.177440 0
M  V30 4 C 2.686386 -1.861710 2.629145 0
M  V30 5 N 3.633340 -1.899272 1.565186 0
M  V30 6 C 3.459911 -0.835999 0.644226 0
M  V30 7 N 2.825017 0.102767 0.389471 0
M  V30 8 C 2.958237 0.927200 -0.632194 0
M  V30 9 C 2.165767 2.043311 -0.891196 0
M  V30 10 C 2.433655 2.805148 -2.002116 0
M  V30 11 C 3.456033 2.559647 -2.924935 0
M  V30 12 C 4.221397 1.432183 -2.622749 0
M  V30 13 C 3.949232 0.673948 -1.510536 0
M  V30 14 S 4.666630 -0.767233 -0.822368 0
M  V30 15 C 0.415575 -0.867517 2.130012 0
M  V30 16 N -0.864811 -0.953755 1.719043 0
M  V30 17 C -1.624509 0.244707 1.731913 0
M  V30 18 C -2.613967 0.173587 2.721350 0
M  V30 19 C -3.495702 1.213739 2.947735 0
M  V30 20 C -3.361520 2.341985 2.149408 0
M  V30 21 C -2.382652 2.430524 1.159612 0
M  V30 22 C -1.535779 1.375322 0.975478 0
M  V30 23 C -1.362439 -2.139739 1.324786 0
M  V30 24 C -2.676712 -2.218427 0.905683 0
M  V30 25 C -3.164119 -3.454253 0.504920 0
M  V30 26 Cl -4.847397 -3.561162 -0.033519 0
M  V30 27 C -2.337425 -4.557899 0.533963 0
M  V30 28 C -1.030367 -4.486933 0.949430 0
M  V30 29 C -0.532919 -3.258247 1.351901 0
M  V30 30 H 2.786956 -0.880929 3.153443 0
M  V30 31 H 2.888641 -2.627437 3.427913 0
M  V30 32 H 4.363681 -2.635080 1.492039 0
M  V30 33 H 1.324026 2.407022 -0.300366 0
M  V30 34 H 1.843095 3.696452 -2.256711 0
M  V30 35 H 3.647161 3.171836 -3.789665 0
M  V30 36 H 5.050933 1.144217 -3.278013 0
M  V30 37 H 0.835055 0.069658 2.449230 0
M  V30 38 H -2.804418 -0.666950 3.403563 0
M  V30 39 H -4.272361 1.215779 3.688684 0
M  V30 40 H -4.006253 3.200809 2.256094 0
M  V30 41 H -2.257569 3.303729 0.522232 0
M  V30 42 H -0.741273 1.317861 0.249324 0
M  V30 43 H -3.303803 -1.336772 0.892746 0
M  V30 44 H -2.730824 -5.512021 0.219756 0
M  V30 45 H -0.411277 -5.375774 0.958732 0
M  V30 END ATOM
M  V30 BEGIN BOND
M  V30 1 2 1 2
M  V30 2 1 2 3
M  V30 3 1 3 4
M  V30 4 1 4 5
M  V30 5 1 5 6
M  V30 6 2 6 7
M  V30 7 1 7 8
M  V30 8 2 8 9
M  V30 9 1 9 10
M  V30 10 2 10 11
M  V30 11 1 11 12
M  V30 12 2 12 13
M  V30 13 1 13 14
M  V30 14 2 3 15
M  V30 15 1 15 16
M  V30 16 1 16 17
M  V30 17 2 17 18
M  V30 18 1 18 19
M  V30 19 2 19 20
M  V30 20 1 20 21
M  V30 21 2 21 22
M  V30 22 1 16 23
M  V30 23 2 23 24
M  V30 24 1 24 25
M  V30 25 1 25 26
M  V30 26 2 25 27
M  V30 27 1 27 28
M  V30 28 2 28 29
M  V30 29 1 29 2
M  V30 30 1 14 6
M  V30 31 1 22 17
M  V30 32 1 29 23
M  V30 33 1 13 8
M  V30 34 1 4 30
M  V30 35 1 4 31
M  V30 36 1 5 32
M  V30 37 1 9 33
M  V30 38 1 10 34
M  V30 39 1 11 35
M  V30 40 1 12 36
M  V30 41 1 15 37
M  V30 42 1 18 38
M  V30 43 1 19 39
M  V30 44 1 20 40
M  V30 45 1 21 41
M  V30 46 1 22 42
M  V30 47 1 24 43
M  V30 48 1 27 44
M  V30 49 1 28 45
M  V30 END BOND
M  V30 END CTAB
M  END
>  <Dataset>  (686) 
ChEMBL_Kinases

>  <Ligand_Instance>  (686) 
nan

>  <PDB_ID>  (686) 
nan

>  <Standardized_SMILES>  (686) 
O=c1c(CNc2nc3ccccc3s2)cn(-c2ccccc2)c2cc(Cl)ccc12

>  <Name>  (686) 
nan

>  <Pocket>  (686) 
nan

>  <ATP_Site>  (686) 
nan

>  <Peripheral>  (686) 
nan

>  <Num_H_Atoms_ProtBoundConf>  (686) 
nan

>  <Num_Resolved_Atoms>  (686) 
nan

>  <Num_Not_Resolved_Atoms>  (686) 
nan

$$$$
CHEMBL3679518
     RDKit          3D

  0  0  0  0  0  0  0  0  0  0999 V3000
M  V30 BEGIN CTAB
M  V30 COUNTS 74 80 0 0 0
M  V30 BEGIN ATOM
M  V30 1 O 3.880453 -0.881780 3.172265 0
M  V30 2 C 2.790749 -0.765744 2.551748 0
M  V30 3 N 2.143268 0.482007 2.734592 0
M  V30 4 C 2.651218 1.565752 3.555794 0
M  V30 5 C 1.746785 2.736086 3.536084 0
M  V30 6 C 2.097745 3.835892 2.776503 0
M  V30 7 N 1.326382 4.956969 2.694852 0
M  V30 8 C 1.710953 6.075369 1.907623 0
M  V30 9 C 1.801907 6.000943 0.524294 0
M  V30 10 C 2.178265 7.105735 -0.214301 0
M  V30 11 C 2.479320 8.319038 0.358460 0
M  V30 12 C 2.385871 8.381278 1.732692 0
M  V30 13 C 2.013338 7.294810 2.488411 0
M  V30 14 C 0.160000 4.977658 3.399988 0
M  V30 15 C -0.643312 6.091664 3.340338 0
M  V30 16 C -1.832013 6.160869 4.034180 0
M  V30 17 Cl -2.868504 7.589831 3.957764 0
M  V30 18 C -2.236931 5.105113 4.805300 0
M  V30 19 C -1.427761 3.971007 4.871263 0
M  V30 20 C -0.227287 3.903746 4.168970 0
M  V30 21 C 0.566723 2.754413 4.250872 0
M  V30 22 O 0.210548 1.776282 4.954691 0
M  V30 23 C 2.253639 -1.834171 1.719531 0
M  V30 24 C 1.063194 -1.741404 1.026902 0
M  V30 25 C 0.590161 -2.777715 0.247633 0
M  V30 26 C 1.291752 -3.967641 0.122686 0
M  V30 27 C 0.895708 -5.125341 -0.668661 0
M  V30 28 O 1.570146 -6.194065 -0.746020 0
M  V30 29 N -0.303671 -5.144064 -1.430737 0
M  V30 30 C -0.928249 -6.109144 -2.274910 0
M  V30 31 C -2.329756 -6.420423 -1.806111 0
M  V30 32 C -3.208815 -5.213109 -1.896728 0
M  V30 33 C -3.207505 -4.648811 -3.300992 0
M  V30 34 C -1.804951 -4.396773 -3.794819 0
M  V30 35 C -1.000145 -5.646379 -3.693695 0
M  V30 36 C -1.656278 -6.685576 -4.580109 0
M  V30 37 C -3.042988 -6.949049 -4.087829 0
M  V30 38 O -3.680445 -7.913723 -4.866805 0
M  V30 39 C -3.870146 -5.697488 -4.169068 0
M  V30 40 C -2.947057 -7.487380 -2.684923 0
M  V30 41 C 2.484346 -4.074407 0.810233 0
M  V30 42 C 2.945677 -3.018976 1.591072 0
M  V30 43 H 1.237637 0.646754 2.250208 0
M  V30 44 H 3.642751 1.846701 3.160484 0
M  V30 45 H 2.786138 1.164730 4.588103 0
M  V30 46 H 3.017454 3.844818 2.210571 0
M  V30 47 H 1.578089 5.071020 0.000988 0
M  V30 48 H 2.255121 7.068552 -1.300419 0
M  V30 49 H 2.769766 9.160811 -0.246312 0
M  V30 50 H 2.622197 9.336940 2.195132 0
M  V30 51 H 1.965992 7.435434 3.561937 0
M  V30 52 H -0.412122 6.973914 2.761149 0
M  V30 53 H -3.176284 5.179586 5.343795 0
M  V30 54 H -1.777686 3.157034 5.488391 0
M  V30 55 H 0.475238 -0.836747 1.088225 0
M  V30 56 H -0.341533 -2.708755 -0.295801 0
M  V30 57 H -0.910530 -4.297327 -1.409724 0
M  V30 58 H -0.342198 -7.056416 -2.280191 0
M  V30 59 H -2.257645 -6.787470 -0.781170 0
M  V30 60 H -4.247344 -5.562424 -1.673086 0
M  V30 61 H -2.942805 -4.387403 -1.219655 0
M  V30 62 H -3.748209 -3.689394 -3.266640 0
M  V30 63 H -1.918348 -4.043162 -4.850528 0
M  V30 64 H -1.366858 -3.561438 -3.228609 0
M  V30 65 H 0.004654 -5.444100 -4.136488 0
M  V30 66 H -1.719297 -6.286870 -5.601212 0
M  V30 67 H -1.106022 -7.667370 -4.559759 0
M  V30 68 H -4.017149 -7.422038 -5.673097 0
M  V30 69 H -4.900322 -5.830866 -3.803112 0
M  V30 70 H -3.831161 -5.327511 -5.196008 0
M  V30 71 H -2.213276 -8.326878 -2.722742 0
M  V30 72 H -3.906002 -7.796350 -2.246201 0
M  V30 73 H 3.112766 -4.961947 0.782788 0
M  V30 74 H 3.880867 -3.098333 2.131414 0
M  V30 END ATOM
M  V30 BEGIN BOND
M  V30 1 2 1 2
M  V30 2 1 2 3
M  V30 3 1 3 4
M  V30 4 1 4 5
M  V30 5 2 5 6
M  V30 6 1 6 7
M  V30 7 1 7 8
M  V30 8 2 8 9
M  V30 9 1 9 10
M  V30 10 2 10 11
M  V30 11 1 11 12
M  V30 12 2 12 13
M  V30 13 1 7 14
M  V30 14 2 14 15
M  V30 15 1 15 16
M  V30 16 1 16 17
M  V30 17 2 16 18
M  V30 18 1 18 19
M  V30 19 2 19 20
M  V30 20 1 20 21
M  V30 21 2 21 22
M  V30 22 1 2 23
M  V30 23 2 23 24
M  V30 24 1 24 25
M  V30 25 2 25 26
M  V30 26 1 26 27
M  V30 27 2 27 28
M  V30 28 1 27 29
M  V30 29 1 29 30
M  V30 30 1 30 31
M  V30 31 1 31 32
M  V30 32 1 32 33
M  V30 33 1 33 34
M  V30 34 1 34 35
M  V30 35 1 35 36
M  V30 36 1 36 37
M  V30 37 1 37 38
M  V30 38 1 37 39
M  V30 39 1 37 40
M  V30 40 1 26 41
M  V30 41 2 41 42
M  V30 42 1 21 5
M  V30 43 1 42 23
M  V30 44 1 13 8
M  V30 45 1 20 14
M  V30 46 1 35 30
M  V30 47 1 40 31
M  V30 48 1 39 33
M  V30 49 1 3 43
M  V30 50 1 4 44
M  V30 51 1 4 45
M  V30 52 1 6 46
M  V30 53 1 9 47
M  V30 54 1 10 48
M  V30 55 1 11 49
M  V30 56 1 12 50
M  V30 57 1 13 51
M  V30 58 1 15 52
M  V30 59 1 18 53
M  V30 60 1 19 54
M  V30 61 1 24 55
M  V30 62 1 25 56
M  V30 63 1 29 57
M  V30 64 1 30 58
M  V30 65 1 31 59
M  V30 66 1 32 60
M  V30 67 1 32 61
M  V30 68 1 33 62
M  V30 69 1 34 63
M  V30 70 1 34 64
M  V30 71 1 35 65
M  V30 72 1 36 66
M  V30 73 1 36 67
M  V30 74 1 38 68
M  V30 75 1 39 69
M  V30 76 1 39 70
M  V30 77 1 40 71
M  V30 78 1 40 72
M  V30 79 1 41 73
M  V30 80 1 42 74
M  V30 END BOND
M  V30 END CTAB
M  END
>  <Dataset>  (687) 
ChEMBL_Kinases

>  <Ligand_Instance>  (687) 
nan

>  <PDB_ID>  (687) 
nan

>  <Standardized_SMILES>  (687) 
O=C(NCc1cn(-c2ccccc2)c2cc(Cl)ccc2c1=O)c1ccc(C(=O)NC2C3CC4CC2CC(O)(C4)C3)cc1

>  <Name>  (687) 
nan

>  <Pocket>  (687) 
nan

>  <ATP_Site>  (687) 
nan

>  <Peripheral>  (687) 
nan

>  <Num_H_Atoms_ProtBoundConf>  (687) 
nan

>  <Num_Resolved_Atoms>  (687) 
nan

>  <Num_Not_Resolved_Atoms>  (687) 
nan

$$$$
CHEMBL3679517
     RDKit          3D

  0  0  0  0  0  0  0  0  0  0999 V3000
M  V30 BEGIN CTAB
M  V30 COUNTS 62 65 0 0 0
M  V30 BEGIN ATOM
M  V30 1 C 7.647972 0.229957 5.847496 0
M  V30 2 C 6.800339 0.294812 4.558059 0
M  V30 3 C 7.812241 0.473577 3.459620 0
M  V30 4 O 6.192185 -0.954426 4.530466 0
M  V30 5 C 5.905545 1.450390 4.760672 0
M  V30 6 N 4.861762 1.689957 3.817325 0
M  V30 7 C 3.793240 0.828811 3.500064 0
M  V30 8 O 3.715728 -0.276717 4.093221 0
M  V30 9 C 2.734669 1.085466 2.530088 0
M  V30 10 C 1.762597 0.107943 2.358107 0
M  V30 11 C 0.721552 0.298776 1.436744 0
M  V30 12 C 0.621559 1.444372 0.676887 0
M  V30 13 C -0.445197 1.670293 -0.291633 0
M  V30 14 O -0.567133 2.697674 -0.984978 0
M  V30 15 N -1.478687 0.709464 -0.544595 0
M  V30 16 C -2.486206 1.068787 -1.545972 0
M  V30 17 C -3.428637 -0.107957 -1.598154 0
M  V30 18 C -3.400927 -1.034378 -2.602420 0
M  V30 19 N -4.301514 -2.051797 -2.516321 0
M  V30 20 C -4.308794 -3.052881 -3.541553 0
M  V30 21 C -3.122214 -3.766850 -3.531942 0
M  V30 22 C -2.917663 -4.788722 -4.443952 0
M  V30 23 C -3.908071 -5.071682 -5.345440 0
M  V30 24 C -5.107492 -4.367371 -5.372927 0
M  V30 25 C -5.280253 -3.363507 -4.459588 0
M  V30 26 C -5.181851 -2.154011 -1.499790 0
M  V30 27 C -6.074868 -3.206096 -1.457821 0
M  V30 28 C -6.999731 -3.347740 -0.423678 0
M  V30 29 Cl -8.112027 -4.674535 -0.389292 0
M  V30 30 C -7.029737 -2.400703 0.604520 0
M  V30 31 C -6.136766 -1.325989 0.586325 0
M  V30 32 C -5.232952 -1.225608 -0.464208 0
M  V30 33 C -4.322604 -0.172133 -0.524430 0
M  V30 34 O -4.345583 0.684401 0.400317 0
M  V30 35 C 1.585459 2.418908 0.844360 0
M  V30 36 C 2.605020 2.219071 1.754406 0
M  V30 37 H 8.163893 -0.745763 5.934939 0
M  V30 38 H 6.880863 0.276994 6.659795 0
M  V30 39 H 8.296440 1.097888 5.953645 0
M  V30 40 H 8.616674 1.132762 3.837609 0
M  V30 41 H 7.418238 0.921998 2.529722 0
M  V30 42 H 8.253703 -0.522349 3.244460 0
M  V30 43 H 5.912091 -1.167767 5.455044 0
M  V30 44 H 6.557767 2.357283 4.813057 0
M  V30 45 H 5.513983 1.366792 5.818945 0
M  V30 46 H 4.824892 2.595733 3.257110 0
M  V30 47 H 1.742016 -0.842879 2.908930 0
M  V30 48 H -0.011265 -0.482431 1.334573 0
M  V30 49 H -1.485826 -0.202167 -0.018781 0
M  V30 50 H -2.033927 1.237116 -2.547069 0
M  V30 51 H -3.075280 1.947574 -1.216123 0
M  V30 52 H -2.687382 -0.938211 -3.414136 0
M  V30 53 H -2.280880 -3.621830 -2.863656 0
M  V30 54 H -2.024710 -5.391815 -4.502800 0
M  V30 55 H -3.793065 -5.861575 -6.076673 0
M  V30 56 H -5.933874 -4.535926 -6.056632 0
M  V30 57 H -6.161258 -2.715658 -4.346902 0
M  V30 58 H -6.108716 -3.974823 -2.216877 0
M  V30 59 H -7.759314 -2.518319 1.414912 0
M  V30 60 H -6.161942 -0.603573 1.373774 0
M  V30 61 H 1.592854 3.345925 0.298685 0
M  V30 62 H 3.371880 2.993223 1.888173 0
M  V30 END ATOM
M  V30 BEGIN BOND
M  V30 1 1 1 2
M  V30 2 1 2 3
M  V30 3 1 2 4
M  V30 4 1 2 5
M  V30 5 1 5 6
M  V30 6 1 6 7
M  V30 7 2 7 8
M  V30 8 1 7 9
M  V30 9 2 9 10
M  V30 10 1 10 11
M  V30 11 2 11 12
M  V30 12 1 12 13
M  V30 13 2 13 14
M  V30 14 1 13 15
M  V30 15 1 15 16
M  V30 16 1 16 17
M  V30 17 2 17 18
M  V30 18 1 18 19
M  V30 19 1 19 20
M  V30 20 2 20 21
M  V30 21 1 21 22
M  V30 22 2 22 23
M  V30 23 1 23 24
M  V30 24 2 24 25
M  V30 25 1 19 26
M  V30 26 2 26 27
M  V30 27 1 27 28
M  V30 28 1 28 29
M  V30 29 2 28 30
M  V30 30 1 30 31
M  V30 31 2 31 32
M  V30 32 1 32 33
M  V30 33 2 33 34
M  V30 34 1 12 35
M  V30 35 2 35 36
M  V30 36 1 36 9
M  V30 37 1 33 17
M  V30 38 1 25 20
M  V30 39 1 32 26
M  V30 40 1 1 37
M  V30 41 1 1 38
M  V30 42 1 1 39
M  V30 43 1 3 40
M  V30 44 1 3 41
M  V30 45 1 3 42
M  V30 46 1 4 43
M  V30 47 1 5 44
M  V30 48 1 5 45
M  V30 49 1 6 46
M  V30 50 1 10 47
M  V30 51 1 11 48
M  V30 52 1 15 49
M  V30 53 1 16 50
M  V30 54 1 16 51
M  V30 55 1 18 52
M  V30 56 1 21 53
M  V30 57 1 22 54
M  V30 58 1 23 55
M  V30 59 1 24 56
M  V30 60 1 25 57
M  V30 61 1 27 58
M  V30 62 1 30 59
M  V30 63 1 31 60
M  V30 64 1 35 61
M  V30 65 1 36 62
M  V30 END BOND
M  V30 END CTAB
M  END
>  <Dataset>  (688) 
ChEMBL_Kinases

>  <Ligand_Instance>  (688) 
nan

>  <PDB_ID>  (688) 
nan

>  <Standardized_SMILES>  (688) 
CC(C)(O)CNC(=O)c1ccc(C(=O)NCc2cn(-c3ccccc3)c3cc(Cl)ccc3c2=O)cc1

>  <Name>  (688) 
nan

>  <Pocket>  (688) 
nan

>  <ATP_Site>  (688) 
nan

>  <Peripheral>  (688) 
nan

>  <Num_H_Atoms_ProtBoundConf>  (688) 
nan

>  <Num_Resolved_Atoms>  (688) 
nan

>  <Num_Not_Resolved_Atoms>  (688) 
nan

$$$$
CHEMBL3679516
     RDKit          3D

  0  0  0  0  0  0  0  0  0  0999 V3000
M  V30 BEGIN CTAB
M  V30 COUNTS 56 60 0 0 0
M  V30 BEGIN ATOM
M  V30 1 O 1.558930 -1.320964 0.558060 0
M  V30 2 C 1.078162 -2.337996 1.050765 0
M  V30 3 N 1.168584 -2.798769 2.379370 0
M  V30 4 C 1.914663 -2.026321 3.366378 0
M  V30 5 C 1.270097 -0.689725 3.451591 0
M  V30 6 C 1.867014 0.431772 2.877219 0
M  V30 7 N 1.342179 1.686172 2.918577 0
M  V30 8 C 2.095176 2.732767 2.270284 0
M  V30 9 C 2.742427 3.787391 2.880545 0
M  V30 10 C 3.419290 4.697547 2.089789 0
M  V30 11 C 3.442807 4.545658 0.702332 0
M  V30 12 C 2.791638 3.482323 0.070479 0
M  V30 13 C 2.127765 2.595760 0.891155 0
M  V30 14 C 0.172186 1.898052 3.545919 0
M  V30 15 C -0.348374 3.173370 3.581124 0
M  V30 16 C -1.548559 3.419934 4.219315 0
M  V30 17 Cl -2.243448 5.026364 4.286294 0
M  V30 18 C -2.175867 2.328565 4.805128 0
M  V30 19 C -1.652903 1.063294 4.766379 0
M  V30 20 C -0.459366 0.810616 4.133279 0
M  V30 21 C 0.071606 -0.461362 4.091862 0
M  V30 22 O -0.523187 -1.424569 4.632443 0
M  V30 23 C 0.299411 -3.203432 0.142213 0
M  V30 24 C -0.415005 -4.383645 0.142068 0
M  V30 25 N -0.961627 -4.767628 -0.987475 0
M  V30 26 C -0.930185 -4.237692 -2.027598 0
M  V30 27 N -1.364348 -4.332746 -3.387560 0
M  V30 28 C -1.090726 -3.378280 -4.444114 0
M  V30 29 C -2.272025 -2.408786 -4.431424 0
M  V30 30 S -3.720049 -3.449552 -4.613330 0
M  V30 31 O -4.371724 -3.068498 -5.914186 0
M  V30 32 O -4.663366 -3.190747 -3.480399 0
M  V30 33 C -3.240456 -5.156142 -4.711167 0
M  V30 34 C -2.137973 -5.481390 -3.724239 0
M  V30 35 S 0.111988 -2.697710 -1.631571 0
M  V30 36 H 0.700326 -3.705802 2.681623 0
M  V30 37 H 1.889104 -2.557044 4.322495 0
M  V30 38 H 2.966169 -1.874740 3.032636 0
M  V30 39 H 2.828227 0.296688 2.357961 0
M  V30 40 H 2.661783 3.809534 3.942781 0
M  V30 41 H 3.916018 5.509336 2.576312 0
M  V30 42 H 3.975655 5.262614 0.085792 0
M  V30 43 H 2.841174 3.410763 -1.009135 0
M  V30 44 H 1.636807 1.785426 0.351452 0
M  V30 45 H 0.169397 4.016285 3.109335 0
M  V30 46 H -3.119603 2.569546 5.297219 0
M  V30 47 H -2.190074 0.260389 5.240850 0
M  V30 48 H -0.434215 -4.867322 1.125405 0
M  V30 49 H -1.006263 -3.878243 -5.416622 0
M  V30 50 H -0.199116 -2.808346 -4.152929 0
M  V30 51 H -2.255666 -1.941306 -3.419313 0
M  V30 52 H -2.205911 -1.628640 -5.189974 0
M  V30 53 H -2.863083 -5.336780 -5.747290 0
M  V30 54 H -4.114707 -5.769988 -4.476714 0
M  V30 55 H -2.502793 -6.029707 -2.852517 0
M  V30 56 H -1.424458 -6.192155 -4.236029 0
M  V30 END ATOM
M  V30 BEGIN BOND
M  V30 1 2 1 2
M  V30 2 1 2 3
M  V30 3 1 3 4
M  V30 4 1 4 5
M  V30 5 2 5 6
M  V30 6 1 6 7
M  V30 7 1 7 8
M  V30 8 2 8 9
M  V30 9 1 9 10
M  V30 10 2 10 11
M  V30 11 1 11 12
M  V30 12 2 12 13
M  V30 13 1 7 14
M  V30 14 2 14 15
M  V30 15 1 15 16
M  V30 16 1 16 17
M  V30 17 2 16 18
M  V30 18 1 18 19
M  V30 19 2 19 20
M  V30 20 1 20 21
M  V30 21 2 21 22
M  V30 22 1 2 23
M  V30 23 2 23 24
M  V30 24 1 24 25
M  V30 25 2 25 26
M  V30 26 1 26 27
M  V30 27 1 27 28
M  V30 28 1 28 29
M  V30 29 1 29 30
M  V30 30 2 30 31
M  V30 31 2 30 32
M  V30 32 1 30 33
M  V30 33 1 33 34
M  V30 34 1 26 35
M  V30 35 1 21 5
M  V30 36 1 35 23
M  V30 37 1 13 8
M  V30 38 1 20 14
M  V30 39 1 34 27
M  V30 40 1 3 36
M  V30 41 1 4 37
M  V30 42 1 4 38
M  V30 43 1 6 39
M  V30 44 1 9 40
M  V30 45 1 10 41
M  V30 46 1 11 42
M  V30 47 1 12 43
M  V30 48 1 13 44
M  V30 49 1 15 45
M  V30 50 1 18 46
M  V30 51 1 19 47
M  V30 52 1 24 48
M  V30 53 1 28 49
M  V30 54 1 28 50
M  V30 55 1 29 51
M  V30 56 1 29 52
M  V30 57 1 33 53
M  V30 58 1 33 54
M  V30 59 1 34 55
M  V30 60 1 34 56
M  V30 END BOND
M  V30 END CTAB
M  END
>  <Dataset>  (689) 
ChEMBL_Kinases

>  <Ligand_Instance>  (689) 
nan

>  <PDB_ID>  (689) 
nan

>  <Standardized_SMILES>  (689) 
O=C(NCc1cn(-c2ccccc2)c2cc(Cl)ccc2c1=O)c1cnc(N2CCS(=O)(=O)CC2)s1

>  <Name>  (689) 
nan

>  <Pocket>  (689) 
nan

>  <ATP_Site>  (689) 
nan

>  <Peripheral>  (689) 
nan

>  <Num_H_Atoms_ProtBoundConf>  (689) 
nan

>  <Num_Resolved_Atoms>  (689) 
nan

>  <Num_Not_Resolved_Atoms>  (689) 
nan

$$$$
CHEMBL3679515
     RDKit          3D

  0  0  0  0  0  0  0  0  0  0999 V3000
M  V30 BEGIN CTAB
M  V30 COUNTS 54 58 0 0 0
M  V30 BEGIN ATOM
M  V30 1 O -1.817132 -2.131553 2.009223 0
M  V30 2 C -0.906408 -2.588995 1.325444 0
M  V30 3 N 0.361479 -2.624666 1.922989 0
M  V30 4 C 1.060868 -2.299566 3.134601 0
M  V30 5 C 0.991626 -0.845078 3.390410 0
M  V30 6 C 2.084494 -0.110126 2.920145 0
M  V30 7 N 2.250755 1.233045 2.996743 0
M  V30 8 C 3.394638 1.887808 2.483859 0
M  V30 9 C 3.441024 1.726895 1.094277 0
M  V30 10 C 4.463648 2.269094 0.319217 0
M  V30 11 C 5.457652 2.988676 0.970430 0
M  V30 12 C 5.414174 3.149077 2.342891 0
M  V30 13 C 4.394211 2.606685 3.104724 0
M  V30 14 C 1.292152 1.962846 3.574863 0
M  V30 15 C 1.412504 3.330593 3.677344 0
M  V30 16 C 0.424109 4.082302 4.273453 0
M  V30 17 Cl 0.406791 5.808234 4.489348 0
M  V30 18 C -0.693778 3.415739 4.765667 0
M  V30 19 C -0.819098 2.028522 4.663270 0
M  V30 20 C 0.190777 1.318901 4.061297 0
M  V30 21 C 0.038078 -0.045396 3.975806 0
M  V30 22 O -0.957836 -0.626216 4.420734 0
M  V30 23 C -1.155833 -3.067170 -0.043427 0
M  V30 24 C -0.636936 -3.613576 -1.161695 0
M  V30 25 N -1.466001 -3.825364 -2.156960 0
M  V30 26 C -2.594863 -3.624085 -2.256389 0
M  V30 27 N -3.387174 -3.917970 -3.438507 0
M  V30 28 C -3.434663 -2.844911 -4.432242 0
M  V30 29 C -3.575004 -3.534725 -5.773944 0
M  V30 30 O -4.794155 -4.171685 -5.857359 0
M  V30 31 C -5.238807 -4.718043 -4.676711 0
M  V30 32 C -4.122750 -5.132620 -3.734922 0
M  V30 33 S -2.948059 -2.870068 -0.516138 0
M  V30 34 H 1.063247 -3.043952 1.222998 0
M  V30 35 H 0.460263 -2.781213 3.962940 0
M  V30 36 H 2.095490 -2.628353 3.149508 0
M  V30 37 H 2.923142 -0.609489 2.430687 0
M  V30 38 H 2.728950 1.188200 0.460599 0
M  V30 39 H 4.552706 2.181095 -0.742509 0
M  V30 40 H 6.276429 3.432327 0.419662 0
M  V30 41 H 6.163401 3.702029 2.911522 0
M  V30 42 H 4.243963 2.656559 4.162329 0
M  V30 43 H 2.251202 3.877751 3.313810 0
M  V30 44 H -1.545262 3.898972 5.259912 0
M  V30 45 H -1.696948 1.503612 5.049046 0
M  V30 46 H 0.426401 -3.763609 -0.967795 0
M  V30 47 H -4.234515 -2.139358 -4.203747 0
M  V30 48 H -2.428444 -2.334293 -4.431273 0
M  V30 49 H -3.436857 -2.759481 -6.545792 0
M  V30 50 H -2.765277 -4.293299 -5.813712 0
M  V30 51 H -5.941056 -5.544496 -4.905310 0
M  V30 52 H -5.801035 -3.907010 -4.136043 0
M  V30 53 H -4.583926 -5.561701 -2.837941 0
M  V30 54 H -3.391396 -5.814352 -4.218634 0
M  V30 END ATOM
M  V30 BEGIN BOND
M  V30 1 2 1 2
M  V30 2 1 2 3
M  V30 3 1 3 4
M  V30 4 1 4 5
M  V30 5 2 5 6
M  V30 6 1 6 7
M  V30 7 1 7 8
M  V30 8 2 8 9
M  V30 9 1 9 10
M  V30 10 2 10 11
M  V30 11 1 11 12
M  V30 12 2 12 13
M  V30 13 1 7 14
M  V30 14 2 14 15
M  V30 15 1 15 16
M  V30 16 1 16 17
M  V30 17 2 16 18
M  V30 18 1 18 19
M  V30 19 2 19 20
M  V30 20 1 20 21
M  V30 21 2 21 22
M  V30 22 1 2 23
M  V30 23 2 23 24
M  V30 24 1 24 25
M  V30 25 2 25 26
M  V30 26 1 26 27
M  V30 27 1 27 28
M  V30 28 1 28 29
M  V30 29 1 29 30
M  V30 30 1 30 31
M  V30 31 1 31 32
M  V30 32 1 26 33
M  V30 33 1 21 5
M  V30 34 1 33 23
M  V30 35 1 13 8
M  V30 36 1 20 14
M  V30 37 1 32 27
M  V30 38 1 3 34
M  V30 39 1 4 35
M  V30 40 1 4 36
M  V30 41 1 6 37
M  V30 42 1 9 38
M  V30 43 1 10 39
M  V30 44 1 11 40
M  V30 45 1 12 41
M  V30 46 1 13 42
M  V30 47 1 15 43
M  V30 48 1 18 44
M  V30 49 1 19 45
M  V30 50 1 24 46
M  V30 51 1 28 47
M  V30 52 1 28 48
M  V30 53 1 29 49
M  V30 54 1 29 50
M  V30 55 1 31 51
M  V30 56 1 31 52
M  V30 57 1 32 53
M  V30 58 1 32 54
M  V30 END BOND
M  V30 END CTAB
M  END
>  <Dataset>  (690) 
ChEMBL_Kinases

>  <Ligand_Instance>  (690) 
nan

>  <PDB_ID>  (690) 
nan

>  <Standardized_SMILES>  (690) 
O=C(NCc1cn(-c2ccccc2)c2cc(Cl)ccc2c1=O)c1cnc(N2CCOCC2)s1

>  <Name>  (690) 
nan

>  <Pocket>  (690) 
nan

>  <ATP_Site>  (690) 
nan

>  <Peripheral>  (690) 
nan

>  <Num_H_Atoms_ProtBoundConf>  (690) 
nan

>  <Num_Resolved_Atoms>  (690) 
nan

>  <Num_Not_Resolved_Atoms>  (690) 
nan

$$$$
CHEMBL3679514
     RDKit          3D

  0  0  0  0  0  0  0  0  0  0999 V3000
M  V30 BEGIN CTAB
M  V30 COUNTS 58 62 0 0 0
M  V30 BEGIN ATOM
M  V30 1 C 3.045963 -2.925884 3.399244 0
M  V30 2 N 3.765533 -1.857823 2.781071 0
M  V30 3 C 3.944868 -0.781379 3.727225 0
M  V30 4 C 5.044460 0.188763 3.324373 0
M  V30 5 N 5.177203 0.084182 1.887547 0
M  V30 6 C 4.820282 1.091664 0.859969 0
M  V30 7 N 4.883287 1.970768 0.152833 0
M  V30 8 C 4.030031 2.455034 -0.704891 0
M  V30 9 C 2.845529 1.829336 -0.802387 0
M  V30 10 C 1.638864 2.103753 -1.669457 0
M  V30 11 O 1.482797 3.016126 -2.518020 0
M  V30 12 N 0.543267 1.213515 -1.500584 0
M  V30 13 C -0.682065 1.370623 -2.274680 0
M  V30 14 C -1.609066 0.267628 -1.856994 0
M  V30 15 C -2.672511 0.474131 -1.006076 0
M  V30 16 N -3.472971 -0.556528 -0.657134 0
M  V30 17 C -4.548751 -0.264340 0.226232 0
M  V30 18 C -5.811938 -0.282872 -0.328015 0
M  V30 19 C -6.967840 -0.023670 0.377809 0
M  V30 20 C -6.851793 0.276364 1.738502 0
M  V30 21 C -5.581443 0.293848 2.290885 0
M  V30 22 C -4.433005 0.032587 1.573873 0
M  V30 23 C -3.235708 -1.788531 -1.138761 0
M  V30 24 C -4.078924 -2.833114 -0.762459 0
M  V30 25 C -3.870613 -4.101665 -1.232334 0
M  V30 26 Cl -4.916560 -5.422896 -0.771886 0
M  V30 27 C -2.830390 -4.386171 -2.084977 0
M  V30 28 C -1.964635 -3.369184 -2.485229 0
M  V30 29 C -2.201051 -2.092470 -1.992184 0
M  V30 30 C -1.381324 -1.012752 -2.343356 0
M  V30 31 O -0.432555 -1.247502 -3.115402 0
M  V30 32 S 3.060829 0.537953 0.398655 0
M  V30 33 C 5.731828 -1.216293 1.468311 0
M  V30 34 C 5.012285 -2.317376 2.199381 0
M  V30 35 H 2.153964 -3.251286 2.832407 0
M  V30 36 H 3.729540 -3.781332 3.538523 0
M  V30 37 H 2.685910 -2.651057 4.426939 0
M  V30 38 H 2.958285 -0.246513 3.772519 0
M  V30 39 H 4.113018 -1.172483 4.755906 0
M  V30 40 H 5.994050 -0.157527 3.783164 0
M  V30 41 H 4.722653 1.197572 3.668507 0
M  V30 42 H 4.295913 3.334037 -1.303815 0
M  V30 43 H 0.639759 0.425138 -0.793156 0
M  V30 44 H -1.142319 2.314352 -1.911631 0
M  V30 45 H -0.541849 1.336495 -3.352592 0
M  V30 46 H -2.856037 1.447505 -0.628488 0
M  V30 47 H -5.977171 -0.504993 -1.362367 0
M  V30 48 H -7.957304 -0.040737 -0.067250 0
M  V30 49 H -7.743729 0.483683 2.316168 0
M  V30 50 H -5.491981 0.529537 3.359406 0
M  V30 51 H -3.437449 0.040908 1.984456 0
M  V30 52 H -4.893346 -2.630362 -0.099144 0
M  V30 53 H -2.588733 -5.367535 -2.510189 0
M  V30 54 H -1.127180 -3.558148 -3.162334 0
M  V30 55 H 6.800631 -1.309888 1.660458 0
M  V30 56 H 5.484893 -1.325494 0.378382 0
M  V30 57 H 5.679133 -2.762209 2.968097 0
M  V30 58 H 4.760073 -3.113335 1.472214 0
M  V30 END ATOM
M  V30 BEGIN BOND
M  V30 1 1 1 2
M  V30 2 1 2 3
M  V30 3 1 3 4
M  V30 4 1 4 5
M  V30 5 1 5 6
M  V30 6 2 6 7
M  V30 7 1 7 8
M  V30 8 2 8 9
M  V30 9 1 9 10
M  V30 10 2 10 11
M  V30 11 1 10 12
M  V30 12 1 12 13
M  V30 13 1 13 14
M  V30 14 2 14 15
M  V30 15 1 15 16
M  V30 16 1 16 17
M  V30 17 2 17 18
M  V30 18 1 18 19
M  V30 19 2 19 20
M  V30 20 1 20 21
M  V30 21 2 21 22
M  V30 22 1 16 23
M  V30 23 2 23 24
M  V30 24 1 24 25
M  V30 25 1 25 26
M  V30 26 2 25 27
M  V30 27 1 27 28
M  V30 28 2 28 29
M  V30 29 1 29 30
M  V30 30 2 30 31
M  V30 31 1 9 32
M  V30 32 1 5 33
M  V30 33 1 33 34
M  V30 34 1 34 2
M  V30 35 1 32 6
M  V30 36 1 30 14
M  V30 37 1 22 17
M  V30 38 1 29 23
M  V30 39 1 1 35
M  V30 40 1 1 36
M  V30 41 1 1 37
M  V30 42 1 3 38
M  V30 43 1 3 39
M  V30 44 1 4 40
M  V30 45 1 4 41
M  V30 46 1 8 42
M  V30 47 1 12 43
M  V30 48 1 13 44
M  V30 49 1 13 45
M  V30 50 1 15 46
M  V30 51 1 18 47
M  V30 52 1 19 48
M  V30 53 1 20 49
M  V30 54 1 21 50
M  V30 55 1 22 51
M  V30 56 1 24 52
M  V30 57 1 27 53
M  V30 58 1 28 54
M  V30 59 1 33 55
M  V30 60 1 33 56
M  V30 61 1 34 57
M  V30 62 1 34 58
M  V30 END BOND
M  V30 END CTAB
M  END
>  <Dataset>  (691) 
ChEMBL_Kinases

>  <Ligand_Instance>  (691) 
nan

>  <PDB_ID>  (691) 
nan

>  <Standardized_SMILES>  (691) 
CN1CCN(c2ncc(C(=O)NCc3cn(-c4ccccc4)c4cc(Cl)ccc4c3=O)s2)CC1

>  <Name>  (691) 
nan

>  <Pocket>  (691) 
nan

>  <ATP_Site>  (691) 
nan

>  <Peripheral>  (691) 
nan

>  <Num_H_Atoms_ProtBoundConf>  (691) 
nan

>  <Num_Resolved_Atoms>  (691) 
nan

>  <Num_Not_Resolved_Atoms>  (691) 
nan

$$$$
CHEMBL3679513
     RDKit          3D

  0  0  0  0  0  0  0  0  0  0999 V3000
M  V30 BEGIN CTAB
M  V30 COUNTS 57 61 0 0 0
M  V30 BEGIN ATOM
M  V30 1 O 1.352556 -2.005913 1.128971 0
M  V30 2 C 0.348018 -2.489218 1.701744 0
M  V30 3 N 0.023317 -2.417144 3.067869 0
M  V30 4 C 0.914844 -1.714720 3.973397 0
M  V30 5 C 1.003899 -0.308506 3.510315 0
M  V30 6 C 2.018976 0.334201 2.846345 0
M  V30 7 N 1.899673 1.630875 2.515969 0
M  V30 8 C 2.972958 2.260248 1.828884 0
M  V30 9 C 3.872583 3.212303 2.307510 0
M  V30 10 C 4.844987 3.697125 1.469805 0
M  V30 11 C 4.960788 3.268592 0.159138 0
M  V30 12 C 4.074880 2.324831 -0.327755 0
M  V30 13 C 3.098546 1.838132 0.513759 0
M  V30 14 C 0.825627 2.392681 2.789681 0
M  V30 15 C 0.752761 3.720602 2.428504 0
M  V30 16 C -0.360674 4.445046 2.731505 0
M  V30 17 Cl -0.501207 6.146937 2.290529 0
M  V30 18 C -1.441677 3.874786 3.404745 0
M  V30 19 C -1.327618 2.529755 3.751908 0
M  V30 20 C -0.211486 1.762503 3.460341 0
M  V30 21 C -0.146621 0.420896 3.829272 0
M  V30 22 O -1.171782 -0.027054 4.440168 0
M  V30 23 C -0.641911 -3.232244 0.883114 0
M  V30 24 C -1.798353 -3.893629 0.994355 0
M  V30 25 N -2.332891 -4.416380 -0.081793 0
M  V30 26 C -1.892394 -4.365448 -1.168427 0
M  V30 27 N -2.160521 -4.786340 -2.546541 0
M  V30 28 C -1.347240 -4.533167 -3.698563 0
M  V30 29 C -1.947720 -3.414889 -4.549012 0
M  V30 30 C -3.439090 -3.466973 -4.293912 0
M  V30 31 O -3.740188 -2.763029 -3.123971 0
M  V30 32 C -3.940320 -4.885035 -4.104208 0
M  V30 33 C -3.331854 -5.528798 -2.873845 0
M  V30 34 S -0.343265 -3.409389 -0.952889 0
M  V30 35 H -0.851529 -2.857601 3.467417 0
M  V30 36 H 0.521745 -1.746109 5.002153 0
M  V30 37 H 1.909211 -2.204455 3.889596 0
M  V30 38 H 2.858881 -0.287907 2.642022 0
M  V30 39 H 3.700794 3.479778 3.334782 0
M  V30 40 H 5.509790 4.434511 1.907404 0
M  V30 41 H 5.744125 3.671949 -0.483092 0
M  V30 42 H 4.186239 2.003641 -1.362146 0
M  V30 43 H 2.452803 1.103167 0.041492 0
M  V30 44 H 1.562807 4.200454 1.908362 0
M  V30 45 H -2.344431 4.392714 3.670325 0
M  V30 46 H -2.159400 2.067945 4.277113 0
M  V30 47 H -2.190229 -3.930649 2.005616 0
M  V30 48 H -0.369439 -4.155772 -3.335458 0
M  V30 49 H -1.178755 -5.455505 -4.286114 0
M  V30 50 H -1.531526 -2.443776 -4.225196 0
M  V30 51 H -1.694220 -3.601453 -5.603030 0
M  V30 52 H -4.016110 -3.013780 -5.117130 0
M  V30 53 H -3.150547 -1.951078 -3.145349 0
M  V30 54 H -3.621651 -5.479345 -4.976557 0
M  V30 55 H -5.045862 -4.823530 -4.040519 0
M  V30 56 H -3.015693 -6.575483 -3.110013 0
M  V30 57 H -4.102589 -5.543104 -2.077500 0
M  V30 END ATOM
M  V30 BEGIN BOND
M  V30 1 2 1 2
M  V30 2 1 2 3
M  V30 3 1 3 4
M  V30 4 1 4 5
M  V30 5 2 5 6
M  V30 6 1 6 7
M  V30 7 1 7 8
M  V30 8 2 8 9
M  V30 9 1 9 10
M  V30 10 2 10 11
M  V30 11 1 11 12
M  V30 12 2 12 13
M  V30 13 1 7 14
M  V30 14 2 14 15
M  V30 15 1 15 16
M  V30 16 1 16 17
M  V30 17 2 16 18
M  V30 18 1 18 19
M  V30 19 2 19 20
M  V30 20 1 20 21
M  V30 21 2 21 22
M  V30 22 1 2 23
M  V30 23 2 23 24
M  V30 24 1 24 25
M  V30 25 2 25 26
M  V30 26 1 26 27
M  V30 27 1 27 28
M  V30 28 1 28 29
M  V30 29 1 29 30
M  V30 30 1 30 31
M  V30 31 1 30 32
M  V30 32 1 32 33
M  V30 33 1 26 34
M  V30 34 1 21 5
M  V30 35 1 34 23
M  V30 36 1 13 8
M  V30 37 1 20 14
M  V30 38 1 33 27
M  V30 39 1 3 35
M  V30 40 1 4 36
M  V30 41 1 4 37
M  V30 42 1 6 38
M  V30 43 1 9 39
M  V30 44 1 10 40
M  V30 45 1 11 41
M  V30 46 1 12 42
M  V30 47 1 13 43
M  V30 48 1 15 44
M  V30 49 1 18 45
M  V30 50 1 19 46
M  V30 51 1 24 47
M  V30 52 1 28 48
M  V30 53 1 28 49
M  V30 54 1 29 50
M  V30 55 1 29 51
M  V30 56 1 30 52
M  V30 57 1 31 53
M  V30 58 1 32 54
M  V30 59 1 32 55
M  V30 60 1 33 56
M  V30 61 1 33 57
M  V30 END BOND
M  V30 END CTAB
M  END
>  <Dataset>  (692) 
ChEMBL_Kinases

>  <Ligand_Instance>  (692) 
nan

>  <PDB_ID>  (692) 
nan

>  <Standardized_SMILES>  (692) 
O=C(NCc1cn(-c2ccccc2)c2cc(Cl)ccc2c1=O)c1cnc(N2CCC(O)CC2)s1

>  <Name>  (692) 
nan

>  <Pocket>  (692) 
nan

>  <ATP_Site>  (692) 
nan

>  <Peripheral>  (692) 
nan

>  <Num_H_Atoms_ProtBoundConf>  (692) 
nan

>  <Num_Resolved_Atoms>  (692) 
nan

>  <Num_Not_Resolved_Atoms>  (692) 
nan

$$$$
CHEMBL3679512
     RDKit          3D

  0  0  0  0  0  0  0  0  0  0999 V3000
M  V30 BEGIN CTAB
M  V30 COUNTS 60 64 0 0 0
M  V30 BEGIN ATOM
M  V30 1 O 1.882419 -4.301440 3.093925 0
M  V30 2 C 1.240086 -3.649803 2.234472 0
M  V30 3 N 1.128436 -2.241169 2.396456 0
M  V30 4 C 1.764936 -1.612146 3.554082 0
M  V30 5 C 1.458325 -0.145955 3.430672 0
M  V30 6 C 2.299707 0.866183 3.019066 0
M  V30 7 N 1.801216 2.124121 2.985013 0
M  V30 8 C 2.750751 3.101684 2.544983 0
M  V30 9 C 3.175792 4.076518 3.415499 0
M  V30 10 C 4.086732 4.996812 2.957725 0
M  V30 11 C 4.593425 4.993288 1.678504 0
M  V30 12 C 4.139456 3.989760 0.823226 0
M  V30 13 C 3.219635 3.038785 1.242418 0
M  V30 14 C 0.550632 2.414126 3.328402 0
M  V30 15 C 0.158408 3.732786 3.252328 0
M  V30 16 C -1.126306 4.057453 3.601030 0
M  V30 17 Cl -1.718525 5.711639 3.536644 0
M  V30 18 C -2.049260 3.108093 4.028506 0
M  V30 19 C -1.609828 1.802705 4.087994 0
M  V30 20 C -0.326204 1.422019 3.748032 0
M  V30 21 C 0.133929 0.118074 3.800783 0
M  V30 22 O -0.703907 -0.740760 4.188297 0
M  V30 23 C 0.581766 -4.262421 1.046493 0
M  V30 24 C 0.488245 -5.520438 0.600493 0
M  V30 25 N -0.187826 -5.687558 -0.507021 0
M  V30 26 C -0.717060 -4.955760 -1.169570 0
M  V30 27 N -1.511164 -4.788384 -2.379703 0
M  V30 28 C -2.957840 -4.819075 -2.494109 0
M  V30 29 C -3.511980 -3.491426 -2.921939 0
M  V30 30 C -2.946854 -2.999260 -4.212112 0
M  V30 31 C -3.615214 -3.724655 -5.357752 0
M  V30 32 O -4.973321 -3.533668 -5.394568 0
M  V30 33 C -1.456387 -3.179027 -4.217728 0
M  V30 34 C -1.032234 -4.553470 -3.726695 0
M  V30 35 S -0.335264 -3.389333 -0.195471 0
M  V30 36 H 0.583300 -1.702665 1.663576 0
M  V30 37 H 2.875581 -1.789812 3.557722 0
M  V30 38 H 1.354680 -2.023469 4.475566 0
M  V30 39 H 3.270902 0.509637 2.771924 0
M  V30 40 H 2.795689 4.102256 4.422183 0
M  V30 41 H 4.447274 5.786203 3.622210 0
M  V30 42 H 5.308018 5.685657 1.261188 0
M  V30 43 H 4.503925 3.931396 -0.208125 0
M  V30 44 H 2.897488 2.271756 0.525584 0
M  V30 45 H 0.798185 4.550530 2.932130 0
M  V30 46 H -3.065759 3.258990 4.319831 0
M  V30 47 H -2.236306 0.980117 4.404691 0
M  V30 48 H 0.953858 -6.362931 1.135743 0
M  V30 49 H -3.279775 -5.606225 -3.173795 0
M  V30 50 H -3.434624 -5.050027 -1.502974 0
M  V30 51 H -3.338806 -2.700270 -2.154201 0
M  V30 52 H -4.614543 -3.628504 -3.055411 0
M  V30 53 H -3.127541 -1.902666 -4.300059 0
M  V30 54 H -3.349943 -4.788269 -5.324185 0
M  V30 55 H -3.191429 -3.323062 -6.310309 0
M  V30 56 H -5.443519 -4.207517 -4.836809 0
M  V30 57 H -1.029627 -2.380281 -3.551818 0
M  V30 58 H -1.100870 -3.060639 -5.255780 0
M  V30 59 H 0.072639 -4.568388 -3.706381 0
M  V30 60 H -1.366843 -5.285081 -4.466006 0
M  V30 END ATOM
M  V30 BEGIN BOND
M  V30 1 2 1 2
M  V30 2 1 2 3
M  V30 3 1 3 4
M  V30 4 1 4 5
M  V30 5 2 5 6
M  V30 6 1 6 7
M  V30 7 1 7 8
M  V30 8 2 8 9
M  V30 9 1 9 10
M  V30 10 2 10 11
M  V30 11 1 11 12
M  V30 12 2 12 13
M  V30 13 1 7 14
M  V30 14 2 14 15
M  V30 15 1 15 16
M  V30 16 1 16 17
M  V30 17 2 16 18
M  V30 18 1 18 19
M  V30 19 2 19 20
M  V30 20 1 20 21
M  V30 21 2 21 22
M  V30 22 1 2 23
M  V30 23 2 23 24
M  V30 24 1 24 25
M  V30 25 2 25 26
M  V30 26 1 26 27
M  V30 27 1 27 28
M  V30 28 1 28 29
M  V30 29 1 29 30
M  V30 30 1 30 31
M  V30 31 1 31 32
M  V30 32 1 30 33
M  V30 33 1 33 34
M  V30 34 1 26 35
M  V30 35 1 21 5
M  V30 36 1 35 23
M  V30 37 1 13 8
M  V30 38 1 20 14
M  V30 39 1 34 27
M  V30 40 1 3 36
M  V30 41 1 4 37
M  V30 42 1 4 38
M  V30 43 1 6 39
M  V30 44 1 9 40
M  V30 45 1 10 41
M  V30 46 1 11 42
M  V30 47 1 12 43
M  V30 48 1 13 44
M  V30 49 1 15 45
M  V30 50 1 18 46
M  V30 51 1 19 47
M  V30 52 1 24 48
M  V30 53 1 28 49
M  V30 54 1 28 50
M  V30 55 1 29 51
M  V30 56 1 29 52
M  V30 57 1 30 53
M  V30 58 1 31 54
M  V30 59 1 31 55
M  V30 60 1 32 56
M  V30 61 1 33 57
M  V30 62 1 33 58
M  V30 63 1 34 59
M  V30 64 1 34 60
M  V30 END BOND
M  V30 END CTAB
M  END
>  <Dataset>  (693) 
ChEMBL_Kinases

>  <Ligand_Instance>  (693) 
nan

>  <PDB_ID>  (693) 
nan

>  <Standardized_SMILES>  (693) 
O=C(NCc1cn(-c2ccccc2)c2cc(Cl)ccc2c1=O)c1cnc(N2CCC(CO)CC2)s1

>  <Name>  (693) 
nan

>  <Pocket>  (693) 
nan

>  <ATP_Site>  (693) 
nan

>  <Peripheral>  (693) 
nan

>  <Num_H_Atoms_ProtBoundConf>  (693) 
nan

>  <Num_Resolved_Atoms>  (693) 
nan

>  <Num_Not_Resolved_Atoms>  (693) 
nan

$$$$
CHEMBL3679511
     RDKit          3D

  0  0  0  0  0  0  0  0  0  0999 V3000
M  V30 BEGIN CTAB
M  V30 COUNTS 62 66 0 0 0
M  V30 BEGIN ATOM
M  V30 1 C 3.277492 -1.218663 7.149835 0
M  V30 2 S 4.871895 -1.768073 6.588507 0
M  V30 3 O 5.900832 -1.095276 7.471048 0
M  V30 4 O 4.912108 -3.251831 6.688671 0
M  V30 5 C 5.180881 -1.223245 4.924343 0
M  V30 6 C 5.184768 0.273310 4.884976 0
M  V30 7 C 5.438491 0.735262 3.448454 0
M  V30 8 N 4.404967 0.130460 2.653004 0
M  V30 9 C 3.517295 1.060422 1.978759 0
M  V30 10 N 3.294232 2.244595 1.819027 0
M  V30 11 C 2.303626 2.669451 1.060057 0
M  V30 12 C 1.479042 1.800379 0.415741 0
M  V30 13 C 0.357968 2.347809 -0.442877 0
M  V30 14 O -0.139811 3.411736 -0.815266 0
M  V30 15 N -0.372736 1.271141 -1.018107 0
M  V30 16 C -1.494911 1.679781 -1.877930 0
M  V30 17 C -2.190960 0.487540 -2.430334 0
M  V30 18 C -3.397263 0.027157 -1.971291 0
M  V30 19 N -4.042573 -1.049965 -2.458220 0
M  V30 20 C -5.306388 -1.402185 -1.862210 0
M  V30 21 C -6.471468 -1.289326 -2.622191 0
M  V30 22 C -7.709195 -1.603223 -2.132106 0
M  V30 23 C -7.821413 -2.052697 -0.828310 0
M  V30 24 C -6.675637 -2.174840 -0.047494 0
M  V30 25 C -5.432752 -1.855703 -0.551455 0
M  V30 26 C -3.491441 -1.761757 -3.480897 0
M  V30 27 C -4.181815 -2.862005 -3.956159 0
M  V30 28 C -3.604255 -3.574451 -4.998638 0
M  V30 29 Cl -4.454875 -4.984289 -5.632420 0
M  V30 30 C -2.401450 -3.168944 -5.503516 0
M  V30 31 C -1.696931 -2.075952 -5.044790 0
M  V30 32 C -2.276326 -1.373269 -4.009606 0
M  V30 33 C -1.650460 -0.263229 -3.479715 0
M  V30 34 O -0.551562 0.077010 -3.967653 0
M  V30 35 S 2.163603 0.242003 0.927232 0
M  V30 36 C 4.333903 -1.305912 2.590870 0
M  V30 37 C 4.156043 -1.818146 4.014958 0
M  V30 38 H 2.523592 -2.048875 7.051584 0
M  V30 39 H 3.286673 -0.925235 8.221044 0
M  V30 40 H 2.866358 -0.398274 6.520861 0
M  V30 41 H 6.180074 -1.584526 4.613245 0
M  V30 42 H 4.208550 0.709139 5.174560 0
M  V30 43 H 5.976409 0.658604 5.562970 0
M  V30 44 H 6.422429 0.315380 3.157901 0
M  V30 45 H 5.405464 1.821446 3.454491 0
M  V30 46 H 2.268992 3.775510 1.044746 0
M  V30 47 H -0.208413 0.225906 -0.903503 0
M  V30 48 H -2.264354 2.210108 -1.262789 0
M  V30 49 H -1.132414 2.274665 -2.730456 0
M  V30 50 H -3.847234 0.588869 -1.153572 0
M  V30 51 H -6.421222 -0.936098 -3.660545 0
M  V30 52 H -8.604466 -1.507598 -2.742779 0
M  V30 53 H -8.795586 -2.314010 -0.399567 0
M  V30 54 H -6.704779 -2.523024 0.983452 0
M  V30 55 H -4.487646 -1.913304 -0.036304 0
M  V30 56 H -5.134885 -3.161415 -3.536747 0
M  V30 57 H -2.023532 -3.781972 -6.315089 0
M  V30 58 H -0.744872 -1.792622 -5.477686 0
M  V30 59 H 3.400966 -1.566778 2.050089 0
M  V30 60 H 5.236183 -1.757793 2.135208 0
M  V30 61 H 3.139487 -1.550609 4.369804 0
M  V30 62 H 4.240119 -2.924808 4.078493 0
M  V30 END ATOM
M  V30 BEGIN BOND
M  V30 1 1 1 2
M  V30 2 2 2 3
M  V30 3 2 2 4
M  V30 4 1 2 5
M  V30 5 1 5 6
M  V30 6 1 6 7
M  V30 7 1 7 8
M  V30 8 1 8 9
M  V30 9 2 9 10
M  V30 10 1 10 11
M  V30 11 2 11 12
M  V30 12 1 12 13
M  V30 13 2 13 14
M  V30 14 1 13 15
M  V30 15 1 15 16
M  V30 16 1 16 17
M  V30 17 2 17 18
M  V30 18 1 18 19
M  V30 19 1 19 20
M  V30 20 2 20 21
M  V30 21 1 21 22
M  V30 22 2 22 23
M  V30 23 1 23 24
M  V30 24 2 24 25
M  V30 25 1 19 26
M  V30 26 2 26 27
M  V30 27 1 27 28
M  V30 28 1 28 29
M  V30 29 2 28 30
M  V30 30 1 30 31
M  V30 31 2 31 32
M  V30 32 1 32 33
M  V30 33 2 33 34
M  V30 34 1 12 35
M  V30 35 1 8 36
M  V30 36 1 36 37
M  V30 37 1 37 5
M  V30 38 1 35 9
M  V30 39 1 33 17
M  V30 40 1 25 20
M  V30 41 1 32 26
M  V30 42 1 1 38
M  V30 43 1 1 39
M  V30 44 1 1 40
M  V30 45 1 5 41
M  V30 46 1 6 42
M  V30 47 1 6 43
M  V30 48 1 7 44
M  V30 49 1 7 45
M  V30 50 1 11 46
M  V30 51 1 15 47
M  V30 52 1 16 48
M  V30 53 1 16 49
M  V30 54 1 18 50
M  V30 55 1 21 51
M  V30 56 1 22 52
M  V30 57 1 23 53
M  V30 58 1 24 54
M  V30 59 1 25 55
M  V30 60 1 27 56
M  V30 61 1 30 57
M  V30 62 1 31 58
M  V30 63 1 36 59
M  V30 64 1 36 60
M  V30 65 1 37 61
M  V30 66 1 37 62
M  V30 END BOND
M  V30 END CTAB
M  END
>  <Dataset>  (694) 
ChEMBL_Kinases

>  <Ligand_Instance>  (694) 
nan

>  <PDB_ID>  (694) 
nan

>  <Standardized_SMILES>  (694) 
CS(=O)(=O)C1CCN(c2ncc(C(=O)NCc3cn(-c4ccccc4)c4cc(Cl)ccc4c3=O)s2)CC1

>  <Name>  (694) 
nan

>  <Pocket>  (694) 
nan

>  <ATP_Site>  (694) 
nan

>  <Peripheral>  (694) 
nan

>  <Num_H_Atoms_ProtBoundConf>  (694) 
nan

>  <Num_Resolved_Atoms>  (694) 
nan

>  <Num_Not_Resolved_Atoms>  (694) 
nan

$$$$
CHEMBL100206
     RDKit          3D

  0  0  0  0  0  0  0  0  0  0999 V3000
M  V30 BEGIN CTAB
M  V30 COUNTS 28 29 0 0 0
M  V30 BEGIN ATOM
M  V30 1 O -0.629564 -3.880097 3.668102 0
M  V30 2 C -1.372218 -2.873958 3.817309 0
M  V30 3 O -2.714048 -3.167838 3.882542 0
M  V30 4 C -0.643642 -1.563805 3.892934 0
M  V30 5 C 0.841932 -1.792099 3.767020 0
M  V30 6 S 1.327616 -2.573591 2.218993 0
M  V30 7 C 1.137630 -1.420988 0.883362 0
M  V30 8 C 1.274325 -2.117346 -0.261011 0
M  V30 9 C 1.171231 -1.472345 -1.588011 0
M  V30 10 O 1.282294 -2.020336 -2.714224 0
M  V30 11 C 0.908802 -0.020673 -1.675842 0
M  V30 12 C 0.798294 0.655303 -2.883532 0
M  V30 13 C 0.548566 2.027019 -2.803720 0
M  V30 14 C 0.410587 2.721910 -1.621095 0
M  V30 15 C 0.528170 2.009977 -0.445633 0
M  V30 16 C 0.774487 0.654679 -0.486377 0
M  V30 17 C 0.879410 0.008158 0.811827 0
M  V30 18 O 0.780029 0.513688 1.932362 0
M  V30 19 H -3.155849 -3.646123 3.097506 0
M  V30 20 H -1.081958 -0.815538 3.251603 0
M  V30 21 H -0.795435 -1.189716 4.947064 0
M  V30 22 H 1.167335 -2.373214 4.656154 0
M  V30 23 H 1.297747 -0.760214 3.857218 0
M  V30 24 H 1.468150 -3.183292 -0.446168 0
M  V30 25 H 0.906712 0.108925 -3.798126 0
M  V30 26 H 0.459006 2.572507 -3.725887 0
M  V30 27 H 0.216781 3.787817 -1.615454 0
M  V30 28 H 0.419214 2.558204 0.483692 0
M  V30 END ATOM
M  V30 BEGIN BOND
M  V30 1 2 1 2
M  V30 2 1 2 3
M  V30 3 1 2 4
M  V30 4 1 4 5
M  V30 5 1 5 6
M  V30 6 1 6 7
M  V30 7 2 7 8
M  V30 8 1 8 9
M  V30 9 2 9 10
M  V30 10 1 9 11
M  V30 11 2 11 12
M  V30 12 1 12 13
M  V30 13 2 13 14
M  V30 14 1 14 15
M  V30 15 2 15 16
M  V30 16 1 16 17
M  V30 17 2 17 18
M  V30 18 1 17 7
M  V30 19 1 16 11
M  V30 20 1 3 19
M  V30 21 1 4 20
M  V30 22 1 4 21
M  V30 23 1 5 22
M  V30 24 1 5 23
M  V30 25 1 8 24
M  V30 26 1 12 25
M  V30 27 1 13 26
M  V30 28 1 14 27
M  V30 29 1 15 28
M  V30 END BOND
M  V30 END CTAB
M  END
>  <Dataset>  (695) 
ChEMBL_Kinases

>  <Ligand_Instance>  (695) 
nan

>  <PDB_ID>  (695) 
nan

>  <Standardized_SMILES>  (695) 
O=C(O)CCSC1=CC(=O)c2ccccc2C1=O

>  <Name>  (695) 
nan

>  <Pocket>  (695) 
nan

>  <ATP_Site>  (695) 
nan

>  <Peripheral>  (695) 
nan

>  <Num_H_Atoms_ProtBoundConf>  (695) 
nan

>  <Num_Resolved_Atoms>  (695) 
nan

>  <Num_Not_Resolved_Atoms>  (695) 
nan

$$$$
CHEMBL3679509
     RDKit          3D

  0  0  0  0  0  0  0  0  0  0999 V3000
M  V30 BEGIN CTAB
M  V30 COUNTS 61 65 0 0 0
M  V30 BEGIN ATOM
M  V30 1 N 7.401830 -2.242514 2.824278 0
M  V30 2 C 6.419805 -1.261902 2.442306 0
M  V30 3 C 6.879633 -0.656974 1.116633 0
M  V30 4 C 5.937999 0.438351 0.669270 0
M  V30 5 N 4.997918 0.798193 1.714275 0
M  V30 6 C 3.584771 0.865413 1.614934 0
M  V30 7 C 2.687146 1.195766 2.617522 0
M  V30 8 C 1.335523 1.212428 2.346102 0
M  V30 9 C 0.817550 0.912319 1.106707 0
M  V30 10 C -0.594118 0.908022 0.747770 0
M  V30 11 O -0.953747 0.631428 -0.432468 0
M  V30 12 N -1.649419 1.201295 1.651562 0
M  V30 13 C -3.038478 1.200628 1.309790 0
M  V30 14 C -3.551047 -0.093536 0.810903 0
M  V30 15 C -3.762763 -0.172976 -0.567215 0
M  V30 16 N -4.235074 -1.329750 -1.109299 0
M  V30 17 C -4.447296 -1.397391 -2.522073 0
M  V30 18 C -3.467270 -1.671088 -3.473343 0
M  V30 19 C -3.813490 -1.705749 -4.815161 0
M  V30 20 C -5.115501 -1.470095 -5.186540 0
M  V30 21 C -6.106332 -1.197653 -4.279645 0
M  V30 22 C -5.761585 -1.161769 -2.925764 0
M  V30 23 C -4.504675 -2.403377 -0.349848 0
M  V30 24 C -4.982631 -3.571724 -0.902686 0
M  V30 25 C -5.267742 -4.686914 -0.150030 0
M  V30 26 Cl -5.868069 -6.094356 -0.995020 0
M  V30 27 C -5.058207 -4.603288 1.201449 0
M  V30 28 C -4.578842 -3.446554 1.794818 0
M  V30 29 C -4.297784 -2.332196 1.014035 0
M  V30 30 C -3.816710 -1.174820 1.619884 0
M  V30 31 O -3.620367 -1.083916 2.854147 0
M  V30 32 C 1.758032 0.590368 0.145736 0
M  V30 33 N 3.077314 0.572322 0.404199 0
M  V30 34 C 5.828437 1.066373 2.858512 0
M  V30 35 C 6.468581 -0.138425 3.461088 0
M  V30 36 H 7.333065 -2.514363 3.831532 0
M  V30 37 H 7.448747 -3.063901 2.186352 0
M  V30 38 H 5.389082 -1.662361 2.351071 0
M  V30 39 H 7.852770 -0.168471 1.356464 0
M  V30 40 H 7.009887 -1.465296 0.393383 0
M  V30 41 H 5.430996 0.077138 -0.246007 0
M  V30 42 H 6.477922 1.367993 0.395617 0
M  V30 43 H 3.106816 1.424023 3.565562 0
M  V30 44 H 0.645718 1.469466 3.126569 0
M  V30 45 H -1.324468 1.429789 2.635961 0
M  V30 46 H -3.317469 2.036814 0.627875 0
M  V30 47 H -3.626782 1.407599 2.243429 0
M  V30 48 H -3.574785 0.639078 -1.255515 0
M  V30 49 H -2.459515 -1.844116 -3.064390 0
M  V30 50 H -2.970152 -1.926109 -5.443492 0
M  V30 51 H -5.275123 -1.520645 -6.249076 0
M  V30 52 H -7.120772 -1.017339 -4.610584 0
M  V30 53 H -6.570004 -0.943053 -2.231057 0
M  V30 54 H -5.132282 -3.587598 -1.980768 0
M  V30 55 H -5.280013 -5.472313 1.792082 0
M  V30 56 H -4.420557 -3.403005 2.866324 0
M  V30 57 H 1.383317 0.344747 -0.854791 0
M  V30 58 H 5.136264 1.503781 3.637710 0
M  V30 59 H 6.574676 1.887483 2.665049 0
M  V30 60 H 7.561239 0.061436 3.668401 0
M  V30 61 H 5.990221 -0.417332 4.410901 0
M  V30 END ATOM
M  V30 BEGIN BOND
M  V30 1 1 1 2
M  V30 2 1 2 3
M  V30 3 1 3 4
M  V30 4 1 4 5
M  V30 5 1 5 6
M  V30 6 2 6 7
M  V30 7 1 7 8
M  V30 8 2 8 9
M  V30 9 1 9 10
M  V30 10 2 10 11
M  V30 11 1 10 12
M  V30 12 1 12 13
M  V30 13 1 13 14
M  V30 14 2 14 15
M  V30 15 1 15 16
M  V30 16 1 16 17
M  V30 17 2 17 18
M  V30 18 1 18 19
M  V30 19 2 19 20
M  V30 20 1 20 21
M  V30 21 2 21 22
M  V30 22 1 16 23
M  V30 23 2 23 24
M  V30 24 1 24 25
M  V30 25 1 25 26
M  V30 26 2 25 27
M  V30 27 1 27 28
M  V30 28 2 28 29
M  V30 29 1 29 30
M  V30 30 2 30 31
M  V30 31 1 9 32
M  V30 32 2 32 33
M  V30 33 1 5 34
M  V30 34 1 34 35
M  V30 35 1 35 2
M  V30 36 1 33 6
M  V30 37 1 30 14
M  V30 38 1 22 17
M  V30 39 1 29 23
M  V30 40 1 1 36
M  V30 41 1 1 37
M  V30 42 1 2 38
M  V30 43 1 3 39
M  V30 44 1 3 40
M  V30 45 1 4 41
M  V30 46 1 4 42
M  V30 47 1 7 43
M  V30 48 1 8 44
M  V30 49 1 12 45
M  V30 50 1 13 46
M  V30 51 1 13 47
M  V30 52 1 15 48
M  V30 53 1 18 49
M  V30 54 1 19 50
M  V30 55 1 20 51
M  V30 56 1 21 52
M  V30 57 1 22 53
M  V30 58 1 24 54
M  V30 59 1 27 55
M  V30 60 1 28 56
M  V30 61 1 32 57
M  V30 62 1 34 58
M  V30 63 1 34 59
M  V30 64 1 35 60
M  V30 65 1 35 61
M  V30 END BOND
M  V30 END CTAB
M  END
>  <Dataset>  (696) 
ChEMBL_Kinases

>  <Ligand_Instance>  (696) 
nan

>  <PDB_ID>  (696) 
nan

>  <Standardized_SMILES>  (696) 
NC1CCN(c2ccc(C(=O)NCc3cn(-c4ccccc4)c4cc(Cl)ccc4c3=O)cn2)CC1

>  <Name>  (696) 
nan

>  <Pocket>  (696) 
nan

>  <ATP_Site>  (696) 
nan

>  <Peripheral>  (696) 
nan

>  <Num_H_Atoms_ProtBoundConf>  (696) 
nan

>  <Num_Resolved_Atoms>  (696) 
nan

>  <Num_Not_Resolved_Atoms>  (696) 
nan

$$$$
CHEMBL3679508
     RDKit          3D

  0  0  0  0  0  0  0  0  0  0999 V3000
M  V30 BEGIN CTAB
M  V30 COUNTS 59 64 0 0 0
M  V30 BEGIN ATOM
M  V30 1 O 1.618825 -3.708585 1.835675 0
M  V30 2 C 0.832454 -2.947944 1.187225 0
M  V30 3 N 0.751403 -1.632754 1.672232 0
M  V30 4 C 1.581153 -1.342498 2.847034 0
M  V30 5 C 1.338011 0.095924 3.176695 0
M  V30 6 C 2.182147 1.134569 2.925042 0
M  V30 7 N 1.871114 2.395255 3.261258 0
M  V30 8 C 2.766038 3.467636 2.991332 0
M  V30 9 C 2.901127 3.801583 1.652561 0
M  V30 10 C 3.742837 4.826995 1.273077 0
M  V30 11 C 4.458494 5.528689 2.233827 0
M  V30 12 C 4.323535 5.193566 3.584252 0
M  V30 13 C 3.478064 4.163795 3.963096 0
M  V30 14 C 0.710483 2.708840 3.865398 0
M  V30 15 C 0.378127 3.999205 4.216481 0
M  V30 16 C -0.811505 4.351861 4.840585 0
M  V30 17 Cl -1.205954 5.982228 5.270922 0
M  V30 18 C -1.690078 3.299170 5.106633 0
M  V30 19 C -1.400429 2.003806 4.775399 0
M  V30 20 C -0.200749 1.713096 4.155761 0
M  V30 21 C 0.139246 0.411217 3.799576 0
M  V30 22 O -0.699031 -0.495087 4.068319 0
M  V30 23 C 0.082421 -3.424215 0.032192 0
M  V30 24 C -0.792149 -2.603538 -0.651427 0
M  V30 25 C -1.485423 -3.116907 -1.755880 0
M  V30 26 C -1.299068 -4.423653 -2.157269 0
M  V30 27 N -2.026288 -4.899289 -3.283790 0
M  V30 28 C -2.980670 -4.051910 -4.002627 0
M  V30 29 C -3.687443 -4.937754 -4.975542 0
M  V30 30 C -3.573920 -6.279604 -4.230135 0
M  V30 31 C -2.075436 -6.140601 -3.987002 0
M  V30 32 C -1.636260 -5.859146 -5.411600 0
M  V30 33 N -2.764457 -5.185844 -6.062036 0
M  V30 34 N -0.440453 -5.204578 -1.473949 0
M  V30 35 C 0.245121 -4.724971 -0.395350 0
M  V30 36 H 0.138985 -0.928566 1.214553 0
M  V30 37 H 2.650134 -1.440970 2.525031 0
M  V30 38 H 1.294586 -1.996491 3.672473 0
M  V30 39 H 3.118653 0.889960 2.438415 0
M  V30 40 H 2.372537 3.295734 0.846644 0
M  V30 41 H 3.899051 5.143420 0.243113 0
M  V30 42 H 5.141049 6.347282 2.023436 0
M  V30 43 H 4.855025 5.702939 4.385662 0
M  V30 44 H 3.317260 3.841362 4.989216 0
M  V30 45 H 1.095874 4.792145 3.988250 0
M  V30 46 H -2.613638 3.580579 5.592263 0
M  V30 47 H -2.117194 1.198777 5.000047 0
M  V30 48 H -0.957634 -1.589689 -0.365444 0
M  V30 49 H -2.169180 -2.417033 -2.261947 0
M  V30 50 H -3.655910 -3.521618 -3.294446 0
M  V30 51 H -2.352599 -3.332219 -4.591079 0
M  V30 52 H -4.692361 -4.689564 -5.246596 0
M  V30 53 H -3.797532 -7.112013 -4.927335 0
M  V30 54 H -4.150785 -6.302380 -3.306771 0
M  V30 55 H -1.615296 -6.999239 -3.534008 0
M  V30 56 H -1.344894 -6.775807 -5.961638 0
M  V30 57 H -0.818692 -5.112455 -5.352193 0
M  V30 58 H -2.485370 -4.314465 -6.546795 0
M  V30 59 H 0.925514 -5.373184 0.130732 0
M  V30 END ATOM
M  V30 BEGIN BOND
M  V30 1 2 1 2
M  V30 2 1 2 3
M  V30 3 1 3 4
M  V30 4 1 4 5
M  V30 5 2 5 6
M  V30 6 1 6 7
M  V30 7 1 7 8
M  V30 8 2 8 9
M  V30 9 1 9 10
M  V30 10 2 10 11
M  V30 11 1 11 12
M  V30 12 2 12 13
M  V30 13 1 7 14
M  V30 14 2 14 15
M  V30 15 1 15 16
M  V30 16 1 16 17
M  V30 17 2 16 18
M  V30 18 1 18 19
M  V30 19 2 19 20
M  V30 20 1 20 21
M  V30 21 2 21 22
M  V30 22 1 2 23
M  V30 23 2 23 24
M  V30 24 1 24 25
M  V30 25 2 25 26
M  V30 26 1 26 27
M  V30 27 1 27 28
M  V30 28 1 28 29
M  V30 29 1 29 30
M  V30 30 1 30 31
M  V30 31 1 31 32
M  V30 32 1 32 33
M  V30 33 1 26 34
M  V30 34 2 34 35
M  V30 35 1 21 5
M  V30 36 1 35 23
M  V30 37 1 13 8
M  V30 38 1 20 14
M  V30 39 1 31 27
M  V30 40 1 33 29
M  V30 41 1 3 36
M  V30 42 1 4 37
M  V30 43 1 4 38
M  V30 44 1 6 39
M  V30 45 1 9 40
M  V30 46 1 10 41
M  V30 47 1 11 42
M  V30 48 1 12 43
M  V30 49 1 13 44
M  V30 50 1 15 45
M  V30 51 1 18 46
M  V30 52 1 19 47
M  V30 53 1 24 48
M  V30 54 1 25 49
M  V30 55 1 28 50
M  V30 56 1 28 51
M  V30 57 1 29 52
M  V30 58 1 30 53
M  V30 59 1 30 54
M  V30 60 1 31 55
M  V30 61 1 32 56
M  V30 62 1 32 57
M  V30 63 1 33 58
M  V30 64 1 35 59
M  V30 END BOND
M  V30 END CTAB
M  END
>  <Dataset>  (697) 
ChEMBL_Kinases

>  <Ligand_Instance>  (697) 
nan

>  <PDB_ID>  (697) 
nan

>  <Standardized_SMILES>  (697) 
O=C(NCc1cn(-c2ccccc2)c2cc(Cl)ccc2c1=O)c1ccc(N2CC3CC2CN3)nc1

>  <Name>  (697) 
nan

>  <Pocket>  (697) 
nan

>  <ATP_Site>  (697) 
nan

>  <Peripheral>  (697) 
nan

>  <Num_H_Atoms_ProtBoundConf>  (697) 
nan

>  <Num_Resolved_Atoms>  (697) 
nan

>  <Num_Not_Resolved_Atoms>  (697) 
nan

$$$$
CHEMBL3679507
     RDKit          3D

  0  0  0  0  0  0  0  0  0  0999 V3000
M  V30 BEGIN CTAB
M  V30 COUNTS 57 61 0 0 0
M  V30 BEGIN ATOM
M  V30 1 O -0.127357 -4.283348 1.804278 0
M  V30 2 C -0.306587 -3.283616 1.059596 0
M  V30 3 N 0.143334 -2.000161 1.464559 0
M  V30 4 C 0.823354 -1.768151 2.732805 0
M  V30 5 C 1.158437 -0.326309 2.864070 0
M  V30 6 C 2.368200 0.315802 2.709589 0
M  V30 7 N 2.433614 1.639477 2.877867 0
M  V30 8 C 3.700697 2.263841 2.709099 0
M  V30 9 C 4.398296 2.511684 3.887527 0
M  V30 10 C 5.641538 3.113441 3.870141 0
M  V30 11 C 6.143112 3.449404 2.631059 0
M  V30 12 C 5.491636 3.225027 1.438715 0
M  V30 13 C 4.245329 2.620105 1.477733 0
M  V30 14 C 1.354100 2.375705 3.195172 0
M  V30 15 C 1.512970 3.753475 3.352542 0
M  V30 16 C 0.425678 4.542056 3.679134 0
M  V30 17 Cl 0.444670 6.270411 3.912380 0
M  V30 18 C -0.818040 3.954773 3.848086 0
M  V30 19 C -0.997319 2.574091 3.694150 0
M  V30 20 C 0.113576 1.797041 3.364447 0
M  V30 21 C 0.025572 0.410285 3.192057 0
M  V30 22 O -1.149810 -0.041089 3.365831 0
M  V30 23 C -0.987397 -3.531261 -0.207090 0
M  V30 24 C -1.394787 -4.813298 -0.508987 0
M  V30 25 C -2.041256 -5.089472 -1.698362 0
M  V30 26 C -2.294786 -4.088110 -2.613154 0
M  V30 27 N -2.944207 -4.192303 -3.874586 0
M  V30 28 C -3.224547 -3.169499 -4.894133 0
M  V30 29 C -4.746032 -3.234506 -4.945365 0
M  V30 30 C -4.940609 -4.752184 -4.962950 0 CFG=2
M  V30 31 O -5.815234 -5.078119 -3.938026 0
M  V30 32 C -3.553878 -5.305949 -4.602202 0
M  V30 33 N -1.889176 -2.841589 -2.300598 0
M  V30 34 C -1.258871 -2.557108 -1.147108 0
M  V30 35 H -0.022068 -1.207798 0.829881 0
M  V30 36 H 1.776047 -2.327672 2.792458 0
M  V30 37 H 0.210301 -2.143609 3.582523 0
M  V30 38 H 3.162179 -0.347450 2.460024 0
M  V30 39 H 4.019501 2.254135 4.868593 0
M  V30 40 H 6.213306 3.321731 4.770815 0
M  V30 41 H 7.106933 3.924399 2.503403 0
M  V30 42 H 5.874727 3.483157 0.471079 0
M  V30 43 H 3.649748 2.398211 0.603686 0
M  V30 44 H 2.446593 4.278670 3.236857 0
M  V30 45 H -1.759650 4.462520 4.106911 0
M  V30 46 H -1.943061 2.086805 3.816908 0
M  V30 47 H -1.242748 -5.682111 0.147455 0
M  V30 48 H -2.396435 -6.068432 -2.018205 0
M  V30 49 H -2.860353 -2.167436 -4.533869 0
M  V30 50 H -2.771174 -3.419029 -5.873335 0
M  V30 51 H -5.158645 -2.767243 -4.045346 0
M  V30 52 H -5.143244 -2.793238 -5.881125 0
M  V30 53 H -5.269154 -5.067945 -5.960691 0
M  V30 54 H -6.145673 -5.987245 -4.085155 0
M  V30 55 H -3.018287 -5.444435 -5.577373 0
M  V30 56 H -3.645959 -6.219046 -4.016060 0
M  V30 57 H -0.955090 -1.541236 -0.946621 0
M  V30 END ATOM
M  V30 BEGIN BOND
M  V30 1 2 1 2
M  V30 2 1 2 3
M  V30 3 1 3 4
M  V30 4 1 4 5
M  V30 5 2 5 6
M  V30 6 1 6 7
M  V30 7 1 7 8
M  V30 8 2 8 9
M  V30 9 1 9 10
M  V30 10 2 10 11
M  V30 11 1 11 12
M  V30 12 2 12 13
M  V30 13 1 7 14
M  V30 14 2 14 15
M  V30 15 1 15 16
M  V30 16 1 16 17
M  V30 17 2 16 18
M  V30 18 1 18 19
M  V30 19 2 19 20
M  V30 20 1 20 21
M  V30 21 2 21 22
M  V30 22 1 2 23
M  V30 23 2 23 24
M  V30 24 1 24 25
M  V30 25 2 25 26
M  V30 26 1 26 27
M  V30 27 1 27 28
M  V30 28 1 28 29
M  V30 29 1 29 30
M  V30 30 1 30 31
M  V30 31 1 30 32
M  V30 32 1 26 33
M  V30 33 2 33 34
M  V30 34 1 21 5
M  V30 35 1 34 23
M  V30 36 1 13 8
M  V30 37 1 20 14
M  V30 38 1 32 27
M  V30 39 1 3 35
M  V30 40 1 4 36
M  V30 41 1 4 37
M  V30 42 1 6 38
M  V30 43 1 9 39
M  V30 44 1 10 40
M  V30 45 1 11 41
M  V30 46 1 12 42
M  V30 47 1 13 43
M  V30 48 1 15 44
M  V30 49 1 18 45
M  V30 50 1 19 46
M  V30 51 1 24 47
M  V30 52 1 25 48
M  V30 53 1 28 49
M  V30 54 1 28 50
M  V30 55 1 29 51
M  V30 56 1 29 52
M  V30 57 1 30 53 CFG=3
M  V30 58 1 31 54
M  V30 59 1 32 55
M  V30 60 1 32 56
M  V30 61 1 34 57
M  V30 END BOND
M  V30 END CTAB
M  END
>  <Dataset>  (698) 
ChEMBL_Kinases

>  <Ligand_Instance>  (698) 
nan

>  <PDB_ID>  (698) 
nan

>  <Standardized_SMILES>  (698) 
O=C(NCc1cn(-c2ccccc2)c2cc(Cl)ccc2c1=O)c1ccc(N2CC[C@H](O)C2)nc1

>  <Name>  (698) 
nan

>  <Pocket>  (698) 
nan

>  <ATP_Site>  (698) 
nan

>  <Peripheral>  (698) 
nan

>  <Num_H_Atoms_ProtBoundConf>  (698) 
nan

>  <Num_Resolved_Atoms>  (698) 
nan

>  <Num_Not_Resolved_Atoms>  (698) 
nan

$$$$
CHEMBL3679506
     RDKit          3D

  0  0  0  0  0  0  0  0  0  0999 V3000
M  V30 BEGIN CTAB
M  V30 COUNTS 63 67 0 0 0
M  V30 BEGIN ATOM
M  V30 1 N 2.520407 -1.093743 6.227644 0
M  V30 2 C 3.471353 -0.133984 5.797836 0
M  V30 3 O 3.010824 1.026008 5.525196 0
M  V30 4 C 4.816204 -0.775631 5.781407 0
M  V30 5 C 5.794288 0.279246 5.316655 0
M  V30 6 C 5.513567 0.782700 3.945921 0
M  V30 7 N 4.742861 -0.212509 3.185443 0
M  V30 8 C 3.658005 0.124238 2.329223 0
M  V30 9 C 2.885305 -0.775127 1.625707 0
M  V30 10 C 1.849611 -0.354431 0.814785 0
M  V30 11 C 1.593730 0.998006 0.715822 0
M  V30 12 C 0.524892 1.546561 -0.110854 0
M  V30 13 O 0.303195 2.784661 -0.211511 0
M  V30 14 N -0.369130 0.757993 -0.880826 0
M  V30 15 C -1.383241 1.477970 -1.654149 0
M  V30 16 C -2.166027 0.421429 -2.348934 0
M  V30 17 C -3.412772 0.051910 -1.936131 0
M  V30 18 N -4.127902 -0.916618 -2.575991 0
M  V30 19 C -5.398322 -1.154810 -1.995728 0
M  V30 20 C -5.392637 -1.727464 -0.737956 0
M  V30 21 C -6.572476 -2.014479 -0.054165 0
M  V30 22 C -7.768159 -1.705719 -0.678314 0
M  V30 23 C -7.765770 -1.127469 -1.949258 0
M  V30 24 C -6.596543 -0.840716 -2.632335 0
M  V30 25 C -3.630062 -1.554161 -3.650451 0
M  V30 26 C -4.430676 -2.532597 -4.243409 0
M  V30 27 C -3.901349 -3.183520 -5.354301 0
M  V30 28 Cl -4.839306 -4.426931 -6.162216 0
M  V30 29 C -2.627162 -2.824334 -5.797856 0
M  V30 30 C -1.866949 -1.852434 -5.185046 0
M  V30 31 C -2.371802 -1.199202 -4.088184 0
M  V30 32 C -1.645244 -0.223132 -3.447352 0
M  V30 33 O -0.494055 0.104076 -3.845131 0
M  V30 34 C 2.376320 1.887994 1.426604 0
M  V30 35 N 3.390535 1.438690 2.217551 0
M  V30 36 C 5.250765 -1.545927 3.440755 0
M  V30 37 C 4.716457 -1.926681 4.817534 0
M  V30 38 H 1.808247 -1.535664 5.593252 0
M  V30 39 H 1.822656 -1.804368 6.565111 0
M  V30 40 H 5.103414 -1.159575 6.780379 0
M  V30 41 H 6.802950 -0.185709 5.325534 0
M  V30 42 H 5.785302 1.103653 6.047797 0
M  V30 43 H 4.841194 1.681962 4.054426 0
M  V30 44 H 6.384538 1.116399 3.382602 0
M  V30 45 H 3.120020 -1.824737 1.731771 0
M  V30 46 H 1.247872 -1.062030 0.266185 0
M  V30 47 H -0.265271 -0.291914 -0.861525 0
M  V30 48 H -0.941879 2.103736 -2.455305 0
M  V30 49 H -1.984381 2.080505 -0.974289 0
M  V30 50 H -3.788422 0.590507 -1.058842 0
M  V30 51 H -4.484002 -1.983013 -0.217517 0
M  V30 52 H -6.631508 -2.459196 0.926229 0
M  V30 53 H -8.715047 -1.918271 -0.168860 0
M  V30 54 H -8.689967 -0.885388 -2.439844 0
M  V30 55 H -6.553530 -0.398245 -3.605824 0
M  V30 56 H -5.414301 -2.760026 -3.842677 0
M  V30 57 H -2.277525 -3.359063 -6.654817 0
M  V30 58 H -0.883204 -1.582681 -5.536979 0
M  V30 59 H 2.215572 2.957379 1.381990 0
M  V30 60 H 4.843179 -2.264208 2.713024 0
M  V30 61 H 6.358630 -1.580845 3.496447 0
M  V30 62 H 5.306002 -2.771273 5.228061 0
M  V30 63 H 3.675262 -2.320370 4.715980 0
M  V30 END ATOM
M  V30 BEGIN BOND
M  V30 1 1 1 2
M  V30 2 2 2 3
M  V30 3 1 2 4
M  V30 4 1 4 5
M  V30 5 1 5 6
M  V30 6 1 6 7
M  V30 7 1 7 8
M  V30 8 2 8 9
M  V30 9 1 9 10
M  V30 10 2 10 11
M  V30 11 1 11 12
M  V30 12 2 12 13
M  V30 13 1 12 14
M  V30 14 1 14 15
M  V30 15 1 15 16
M  V30 16 2 16 17
M  V30 17 1 17 18
M  V30 18 1 18 19
M  V30 19 2 19 20
M  V30 20 1 20 21
M  V30 21 2 21 22
M  V30 22 1 22 23
M  V30 23 2 23 24
M  V30 24 1 18 25
M  V30 25 2 25 26
M  V30 26 1 26 27
M  V30 27 1 27 28
M  V30 28 2 27 29
M  V30 29 1 29 30
M  V30 30 2 30 31
M  V30 31 1 31 32
M  V30 32 2 32 33
M  V30 33 1 11 34
M  V30 34 2 34 35
M  V30 35 1 7 36
M  V30 36 1 36 37
M  V30 37 1 37 4
M  V30 38 1 35 8
M  V30 39 1 32 16
M  V30 40 1 24 19
M  V30 41 1 31 25
M  V30 42 1 1 38
M  V30 43 1 1 39
M  V30 44 1 4 40
M  V30 45 1 5 41
M  V30 46 1 5 42
M  V30 47 1 6 43
M  V30 48 1 6 44
M  V30 49 1 9 45
M  V30 50 1 10 46
M  V30 51 1 14 47
M  V30 52 1 15 48
M  V30 53 1 15 49
M  V30 54 1 17 50
M  V30 55 1 20 51
M  V30 56 1 21 52
M  V30 57 1 22 53
M  V30 58 1 23 54
M  V30 59 1 24 55
M  V30 60 1 26 56
M  V30 61 1 29 57
M  V30 62 1 30 58
M  V30 63 1 34 59
M  V30 64 1 36 60
M  V30 65 1 36 61
M  V30 66 1 37 62
M  V30 67 1 37 63
M  V30 END BOND
M  V30 END CTAB
M  END
>  <Dataset>  (699) 
ChEMBL_Kinases

>  <Ligand_Instance>  (699) 
nan

>  <PDB_ID>  (699) 
nan

>  <Standardized_SMILES>  (699) 
NC(=O)C1CCN(c2ccc(C(=O)NCc3cn(-c4ccccc4)c4cc(Cl)ccc4c3=O)cn2)CC1

>  <Name>  (699) 
nan

>  <Pocket>  (699) 
nan

>  <ATP_Site>  (699) 
nan

>  <Peripheral>  (699) 
nan

>  <Num_H_Atoms_ProtBoundConf>  (699) 
nan

>  <Num_Resolved_Atoms>  (699) 
nan

>  <Num_Not_Resolved_Atoms>  (699) 
nan

$$$$
CHEMBL3679505
     RDKit          3D

  0  0  0  0  0  0  0  0  0  0999 V3000
M  V30 BEGIN CTAB
M  V30 COUNTS 58 62 0 0 0
M  V30 BEGIN ATOM
M  V30 1 O -1.118637 -3.655772 1.967069 0
M  V30 2 C -1.057396 -2.610631 1.185444 0
M  V30 3 N -0.344166 -1.601350 1.826045 0
M  V30 4 C 0.309059 -1.504214 3.092102 0
M  V30 5 C 0.945037 -0.147465 3.195314 0
M  V30 6 C 2.314256 -0.169158 3.065142 0
M  V30 7 N 2.974695 1.028889 3.181058 0
M  V30 8 C 4.383834 1.072310 3.054766 0
M  V30 9 C 5.184156 0.561435 4.092043 0
M  V30 10 C 6.541626 0.668842 3.803252 0
M  V30 11 C 7.062324 1.198915 2.663388 0
M  V30 12 C 6.222916 1.675197 1.703269 0
M  V30 13 C 4.861361 1.616964 1.890347 0
M  V30 14 C 2.309238 2.163193 3.409493 0
M  V30 15 C 2.922986 3.433721 3.547740 0
M  V30 16 C 2.260405 4.615982 3.788292 0
M  V30 17 Cl 3.079327 6.130357 3.945291 0
M  V30 18 C 0.905159 4.454966 3.888827 0
M  V30 19 C 0.118967 3.348521 3.792224 0
M  V30 20 C 0.914073 2.245348 3.549085 0
M  V30 21 C 0.286632 1.045356 3.431144 0
M  V30 22 O -0.969659 0.784543 3.507914 0
M  V30 23 C -1.726027 -2.799834 -0.075033 0
M  V30 24 C -2.629753 -3.874935 -0.177401 0
M  V30 25 C -3.275918 -4.143051 -1.395700 0
M  V30 26 C -2.977005 -3.299978 -2.475755 0
M  V30 27 N -3.593821 -3.542979 -3.731830 0
M  V30 28 C -4.660040 -4.534721 -3.885383 0
M  V30 29 C -5.515056 -4.064331 -5.046516 0
M  V30 30 N -5.629480 -2.623313 -5.069317 0
M  V30 31 C -4.367693 -1.973886 -5.338225 0
M  V30 32 C -3.182919 -2.813225 -4.917765 0
M  V30 33 N -2.123087 -2.296485 -2.334218 0
M  V30 34 C -1.489076 -2.016422 -1.179601 0
M  V30 35 H -0.334284 -0.756852 1.163299 0
M  V30 36 H -0.413445 -1.599254 3.952285 0
M  V30 37 H 1.082857 -2.285267 3.165782 0
M  V30 38 H 2.882114 -1.070140 2.880036 0
M  V30 39 H 4.637703 0.174210 4.936957 0
M  V30 40 H 7.118464 0.255647 4.649460 0
M  V30 41 H 8.160104 1.160509 2.703114 0
M  V30 42 H 6.734482 2.090158 0.828721 0
M  V30 43 H 4.228791 2.000760 1.103037 0
M  V30 44 H 4.010891 3.447268 3.452145 0
M  V30 45 H 0.367323 5.408166 4.075097 0
M  V30 46 H -0.944716 3.241160 3.871536 0
M  V30 47 H -2.877704 -4.536557 0.639381 0
M  V30 48 H -3.966221 -4.973249 -1.445294 0
M  V30 49 H -4.194378 -5.477102 -4.217680 0
M  V30 50 H -5.242712 -4.693116 -2.976182 0
M  V30 51 H -5.170389 -4.430601 -6.029740 0
M  V30 52 H -6.528673 -4.475851 -4.885554 0
M  V30 53 H -6.167206 -2.245543 -4.278295 0
M  V30 54 H -4.249059 -1.716791 -6.405817 0
M  V30 55 H -4.335183 -1.046175 -4.736077 0
M  V30 56 H -2.887342 -3.529279 -5.731866 0
M  V30 57 H -2.318266 -2.180325 -4.671029 0
M  V30 58 H -0.784862 -1.172419 -1.108558 0
M  V30 END ATOM
M  V30 BEGIN BOND
M  V30 1 2 1 2
M  V30 2 1 2 3
M  V30 3 1 3 4
M  V30 4 1 4 5
M  V30 5 2 5 6
M  V30 6 1 6 7
M  V30 7 1 7 8
M  V30 8 2 8 9
M  V30 9 1 9 10
M  V30 10 2 10 11
M  V30 11 1 11 12
M  V30 12 2 12 13
M  V30 13 1 7 14
M  V30 14 2 14 15
M  V30 15 1 15 16
M  V30 16 1 16 17
M  V30 17 2 16 18
M  V30 18 1 18 19
M  V30 19 2 19 20
M  V30 20 1 20 21
M  V30 21 2 21 22
M  V30 22 1 2 23
M  V30 23 2 23 24
M  V30 24 1 24 25
M  V30 25 2 25 26
M  V30 26 1 26 27
M  V30 27 1 27 28
M  V30 28 1 28 29
M  V30 29 1 29 30
M  V30 30 1 30 31
M  V30 31 1 31 32
M  V30 32 1 26 33
M  V30 33 2 33 34
M  V30 34 1 21 5
M  V30 35 1 34 23
M  V30 36 1 13 8
M  V30 37 1 20 14
M  V30 38 1 32 27
M  V30 39 1 3 35
M  V30 40 1 4 36
M  V30 41 1 4 37
M  V30 42 1 6 38
M  V30 43 1 9 39
M  V30 44 1 10 40
M  V30 45 1 11 41
M  V30 46 1 12 42
M  V30 47 1 13 43
M  V30 48 1 15 44
M  V30 49 1 18 45
M  V30 50 1 19 46
M  V30 51 1 24 47
M  V30 52 1 25 48
M  V30 53 1 28 49
M  V30 54 1 28 50
M  V30 55 1 29 51
M  V30 56 1 29 52
M  V30 57 1 30 53
M  V30 58 1 31 54
M  V30 59 1 31 55
M  V30 60 1 32 56
M  V30 61 1 32 57
M  V30 62 1 34 58
M  V30 END BOND
M  V30 END CTAB
M  END
>  <Dataset>  (700) 
ChEMBL_Kinases

>  <Ligand_Instance>  (700) 
nan

>  <PDB_ID>  (700) 
nan

>  <Standardized_SMILES>  (700) 
O=C(NCc1cn(-c2ccccc2)c2cc(Cl)ccc2c1=O)c1ccc(N2CCNCC2)nc1

>  <Name>  (700) 
nan

>  <Pocket>  (700) 
nan

>  <ATP_Site>  (700) 
nan

>  <Peripheral>  (700) 
nan

>  <Num_H_Atoms_ProtBoundConf>  (700) 
nan

>  <Num_Resolved_Atoms>  (700) 
nan

>  <Num_Not_Resolved_Atoms>  (700) 
nan

$$$$
CHEMBL3679504
     RDKit          3D

  0  0  0  0  0  0  0  0  0  0999 V3000
M  V30 BEGIN CTAB
M  V30 COUNTS 56 60 0 0 0
M  V30 BEGIN ATOM
M  V30 1 O 0.548650 -3.901767 1.015958 0
M  V30 2 C -0.163409 -3.044221 0.454215 0
M  V30 3 N -0.146624 -1.772490 1.092738 0
M  V30 4 C 0.697572 -1.753191 2.260448 0
M  V30 5 C 0.683504 -0.408083 2.893422 0
M  V30 6 C 1.755803 0.459712 2.743916 0
M  V30 7 N 1.859219 1.695183 3.264823 0
M  V30 8 C 3.036309 2.453797 3.010416 0
M  V30 9 C 3.388772 3.022557 1.786353 0
M  V30 10 C 4.569156 3.732493 1.701581 0
M  V30 11 C 5.381468 3.872377 2.814769 0
M  V30 12 C 5.040934 3.313433 4.028961 0
M  V30 13 C 3.847962 2.593802 4.121825 0
M  V30 14 C 0.813451 2.114068 3.998736 0
M  V30 15 C 0.929406 3.395837 4.534708 0
M  V30 16 C -0.129036 3.874876 5.303101 0
M  V30 17 Cl -0.044656 5.479110 6.005166 0
M  V30 18 C -1.253927 3.099371 5.522658 0
M  V30 19 C -1.360676 1.821160 4.983571 0
M  V30 20 C -0.308525 1.346444 4.220452 0
M  V30 21 C -0.363862 0.068072 3.654771 0
M  V30 22 O -1.367858 -0.668598 3.830008 0
M  V30 23 C -0.948750 -3.301766 -0.747694 0
M  V30 24 C -1.744022 -2.376134 -1.392096 0
M  V30 25 C -2.470031 -2.668874 -2.529018 0
M  V30 26 C -2.355953 -3.963549 -2.996796 0
M  V30 27 N -3.052075 -4.399665 -4.161090 0
M  V30 28 C -3.128954 -5.672520 -4.884982 0
M  V30 29 C -2.618761 -5.185688 -6.249762 0
M  V30 30 C -3.213155 -3.773955 -6.352422 0
M  V30 31 C -3.954352 -3.632106 -5.021812 0
M  V30 32 N -1.583963 -4.877524 -2.378666 0
M  V30 33 C -0.872397 -4.597558 -1.267728 0
M  V30 34 H -0.704155 -0.976098 0.712959 0
M  V30 35 H 0.456215 -2.561495 2.978142 0
M  V30 36 H 1.728970 -1.947777 1.906078 0
M  V30 37 H 2.578578 0.075245 2.141057 0
M  V30 38 H 2.668672 2.840751 0.993173 0
M  V30 39 H 4.796697 4.158236 0.715047 0
M  V30 40 H 6.295878 4.437826 2.696750 0
M  V30 41 H 5.703388 3.444957 4.877967 0
M  V30 42 H 3.643043 2.183882 5.099591 0
M  V30 43 H 1.813017 4.009896 4.364556 0
M  V30 44 H -2.055983 3.523475 6.133271 0
M  V30 45 H -2.243108 1.220634 5.159509 0
M  V30 46 H -1.786744 -1.375961 -0.968519 0
M  V30 47 H -3.082772 -1.946011 -3.021077 0
M  V30 48 H -4.165661 -6.011913 -5.041822 0
M  V30 49 H -2.467788 -6.438578 -4.448307 0
M  V30 50 H -2.933660 -5.826034 -7.073979 0
M  V30 51 H -1.506403 -5.100097 -6.165950 0
M  V30 52 H -3.892322 -3.739613 -7.215815 0
M  V30 53 H -2.416807 -3.025945 -6.350313 0
M  V30 54 H -4.095239 -2.601516 -4.706684 0
M  V30 55 H -4.926196 -4.152822 -5.143310 0
M  V30 56 H -0.255338 -5.341507 -0.780009 0
M  V30 END ATOM
M  V30 BEGIN BOND
M  V30 1 2 1 2
M  V30 2 1 2 3
M  V30 3 1 3 4
M  V30 4 1 4 5
M  V30 5 2 5 6
M  V30 6 1 6 7
M  V30 7 1 7 8
M  V30 8 2 8 9
M  V30 9 1 9 10
M  V30 10 2 10 11
M  V30 11 1 11 12
M  V30 12 2 12 13
M  V30 13 1 7 14
M  V30 14 2 14 15
M  V30 15 1 15 16
M  V30 16 1 16 17
M  V30 17 2 16 18
M  V30 18 1 18 19
M  V30 19 2 19 20
M  V30 20 1 20 21
M  V30 21 2 21 22
M  V30 22 1 2 23
M  V30 23 2 23 24
M  V30 24 1 24 25
M  V30 25 2 25 26
M  V30 26 1 26 27
M  V30 27 1 27 28
M  V30 28 1 28 29
M  V30 29 1 29 30
M  V30 30 1 30 31
M  V30 31 1 26 32
M  V30 32 2 32 33
M  V30 33 1 21 5
M  V30 34 1 33 23
M  V30 35 1 13 8
M  V30 36 1 20 14
M  V30 37 1 31 27
M  V30 38 1 3 34
M  V30 39 1 4 35
M  V30 40 1 4 36
M  V30 41 1 6 37
M  V30 42 1 9 38
M  V30 43 1 10 39
M  V30 44 1 11 40
M  V30 45 1 12 41
M  V30 46 1 13 42
M  V30 47 1 15 43
M  V30 48 1 18 44
M  V30 49 1 19 45
M  V30 50 1 24 46
M  V30 51 1 25 47
M  V30 52 1 28 48
M  V30 53 1 28 49
M  V30 54 1 29 50
M  V30 55 1 29 51
M  V30 56 1 30 52
M  V30 57 1 30 53
M  V30 58 1 31 54
M  V30 59 1 31 55
M  V30 60 1 33 56
M  V30 END BOND
M  V30 END CTAB
M  END
>  <Dataset>  (701) 
ChEMBL_Kinases

>  <Ligand_Instance>  (701) 
nan

>  <PDB_ID>  (701) 
nan

>  <Standardized_SMILES>  (701) 
O=C(NCc1cn(-c2ccccc2)c2cc(Cl)ccc2c1=O)c1ccc(N2CCCC2)nc1

>  <Name>  (701) 
nan

>  <Pocket>  (701) 
nan

>  <ATP_Site>  (701) 
nan

>  <Peripheral>  (701) 
nan

>  <Num_H_Atoms_ProtBoundConf>  (701) 
nan

>  <Num_Resolved_Atoms>  (701) 
nan

>  <Num_Not_Resolved_Atoms>  (701) 
nan

$$$$
CHEMBL3679552
     RDKit          3D

  0  0  0  0  0  0  0  0  0  0999 V3000
M  V30 BEGIN CTAB
M  V30 COUNTS 57 60 0 0 0
M  V30 BEGIN ATOM
M  V30 1 C 6.750460 -1.657351 6.881358 0
M  V30 2 O 5.928926 -0.996401 5.970104 0
M  V30 3 C 5.163994 -1.579153 4.995100 0
M  V30 4 O 5.603583 -2.681508 5.404202 0
M  V30 5 C 4.304891 -0.886269 4.041648 0
M  V30 6 C 4.279500 0.489539 4.153392 0
M  V30 7 C 3.453388 1.102380 3.229407 0
M  V30 8 C 2.733654 0.385569 2.295232 0
M  V30 9 C 1.891143 1.128135 1.363133 0
M  V30 10 O 1.862825 2.393964 1.451992 0
M  V30 11 N 1.089984 0.587847 0.355883 0
M  V30 12 C 0.322586 1.526812 -0.468504 0
M  V30 13 C -0.423453 0.681869 -1.438990 0
M  V30 14 C -1.545195 -0.035620 -1.083440 0
M  V30 15 C -1.988653 0.054441 0.278344 0
M  V30 16 O -1.607879 0.645180 1.292920 0
M  V30 17 O -3.088228 -0.585264 0.833175 0
M  V30 18 C -3.467474 -0.449185 2.190027 0
M  V30 19 N -2.266983 -0.818134 -1.904263 0
M  V30 20 C -3.418843 -1.545421 -1.507381 0
M  V30 21 C -3.443492 -2.755714 -0.834779 0
M  V30 22 C -4.631997 -3.371150 -0.500766 0
M  V30 23 C -5.846041 -2.787827 -0.833215 0
M  V30 24 C -5.842455 -1.582582 -1.503237 0
M  V30 25 C -4.651802 -0.971366 -1.834878 0
M  V30 26 C -1.848441 -0.906522 -3.201977 0
M  V30 27 C -2.575597 -1.711257 -4.081631 0
M  V30 28 C -2.153948 -1.806990 -5.410219 0
M  V30 29 Cl -3.065302 -2.820146 -6.527000 0
M  V30 30 C -1.037163 -1.110345 -5.822405 0
M  V30 31 C -0.291896 -0.297972 -4.961198 0
M  V30 32 C -0.729992 -0.218765 -3.647099 0
M  V30 33 C -0.001902 0.585810 -2.769306 0
M  V30 34 O 1.007217 1.217649 -3.134350 0
M  V30 35 C 2.804350 -0.992176 2.237511 0
M  V30 36 C 3.615105 -1.668270 3.136513 0
M  V30 37 H 7.685769 -2.052507 6.436503 0
M  V30 38 H 6.248539 -2.446233 7.480363 0
M  V30 39 H 7.081561 -0.896534 7.638014 0
M  V30 40 H 4.859760 1.007068 4.900350 0
M  V30 41 H 3.392047 2.192347 3.268857 0
M  V30 42 H 1.084849 -0.458248 0.248863 0
M  V30 43 H -0.321934 2.191022 0.103656 0
M  V30 44 H 1.060351 2.146108 -1.022803 0
M  V30 45 H -4.220286 -1.254239 2.372968 0
M  V30 46 H -3.994611 0.511755 2.356619 0
M  V30 47 H -2.585229 -0.522053 2.828079 0
M  V30 48 H -2.475327 -3.158113 -0.604486 0
M  V30 49 H -4.594504 -4.327513 0.031265 0
M  V30 50 H -6.800961 -3.269481 -0.571864 0
M  V30 51 H -6.809245 -1.160422 -1.744470 0
M  V30 52 H -4.783758 -0.021978 -2.363458 0
M  V30 53 H -3.453946 -2.267205 -3.784210 0
M  V30 54 H -0.745918 -1.218151 -6.876724 0
M  V30 55 H 0.580421 0.235476 -5.318033 0
M  V30 56 H 2.244972 -1.563969 1.510104 0
M  V30 57 H 3.724595 -2.744689 3.156195 0
M  V30 END ATOM
M  V30 BEGIN BOND
M  V30 1 1 1 2
M  V30 2 1 2 3
M  V30 3 2 3 4
M  V30 4 1 3 5
M  V30 5 2 5 6
M  V30 6 1 6 7
M  V30 7 2 7 8
M  V30 8 1 8 9
M  V30 9 2 9 10
M  V30 10 1 9 11
M  V30 11 1 11 12
M  V30 12 1 12 13
M  V30 13 2 13 14
M  V30 14 1 14 15
M  V30 15 2 15 16
M  V30 16 1 15 17
M  V30 17 1 17 18
M  V30 18 1 14 19
M  V30 19 1 19 20
M  V30 20 2 20 21
M  V30 21 1 21 22
M  V30 22 2 22 23
M  V30 23 1 23 24
M  V30 24 2 24 25
M  V30 25 1 19 26
M  V30 26 2 26 27
M  V30 27 1 27 28
M  V30 28 1 28 29
M  V30 29 2 28 30
M  V30 30 1 30 31
M  V30 31 2 31 32
M  V30 32 1 32 33
M  V30 33 2 33 34
M  V30 34 1 8 35
M  V30 35 2 35 36
M  V30 36 1 36 5
M  V30 37 1 33 13
M  V30 38 1 25 20
M  V30 39 1 32 26
M  V30 40 1 1 37
M  V30 41 1 1 38
M  V30 42 1 1 39
M  V30 43 1 6 40
M  V30 44 1 7 41
M  V30 45 1 11 42
M  V30 46 1 12 43
M  V30 47 1 12 44
M  V30 48 1 18 45
M  V30 49 1 18 46
M  V30 50 1 18 47
M  V30 51 1 21 48
M  V30 52 1 22 49
M  V30 53 1 23 50
M  V30 54 1 24 51
M  V30 55 1 25 52
M  V30 56 1 27 53
M  V30 57 1 30 54
M  V30 58 1 31 55
M  V30 59 1 35 56
M  V30 60 1 36 57
M  V30 END BOND
M  V30 END CTAB
M  END
>  <Dataset>  (702) 
ChEMBL_Kinases

>  <Ligand_Instance>  (702) 
nan

>  <PDB_ID>  (702) 
nan

>  <Standardized_SMILES>  (702) 
COC(=O)c1ccc(C(=O)NCc2c(C(=O)OC)n(-c3ccccc3)c3cc(Cl)ccc3c2=O)cc1

>  <Name>  (702) 
nan

>  <Pocket>  (702) 
nan

>  <ATP_Site>  (702) 
nan

>  <Peripheral>  (702) 
nan

>  <Num_H_Atoms_ProtBoundConf>  (702) 
nan

>  <Num_Resolved_Atoms>  (702) 
nan

>  <Num_Not_Resolved_Atoms>  (702) 
nan

$$$$
CHEMBL3679487
     RDKit          3D

  0  0  0  0  0  0  0  0  0  0999 V3000
M  V30 BEGIN CTAB
M  V30 COUNTS 63 67 0 0 0
M  V30 BEGIN ATOM
M  V30 1 O 1.796583 -2.833983 2.488185 0
M  V30 2 C 0.962823 -2.144113 1.822950 0
M  V30 3 N 0.854149 -0.803574 2.251483 0
M  V30 4 C 1.570197 -0.180264 3.339884 0
M  V30 5 C 1.148463 1.242119 3.412824 0
M  V30 6 C 1.968103 2.271211 2.968122 0
M  V30 7 N 1.626109 3.569680 3.018597 0
M  V30 8 C 2.601704 4.480824 2.518300 0
M  V30 9 C 2.631874 5.179169 1.329050 0
M  V30 10 C 3.696988 6.012208 1.058436 0
M  V30 11 C 4.719176 6.139199 1.978940 0
M  V30 12 C 4.731840 5.453157 3.197089 0
M  V30 13 C 3.631079 4.619323 3.427596 0
M  V30 14 C 0.434124 3.933625 3.519067 0
M  V30 15 C 0.107041 5.271578 3.558068 0
M  V30 16 C -1.123377 5.632661 4.073969 0
M  V30 17 Cl -1.602657 7.331863 4.151707 0
M  V30 18 C -1.984634 4.657891 4.532880 0
M  V30 19 C -1.609772 3.334744 4.471324 0
M  V30 20 C -0.397592 2.917637 3.967196 0
M  V30 21 C -0.088794 1.573776 3.935987 0
M  V30 22 O -0.899136 0.729778 4.361769 0
M  V30 23 C 0.259867 -2.797704 0.753289 0
M  V30 24 C 0.626993 -4.069438 0.405563 0
M  V30 25 C 0.018008 -4.819127 -0.598405 0
M  V30 26 C -1.036492 -4.195095 -1.272183 0
M  V30 27 N -1.722808 -4.914563 -2.319230 0
M  V30 28 C -1.198468 -6.212228 -2.699140 0
M  V30 29 C -2.083758 -6.959353 -3.647417 0
M  V30 30 C -2.876985 -6.044812 -4.540331 0
M  V30 31 C -3.808403 -6.905691 -5.393258 0
M  V30 32 O -4.559013 -6.090841 -6.230123 0
M  V30 33 C -3.765612 -5.180941 -3.670753 0
M  V30 34 C -2.887623 -4.253633 -2.880916 0
M  V30 35 N -1.385726 -2.947579 -0.920767 0
M  V30 36 C -0.790291 -2.236097 0.048330 0
M  V30 37 H 0.155695 -0.253865 1.663012 0
M  V30 38 H 1.254947 -0.691126 4.273217 0
M  V30 39 H 2.664168 -0.207937 3.193091 0
M  V30 40 H 2.933803 1.964211 2.564364 0
M  V30 41 H 1.774733 4.982581 0.711563 0
M  V30 42 H 3.674484 6.530946 0.120922 0
M  V30 43 H 5.523678 6.809920 1.704630 0
M  V30 44 H 5.552868 5.594433 3.866721 0
M  V30 45 H 3.734118 4.130864 4.403278 0
M  V30 46 H 0.800631 6.014033 3.193004 0
M  V30 47 H -2.955013 4.904388 4.946764 0
M  V30 48 H -2.299282 2.595536 4.838476 0
M  V30 49 H 1.440333 -4.569399 0.913490 0
M  V30 50 H 0.368543 -5.809059 -0.810847 0
M  V30 51 H -1.073113 -6.814486 -1.750014 0
M  V30 52 H -0.227554 -6.057129 -3.208346 0
M  V30 53 H -2.842569 -7.551197 -3.069693 0
M  V30 54 H -1.514986 -7.713093 -4.237193 0
M  V30 55 H -2.278185 -5.373978 -5.165880 0
M  V30 56 H -3.227164 -7.596411 -6.009455 0
M  V30 57 H -4.505887 -7.446515 -4.717189 0
M  V30 58 H -4.266484 -6.165643 -7.185773 0
M  V30 59 H -4.455709 -4.646976 -4.340704 0
M  V30 60 H -4.320833 -5.875308 -2.988838 0
M  V30 61 H -3.507229 -3.781890 -2.076799 0
M  V30 62 H -2.526010 -3.436580 -3.534923 0
M  V30 63 H -1.097430 -1.230297 0.305332 0
M  V30 END ATOM
M  V30 BEGIN BOND
M  V30 1 2 1 2
M  V30 2 1 2 3
M  V30 3 1 3 4
M  V30 4 1 4 5
M  V30 5 2 5 6
M  V30 6 1 6 7
M  V30 7 1 7 8
M  V30 8 2 8 9
M  V30 9 1 9 10
M  V30 10 2 10 11
M  V30 11 1 11 12
M  V30 12 2 12 13
M  V30 13 1 7 14
M  V30 14 2 14 15
M  V30 15 1 15 16
M  V30 16 1 16 17
M  V30 17 2 16 18
M  V30 18 1 18 19
M  V30 19 2 19 20
M  V30 20 1 20 21
M  V30 21 2 21 22
M  V30 22 1 2 23
M  V30 23 2 23 24
M  V30 24 1 24 25
M  V30 25 2 25 26
M  V30 26 1 26 27
M  V30 27 1 27 28
M  V30 28 1 28 29
M  V30 29 1 29 30
M  V30 30 1 30 31
M  V30 31 1 31 32
M  V30 32 1 30 33
M  V30 33 1 33 34
M  V30 34 1 26 35
M  V30 35 2 35 36
M  V30 36 1 21 5
M  V30 37 1 36 23
M  V30 38 1 13 8
M  V30 39 1 20 14
M  V30 40 1 34 27
M  V30 41 1 3 37
M  V30 42 1 4 38
M  V30 43 1 4 39
M  V30 44 1 6 40
M  V30 45 1 9 41
M  V30 46 1 10 42
M  V30 47 1 11 43
M  V30 48 1 12 44
M  V30 49 1 13 45
M  V30 50 1 15 46
M  V30 51 1 18 47
M  V30 52 1 19 48
M  V30 53 1 24 49
M  V30 54 1 25 50
M  V30 55 1 28 51
M  V30 56 1 28 52
M  V30 57 1 29 53
M  V30 58 1 29 54
M  V30 59 1 30 55
M  V30 60 1 31 56
M  V30 61 1 31 57
M  V30 62 1 32 58
M  V30 63 1 33 59
M  V30 64 1 33 60
M  V30 65 1 34 61
M  V30 66 1 34 62
M  V30 67 1 36 63
M  V30 END BOND
M  V30 END CTAB
M  END
>  <Dataset>  (703) 
ChEMBL_Kinases

>  <Ligand_Instance>  (703) 
nan

>  <PDB_ID>  (703) 
nan

>  <Standardized_SMILES>  (703) 
O=C(NCc1cn(-c2ccccc2)c2cc(Cl)ccc2c1=O)c1ccc(N2CCC(CO)CC2)nc1

>  <Name>  (703) 
nan

>  <Pocket>  (703) 
nan

>  <ATP_Site>  (703) 
nan

>  <Peripheral>  (703) 
nan

>  <Num_H_Atoms_ProtBoundConf>  (703) 
nan

>  <Num_Resolved_Atoms>  (703) 
nan

>  <Num_Not_Resolved_Atoms>  (703) 
nan

$$$$
CHEMBL3679488
     RDKit          3D

  0  0  0  0  0  0  0  0  0  0999 V3000
M  V30 BEGIN CTAB
M  V30 COUNTS 62 66 0 0 0
M  V30 BEGIN ATOM
M  V30 1 O 0.099864 -3.510554 2.671594 0
M  V30 2 C -0.238238 -2.631866 1.837606 0
M  V30 3 N -0.121975 -1.221062 2.055848 0
M  V30 4 C 0.442510 -0.985464 3.394413 0
M  V30 5 C 0.527715 0.511299 3.541827 0
M  V30 6 C 1.673144 1.269499 3.459219 0
M  V30 7 N 1.580927 2.600740 3.615989 0
M  V30 8 C 2.801280 3.363020 3.524366 0
M  V30 9 C 3.329051 4.019233 4.630694 0
M  V30 10 C 4.507054 4.738602 4.489954 0
M  V30 11 C 5.164043 4.812952 3.265825 0
M  V30 12 C 4.599249 4.147869 2.211520 0
M  V30 13 C 3.417073 3.401557 2.267942 0
M  V30 14 C 0.410247 3.237896 3.852715 0
M  V30 15 C 0.409500 4.627386 4.001884 0
M  V30 16 C -0.783496 5.276645 4.242829 0
M  V30 17 Cl -0.938569 6.995541 4.450121 0
M  V30 18 C -1.959448 4.571336 4.335976 0
M  V30 19 C -1.940020 3.199144 4.185829 0
M  V30 20 C -0.756483 2.502469 3.941036 0
M  V30 21 C -0.673698 1.144183 3.782603 0
M  V30 22 O -1.789960 0.539661 3.877085 0
M  V30 23 C -0.777366 -3.151910 0.586193 0
M  V30 24 C -0.795598 -4.518210 0.368710 0
M  V30 25 C -1.306586 -5.095546 -0.807725 0
M  V30 26 C -1.817416 -4.269104 -1.799925 0
M  V30 27 N -2.353522 -4.738321 -3.033696 0
M  V30 28 C -3.022297 -3.751461 -3.863246 0
M  V30 29 C -2.172725 -3.131703 -4.907095 0
M  V30 30 C -1.119500 -4.152110 -5.346431 0
M  V30 31 C -1.892342 -5.391016 -5.715288 0
M  V30 32 C -1.638329 -6.439519 -4.701749 0
M  V30 33 C -2.225764 -6.104842 -3.418167 0
M  V30 34 N -1.796169 -2.933937 -1.578729 0
M  V30 35 C -1.302752 -2.400058 -0.446441 0
M  V30 36 H -0.409951 -0.522861 1.335857 0
M  V30 37 H -0.202014 -1.443653 4.146257 0
M  V30 38 H 1.483242 -1.345578 3.422417 0
M  V30 39 H 2.575494 0.716933 3.270326 0
M  V30 40 H 2.801234 3.946873 5.567069 0
M  V30 41 H 4.948919 5.265272 5.338535 0
M  V30 42 H 6.083432 5.369015 3.138132 0
M  V30 43 H 5.086754 4.181781 1.229570 0
M  V30 44 H 3.036035 2.904321 1.388133 0
M  V30 45 H 1.300528 5.228377 3.937045 0
M  V30 46 H -2.957832 4.974278 4.522582 0
M  V30 47 H -2.839591 2.585839 4.248920 0
M  V30 48 H -0.427749 -5.237418 1.067681 0
M  V30 49 H -1.316649 -6.157946 -0.969312 0
M  V30 50 H -3.928726 -4.192736 -4.350124 0
M  V30 51 H -3.445070 -2.929802 -3.217416 0
M  V30 52 H -2.708201 -2.705717 -5.750149 0
M  V30 53 H -1.589856 -2.331789 -4.393714 0
M  V30 54 H -0.428078 -4.286266 -4.505882 0
M  V30 55 H -0.597748 -3.713266 -6.220523 0
M  V30 56 H -2.969733 -5.208723 -5.891969 0
M  V30 57 H -1.465735 -5.743991 -6.678994 0
M  V30 58 H -2.023040 -7.405770 -5.098036 0
M  V30 59 H -0.541703 -6.562491 -4.588277 0
M  V30 60 H -2.659726 -6.610505 -3.036882 0
M  V30 61 H -2.840493 -6.804392 -2.890913 0
M  V30 62 H -1.304325 -1.324378 -0.309909 0
M  V30 END ATOM
M  V30 BEGIN BOND
M  V30 1 2 1 2
M  V30 2 1 2 3
M  V30 3 1 3 4
M  V30 4 1 4 5
M  V30 5 2 5 6
M  V30 6 1 6 7
M  V30 7 1 7 8
M  V30 8 2 8 9
M  V30 9 1 9 10
M  V30 10 2 10 11
M  V30 11 1 11 12
M  V30 12 2 12 13
M  V30 13 1 7 14
M  V30 14 2 14 15
M  V30 15 1 15 16
M  V30 16 1 16 17
M  V30 17 2 16 18
M  V30 18 1 18 19
M  V30 19 2 19 20
M  V30 20 1 20 21
M  V30 21 2 21 22
M  V30 22 1 2 23
M  V30 23 2 23 24
M  V30 24 1 24 25
M  V30 25 2 25 26
M  V30 26 1 26 27
M  V30 27 1 27 28
M  V30 28 1 28 29
M  V30 29 1 29 30
M  V30 30 1 30 31
M  V30 31 1 31 32
M  V30 32 1 32 33
M  V30 33 1 26 34
M  V30 34 2 34 35
M  V30 35 1 21 5
M  V30 36 1 35 23
M  V30 37 1 13 8
M  V30 38 1 20 14
M  V30 39 1 33 27
M  V30 40 1 3 36
M  V30 41 1 4 37
M  V30 42 1 4 38
M  V30 43 1 6 39
M  V30 44 1 9 40
M  V30 45 1 10 41
M  V30 46 1 11 42
M  V30 47 1 12 43
M  V30 48 1 13 44
M  V30 49 1 15 45
M  V30 50 1 18 46
M  V30 51 1 19 47
M  V30 52 1 24 48
M  V30 53 1 25 49
M  V30 54 1 28 50
M  V30 55 1 28 51
M  V30 56 1 29 52
M  V30 57 1 29 53
M  V30 58 1 30 54
M  V30 59 1 30 55
M  V30 60 1 31 56
M  V30 61 1 31 57
M  V30 62 1 32 58
M  V30 63 1 32 59
M  V30 64 1 33 60
M  V30 65 1 33 61
M  V30 66 1 35 62
M  V30 END BOND
M  V30 END CTAB
M  END
>  <Dataset>  (704) 
ChEMBL_Kinases

>  <Ligand_Instance>  (704) 
nan

>  <PDB_ID>  (704) 
nan

>  <Standardized_SMILES>  (704) 
O=C(NCc1cn(-c2ccccc2)c2cc(Cl)ccc2c1=O)c1ccc(N2CCCCCC2)nc1

>  <Name>  (704) 
nan

>  <Pocket>  (704) 
nan

>  <ATP_Site>  (704) 
nan

>  <Peripheral>  (704) 
nan

>  <Num_H_Atoms_ProtBoundConf>  (704) 
nan

>  <Num_Resolved_Atoms>  (704) 
nan

>  <Num_Not_Resolved_Atoms>  (704) 
nan

$$$$
CHEMBL3679489
     RDKit          3D

  0  0  0  0  0  0  0  0  0  0999 V3000
M  V30 BEGIN CTAB
M  V30 COUNTS 65 69 0 0 0
M  V30 BEGIN ATOM
M  V30 1 C 7.637332 1.822269 6.052545 0
M  V30 2 S 6.345587 0.635539 5.834924 0
M  V30 3 O 6.602276 -0.536784 6.754696 0
M  V30 4 O 6.316247 0.146657 4.421053 0
M  V30 5 C 4.746394 1.263631 6.269360 0
M  V30 6 C 3.754051 0.173346 6.054238 0
M  V30 7 C 2.589859 0.507955 5.192331 0
M  V30 8 N 2.872970 1.324730 4.050849 0
M  V30 9 C 2.099179 1.287208 2.859019 0
M  V30 10 C 1.014587 0.455446 2.677833 0
M  V30 11 C 0.249541 0.398328 1.531979 0
M  V30 12 C 0.576685 1.225884 0.478526 0
M  V30 13 C -0.111913 1.299372 -0.803802 0
M  V30 14 O 0.195458 2.094441 -1.736818 0
M  V30 15 N -1.221959 0.478724 -1.166592 0
M  V30 16 C -1.818105 0.660646 -2.490620 0
M  V30 17 C -2.928306 -0.332556 -2.584872 0
M  V30 18 C -2.732490 -1.477432 -3.349506 0
M  V30 19 N -3.667139 -2.439304 -3.502882 0
M  V30 20 C -3.369621 -3.571154 -4.309296 0
M  V30 21 C -2.642483 -4.705278 -4.031434 0
M  V30 22 C -2.485050 -5.684707 -4.985582 0
M  V30 23 C -3.056737 -5.542723 -6.240077 0
M  V30 24 C -3.780204 -4.423817 -6.529749 0
M  V30 25 C -3.945187 -3.432372 -5.578643 0
M  V30 26 C -4.831529 -2.245586 -2.869912 0
M  V30 27 C -5.756943 -3.266523 -3.060687 0
M  V30 28 C -7.001846 -3.157293 -2.440453 0
M  V30 29 Cl -8.179712 -4.411935 -2.654925 0
M  V30 30 C -7.243258 -2.032109 -1.667215 0
M  V30 31 C -6.315512 -1.002341 -1.472303 0
M  V30 32 C -5.093993 -1.134833 -2.095895 0
M  V30 33 C -4.113668 -0.152100 -1.950571 0
M  V30 34 O -4.347142 0.855266 -1.250894 0
M  V30 35 C 1.663794 2.065679 0.648845 0
M  V30 36 N 2.363443 2.065144 1.797853 0
M  V30 37 C 3.997046 2.247051 4.072833 0
M  V30 38 C 4.359051 2.499809 5.502846 0
M  V30 39 H 7.702019 2.189664 7.079922 0
M  V30 40 H 7.485672 2.682822 5.360833 0
M  V30 41 H 8.571254 1.325468 5.709849 0
M  V30 42 H 4.751298 1.574210 7.349426 0
M  V30 43 H 3.341387 -0.148800 7.043100 0
M  V30 44 H 4.223448 -0.768025 5.643060 0
M  V30 45 H 1.797240 1.057476 5.777458 0
M  V30 46 H 2.141071 -0.453415 4.854550 0
M  V30 47 H 0.700858 -0.216911 3.459844 0
M  V30 48 H -0.596871 -0.252791 1.395132 0
M  V30 49 H -1.571132 -0.227941 -0.467027 0
M  V30 50 H -1.053283 0.421867 -3.255680 0
M  V30 51 H -2.190164 1.698731 -2.615016 0
M  V30 52 H -1.780492 -1.596443 -3.843504 0
M  V30 53 H -2.248661 -4.702340 -3.026699 0
M  V30 54 H -1.892353 -6.525148 -4.643956 0
M  V30 55 H -2.890654 -6.355895 -6.942850 0
M  V30 56 H -4.217105 -4.343989 -7.530084 0
M  V30 57 H -4.545192 -2.585824 -5.931672 0
M  V30 58 H -5.546322 -4.143601 -3.673280 0
M  V30 59 H -8.220691 -2.012736 -1.220272 0
M  V30 60 H -6.564895 -0.159350 -0.861190 0
M  V30 61 H 1.963866 2.737636 -0.151089 0
M  V30 62 H 4.864521 1.822641 3.504809 0
M  V30 63 H 3.737049 3.200104 3.609902 0
M  V30 64 H 5.144384 3.282016 5.542588 0
M  V30 65 H 3.471982 2.934490 6.009634 0
M  V30 END ATOM
M  V30 BEGIN BOND
M  V30 1 1 1 2
M  V30 2 2 2 3
M  V30 3 2 2 4
M  V30 4 1 2 5
M  V30 5 1 5 6
M  V30 6 1 6 7
M  V30 7 1 7 8
M  V30 8 1 8 9
M  V30 9 2 9 10
M  V30 10 1 10 11
M  V30 11 2 11 12
M  V30 12 1 12 13
M  V30 13 2 13 14
M  V30 14 1 13 15
M  V30 15 1 15 16
M  V30 16 1 16 17
M  V30 17 2 17 18
M  V30 18 1 18 19
M  V30 19 1 19 20
M  V30 20 2 20 21
M  V30 21 1 21 22
M  V30 22 2 22 23
M  V30 23 1 23 24
M  V30 24 2 24 25
M  V30 25 1 19 26
M  V30 26 2 26 27
M  V30 27 1 27 28
M  V30 28 1 28 29
M  V30 29 2 28 30
M  V30 30 1 30 31
M  V30 31 2 31 32
M  V30 32 1 32 33
M  V30 33 2 33 34
M  V30 34 1 12 35
M  V30 35 2 35 36
M  V30 36 1 8 37
M  V30 37 1 37 38
M  V30 38 1 38 5
M  V30 39 1 36 9
M  V30 40 1 33 17
M  V30 41 1 25 20
M  V30 42 1 32 26
M  V30 43 1 1 39
M  V30 44 1 1 40
M  V30 45 1 1 41
M  V30 46 1 5 42
M  V30 47 1 6 43
M  V30 48 1 6 44
M  V30 49 1 7 45
M  V30 50 1 7 46
M  V30 51 1 10 47
M  V30 52 1 11 48
M  V30 53 1 15 49
M  V30 54 1 16 50
M  V30 55 1 16 51
M  V30 56 1 18 52
M  V30 57 1 21 53
M  V30 58 1 22 54
M  V30 59 1 23 55
M  V30 60 1 24 56
M  V30 61 1 25 57
M  V30 62 1 27 58
M  V30 63 1 30 59
M  V30 64 1 31 60
M  V30 65 1 35 61
M  V30 66 1 37 62
M  V30 67 1 37 63
M  V30 68 1 38 64
M  V30 69 1 38 65
M  V30 END BOND
M  V30 END CTAB
M  END
>  <Dataset>  (705) 
ChEMBL_Kinases

>  <Ligand_Instance>  (705) 
nan

>  <PDB_ID>  (705) 
nan

>  <Standardized_SMILES>  (705) 
CS(=O)(=O)C1CCN(c2ccc(C(=O)NCc3cn(-c4ccccc4)c4cc(Cl)ccc4c3=O)cn2)CC1

>  <Name>  (705) 
nan

>  <Pocket>  (705) 
nan

>  <ATP_Site>  (705) 
nan

>  <Peripheral>  (705) 
nan

>  <Num_H_Atoms_ProtBoundConf>  (705) 
nan

>  <Num_Resolved_Atoms>  (705) 
nan

>  <Num_Not_Resolved_Atoms>  (705) 
nan

$$$$
CHEMBL3679490
     RDKit          3D

  0  0  0  0  0  0  0  0  0  0999 V3000
M  V30 BEGIN CTAB
M  V30 COUNTS 57 61 0 0 0
M  V30 BEGIN ATOM
M  V30 1 O -0.789208 -4.049429 2.178327 0
M  V30 2 C -0.773551 -3.122307 1.316727 0
M  V30 3 N -0.248341 -1.874960 1.721157 0
M  V30 4 C 0.260611 -1.643362 3.071079 0
M  V30 5 C 0.720995 -0.226717 3.106937 0
M  V30 6 C 2.019107 0.245587 3.068108 0
M  V30 7 N 2.263370 1.564150 3.108403 0
M  V30 8 C 3.623800 1.995138 3.065224 0
M  V30 9 C 4.345807 2.306983 4.182119 0
M  V30 10 C 5.660057 2.720665 4.100330 0
M  V30 11 C 6.283825 2.830060 2.867096 0
M  V30 12 C 5.564223 2.517007 1.723061 0
M  V30 13 C 4.258288 2.108992 1.846102 0
M  V30 14 C 1.309995 2.511700 3.187024 0
M  V30 15 C 1.638408 3.866828 3.224503 0
M  V30 16 C 0.568666 4.754454 3.305457 0
M  V30 17 Cl 0.936391 6.484009 3.355375 0
M  V30 18 C -0.762099 4.370120 3.349165 0
M  V30 19 C -1.030633 3.004183 3.308630 0
M  V30 20 C -0.002473 2.082209 3.228205 0
M  V30 21 C -0.292060 0.734049 3.188783 0
M  V30 22 O -1.509929 0.398628 3.229489 0
M  V30 23 C -1.299313 -3.433893 -0.007675 0
M  V30 24 C -1.778618 -4.707372 -0.235403 0
M  V30 25 C -2.284710 -5.041341 -1.476839 0
M  V30 26 C -2.312583 -4.105171 -2.490735 0
M  V30 27 N -2.793209 -4.265110 -3.820847 0
M  V30 28 C -2.846858 -3.333845 -4.958918 0
M  V30 29 C -4.369739 -3.262348 -5.126683 0
M  V30 30 C -4.660854 -4.766183 -5.191885 0 CFG=1
M  V30 31 O -4.717171 -5.115808 -6.538374 0
M  V30 32 C -3.398573 -5.357704 -4.562124 0
M  V30 33 N -1.834190 -2.858191 -2.239626 0
M  V30 34 C -1.337503 -2.514382 -1.037000 0
M  V30 35 H -0.254284 -1.137831 0.980590 0
M  V30 36 H -0.590639 -1.738032 3.755998 0
M  V30 37 H 1.083424 -2.350535 3.296947 0
M  V30 38 H 2.767423 -0.523666 3.005442 0
M  V30 39 H 3.889542 2.232460 5.158935 0
M  V30 40 H 6.279440 2.980607 4.953381 0
M  V30 41 H 7.300629 3.140122 2.665628 0
M  V30 42 H 5.977119 2.577329 0.739990 0
M  V30 43 H 3.666850 1.855207 0.954880 0
M  V30 44 H 2.659259 4.195909 3.192277 0
M  V30 45 H -1.530086 5.137491 3.412182 0
M  V30 46 H -2.080015 2.699616 3.342975 0
M  V30 47 H -1.791649 -5.494357 0.503548 0
M  V30 48 H -2.684088 -6.005054 -1.762907 0
M  V30 49 H -2.425313 -2.346613 -4.685542 0
M  V30 50 H -2.380824 -3.757881 -5.850484 0
M  V30 51 H -4.797067 -2.875628 -4.177385 0
M  V30 52 H -4.664009 -2.723620 -6.024396 0
M  V30 53 H -5.567949 -5.030735 -4.653070 0
M  V30 54 H -3.911818 -4.803317 -7.006980 0
M  V30 55 H -2.686458 -5.638568 -5.369182 0
M  V30 56 H -3.639885 -6.210842 -3.901773 0
M  V30 57 H -0.969513 -1.512455 -0.885154 0
M  V30 END ATOM
M  V30 BEGIN BOND
M  V30 1 2 1 2
M  V30 2 1 2 3
M  V30 3 1 3 4
M  V30 4 1 4 5
M  V30 5 2 5 6
M  V30 6 1 6 7
M  V30 7 1 7 8
M  V30 8 2 8 9
M  V30 9 1 9 10
M  V30 10 2 10 11
M  V30 11 1 11 12
M  V30 12 2 12 13
M  V30 13 1 7 14
M  V30 14 2 14 15
M  V30 15 1 15 16
M  V30 16 1 16 17
M  V30 17 2 16 18
M  V30 18 1 18 19
M  V30 19 2 19 20
M  V30 20 1 20 21
M  V30 21 2 21 22
M  V30 22 1 2 23
M  V30 23 2 23 24
M  V30 24 1 24 25
M  V30 25 2 25 26
M  V30 26 1 26 27
M  V30 27 1 27 28
M  V30 28 1 28 29
M  V30 29 1 29 30
M  V30 30 1 30 31
M  V30 31 1 30 32
M  V30 32 1 26 33
M  V30 33 2 33 34
M  V30 34 1 21 5
M  V30 35 1 34 23
M  V30 36 1 13 8
M  V30 37 1 20 14
M  V30 38 1 32 27
M  V30 39 1 3 35
M  V30 40 1 4 36
M  V30 41 1 4 37
M  V30 42 1 6 38
M  V30 43 1 9 39
M  V30 44 1 10 40
M  V30 45 1 11 41
M  V30 46 1 12 42
M  V30 47 1 13 43
M  V30 48 1 15 44
M  V30 49 1 18 45
M  V30 50 1 19 46
M  V30 51 1 24 47
M  V30 52 1 25 48
M  V30 53 1 28 49
M  V30 54 1 28 50
M  V30 55 1 29 51
M  V30 56 1 29 52
M  V30 57 1 30 53 CFG=1
M  V30 58 1 31 54
M  V30 59 1 32 55
M  V30 60 1 32 56
M  V30 61 1 34 57
M  V30 END BOND
M  V30 END CTAB
M  END
>  <Dataset>  (706) 
ChEMBL_Kinases

>  <Ligand_Instance>  (706) 
nan

>  <PDB_ID>  (706) 
nan

>  <Standardized_SMILES>  (706) 
O=C(NCc1cn(-c2ccccc2)c2cc(Cl)ccc2c1=O)c1ccc(N2CC[C@@H](O)C2)nc1

>  <Name>  (706) 
nan

>  <Pocket>  (706) 
nan

>  <ATP_Site>  (706) 
nan

>  <Peripheral>  (706) 
nan

>  <Num_H_Atoms_ProtBoundConf>  (706) 
nan

>  <Num_Resolved_Atoms>  (706) 
nan

>  <Num_Not_Resolved_Atoms>  (706) 
nan

$$$$
CHEMBL3679491
     RDKit          3D

  0  0  0  0  0  0  0  0  0  0999 V3000
M  V30 BEGIN CTAB
M  V30 COUNTS 63 67 0 0 0
M  V30 BEGIN ATOM
M  V30 1 C 1.934570 0.864373 5.581726 0
M  V30 2 O 2.452387 1.528894 4.483774 0
M  V30 3 C 3.422023 2.472650 4.818787 0
M  V30 4 C 4.754267 2.150093 4.173938 0
M  V30 5 C 4.769719 2.545432 2.717305 0
M  V30 6 N 3.407689 2.848772 2.285763 0
M  V30 7 C 2.627207 2.083232 1.375611 0
M  V30 8 C 1.345202 2.304671 0.914417 0
M  V30 9 C 0.764619 1.425033 0.020888 0
M  V30 10 C 1.430063 0.307714 -0.440055 0
M  V30 11 C 0.744127 -0.567099 -1.382026 0
M  V30 12 O -0.418417 -0.243438 -1.718936 0
M  V30 13 N 1.302615 -1.750263 -1.936549 0
M  V30 14 C 0.606101 -2.601718 -2.867948 0
M  V30 15 C -0.650095 -3.148946 -2.304269 0
M  V30 16 C -1.842122 -2.579784 -2.734505 0
M  V30 17 N -3.020263 -3.053202 -2.239306 0
M  V30 18 C -4.233305 -2.470823 -2.678574 0
M  V30 19 C -4.615177 -1.435033 -1.819321 0
M  V30 20 C -5.790605 -0.716790 -2.065762 0
M  V30 21 C -6.580458 -1.021344 -3.152948 0
M  V30 22 C -6.184763 -2.047632 -3.988291 0
M  V30 23 C -5.034149 -2.762466 -3.760673 0
M  V30 24 C -2.980398 -4.062400 -1.345261 0
M  V30 25 C -4.215998 -4.495857 -0.882078 0
M  V30 26 C -4.215366 -5.531574 0.037730 0
M  V30 27 Cl -5.722560 -6.176274 0.706105 0
M  V30 28 C -3.049735 -6.121003 0.487545 0
M  V30 29 C -1.824759 -5.679833 0.018175 0
M  V30 30 C -1.810895 -4.648633 -0.898595 0
M  V30 31 C -0.607168 -4.181105 -1.390102 0
M  V30 32 O 0.501971 -4.645784 -1.047767 0
M  V30 33 C 2.706848 0.131301 0.050063 0
M  V30 34 N 3.275620 0.986057 0.920522 0
M  V30 35 C 2.986339 4.087046 2.959893 0
M  V30 36 C 2.996950 3.877174 4.443201 0
M  V30 37 H 1.157811 0.115806 5.249782 0
M  V30 38 H 1.467318 1.562731 6.311256 0
M  V30 39 H 2.694028 0.251820 6.108223 0
M  V30 40 H 3.531673 2.446773 5.922904 0
M  V30 41 H 4.977664 1.069281 4.311321 0
M  V30 42 H 5.561715 2.711865 4.692209 0
M  V30 43 H 5.112941 1.656247 2.145020 0
M  V30 44 H 5.412173 3.418531 2.581782 0
M  V30 45 H 0.890597 3.194767 1.318077 0
M  V30 46 H -0.241433 1.670680 -0.291291 0
M  V30 47 H 2.287380 -1.970914 -1.613030 0
M  V30 48 H 0.445172 -2.064366 -3.824550 0
M  V30 49 H 1.266808 -3.465424 -3.098285 0
M  V30 50 H -1.905210 -1.769986 -3.450750 0
M  V30 51 H -4.092064 -1.086220 -0.927161 0
M  V30 52 H -6.124144 0.098652 -1.419787 0
M  V30 53 H -7.507425 -0.468885 -3.364033 0
M  V30 54 H -6.769384 -2.325827 -4.854873 0
M  V30 55 H -4.642236 -3.571599 -4.345335 0
M  V30 56 H -5.184949 -4.092353 -1.178719 0
M  V30 57 H -2.980414 -6.925028 1.197108 0
M  V30 58 H -0.877623 -6.119274 0.348336 0
M  V30 59 H 3.248257 -0.744707 -0.301992 0
M  V30 60 H 3.706979 4.909024 2.736757 0
M  V30 61 H 1.973160 4.304134 2.623337 0
M  V30 62 H 3.723491 4.558188 4.965955 0
M  V30 63 H 1.980169 4.032074 4.835556 0
M  V30 END ATOM
M  V30 BEGIN BOND
M  V30 1 1 1 2
M  V30 2 1 2 3
M  V30 3 1 3 4
M  V30 4 1 4 5
M  V30 5 1 5 6
M  V30 6 1 6 7
M  V30 7 2 7 8
M  V30 8 1 8 9
M  V30 9 2 9 10
M  V30 10 1 10 11
M  V30 11 2 11 12
M  V30 12 1 11 13
M  V30 13 1 13 14
M  V30 14 1 14 15
M  V30 15 2 15 16
M  V30 16 1 16 17
M  V30 17 1 17 18
M  V30 18 2 18 19
M  V30 19 1 19 20
M  V30 20 2 20 21
M  V30 21 1 21 22
M  V30 22 2 22 23
M  V30 23 1 17 24
M  V30 24 2 24 25
M  V30 25 1 25 26
M  V30 26 1 26 27
M  V30 27 2 26 28
M  V30 28 1 28 29
M  V30 29 2 29 30
M  V30 30 1 30 31
M  V30 31 2 31 32
M  V30 32 1 10 33
M  V30 33 2 33 34
M  V30 34 1 6 35
M  V30 35 1 35 36
M  V30 36 1 36 3
M  V30 37 1 34 7
M  V30 38 1 31 15
M  V30 39 1 23 18
M  V30 40 1 30 24
M  V30 41 1 1 37
M  V30 42 1 1 38
M  V30 43 1 1 39
M  V30 44 1 3 40
M  V30 45 1 4 41
M  V30 46 1 4 42
M  V30 47 1 5 43
M  V30 48 1 5 44
M  V30 49 1 8 45
M  V30 50 1 9 46
M  V30 51 1 13 47
M  V30 52 1 14 48
M  V30 53 1 14 49
M  V30 54 1 16 50
M  V30 55 1 19 51
M  V30 56 1 20 52
M  V30 57 1 21 53
M  V30 58 1 22 54
M  V30 59 1 23 55
M  V30 60 1 25 56
M  V30 61 1 28 57
M  V30 62 1 29 58
M  V30 63 1 33 59
M  V30 64 1 35 60
M  V30 65 1 35 61
M  V30 66 1 36 62
M  V30 67 1 36 63
M  V30 END BOND
M  V30 END CTAB
M  END
>  <Dataset>  (707) 
ChEMBL_Kinases

>  <Ligand_Instance>  (707) 
nan

>  <PDB_ID>  (707) 
nan

>  <Standardized_SMILES>  (707) 
COC1CCN(c2ccc(C(=O)NCc3cn(-c4ccccc4)c4cc(Cl)ccc4c3=O)cn2)CC1

>  <Name>  (707) 
nan

>  <Pocket>  (707) 
nan

>  <ATP_Site>  (707) 
nan

>  <Peripheral>  (707) 
nan

>  <Num_H_Atoms_ProtBoundConf>  (707) 
nan

>  <Num_Resolved_Atoms>  (707) 
nan

>  <Num_Not_Resolved_Atoms>  (707) 
nan

$$$$
CHEMBL3679492
     RDKit          3D

  0  0  0  0  0  0  0  0  0  0999 V3000
M  V30 BEGIN CTAB
M  V30 COUNTS 66 70 0 0 0
M  V30 BEGIN ATOM
M  V30 1 C 7.472120 -0.051076 6.763715 0
M  V30 2 N 6.041170 0.249662 6.834436 0
M  V30 3 C 5.558421 1.410020 6.127757 0
M  V30 4 O 6.572389 1.930983 5.572651 0
M  V30 5 C 4.088936 1.593700 6.285646 0
M  V30 6 C 3.339494 0.373856 5.740443 0
M  V30 7 C 3.549539 0.243328 4.249812 0
M  V30 8 N 3.115179 1.387793 3.516831 0
M  V30 9 C 2.155899 1.468981 2.477166 0
M  V30 10 C 1.416205 0.375198 2.083814 0
M  V30 11 C 0.472707 0.388186 1.076130 0
M  V30 12 C 0.235158 1.579463 0.395469 0
M  V30 13 C -0.721955 1.760299 -0.689762 0
M  V30 14 O -0.891656 2.861334 -1.270677 0
M  V30 15 N -1.518420 0.695357 -1.150940 0
M  V30 16 C -2.467610 0.860341 -2.223415 0
M  V30 17 C -3.197467 -0.396905 -2.524387 0
M  V30 18 C -2.973256 -1.239941 -3.591850 0
M  V30 19 N -3.689293 -2.369403 -3.790540 0
M  V30 20 C -3.428810 -3.206961 -4.891694 0
M  V30 21 C -2.162804 -3.798491 -4.786446 0
M  V30 22 C -1.702492 -4.668997 -5.775919 0
M  V30 23 C -2.457642 -4.978337 -6.876961 0
M  V30 24 C -3.694140 -4.383681 -6.953303 0
M  V30 25 C -4.203341 -3.517086 -6.009819 0
M  V30 26 C -4.661971 -2.686822 -2.912011 0
M  V30 27 C -5.411708 -3.835278 -3.092125 0
M  V30 28 C -6.421204 -4.247971 -2.262812 0
M  V30 29 Cl -7.342193 -5.707955 -2.533988 0
M  V30 30 C -6.700614 -3.441102 -1.162186 0
M  V30 31 C -5.963186 -2.282908 -0.957934 0
M  V30 32 C -4.948741 -1.895807 -1.817654 0
M  V30 33 C -4.211656 -0.747426 -1.626424 0
M  V30 34 O -4.474905 -0.028531 -0.628439 0
M  V30 35 C 1.000789 2.664592 0.819702 0
M  V30 36 N 1.926036 2.616923 1.820538 0
M  V30 37 C 3.846016 2.507220 4.034692 0
M  V30 38 C 3.591320 2.784835 5.499284 0
M  V30 39 H 7.739559 -0.642763 7.648816 0
M  V30 40 H 8.061728 0.890134 6.830740 0
M  V30 41 H 7.669166 -0.613455 5.823406 0
M  V30 42 H 5.426190 -0.403784 7.405975 0
M  V30 43 H 3.816465 1.659678 7.361317 0
M  V30 44 H 3.676756 -0.556040 6.214585 0
M  V30 45 H 2.276099 0.515666 5.983867 0
M  V30 46 H 2.966633 -0.637603 3.925681 0
M  V30 47 H 4.608764 -0.013939 4.041623 0
M  V30 48 H 1.511889 -0.593781 2.535645 0
M  V30 49 H -0.101086 -0.460089 0.771510 0
M  V30 50 H -1.450401 -0.256368 -0.731095 0
M  V30 51 H -1.990669 1.313337 -3.118585 0
M  V30 52 H -3.212179 1.622026 -1.882113 0
M  V30 53 H -2.179114 -0.929170 -4.260652 0
M  V30 54 H -1.447452 -3.647723 -3.966155 0
M  V30 55 H -0.712352 -5.137102 -5.701753 0
M  V30 56 H -2.144843 -5.644928 -7.667151 0
M  V30 57 H -4.346298 -4.579475 -7.793723 0
M  V30 58 H -5.140316 -3.017243 -5.990207 0
M  V30 59 H -5.184162 -4.455687 -3.953610 0
M  V30 60 H -7.490138 -3.689679 -0.443429 0
M  V30 61 H -6.109768 -1.599888 -0.134125 0
M  V30 62 H 0.879012 3.627188 0.344110 0
M  V30 63 H 3.650316 3.450157 3.476182 0
M  V30 64 H 4.957826 2.327883 3.941276 0
M  V30 65 H 4.163837 3.698797 5.757993 0
M  V30 66 H 2.525005 2.932158 5.728308 0
M  V30 END ATOM
M  V30 BEGIN BOND
M  V30 1 1 1 2
M  V30 2 1 2 3
M  V30 3 2 3 4
M  V30 4 1 3 5
M  V30 5 1 5 6
M  V30 6 1 6 7
M  V30 7 1 7 8
M  V30 8 1 8 9
M  V30 9 2 9 10
M  V30 10 1 10 11
M  V30 11 2 11 12
M  V30 12 1 12 13
M  V30 13 2 13 14
M  V30 14 1 13 15
M  V30 15 1 15 16
M  V30 16 1 16 17
M  V30 17 2 17 18
M  V30 18 1 18 19
M  V30 19 1 19 20
M  V30 20 2 20 21
M  V30 21 1 21 22
M  V30 22 2 22 23
M  V30 23 1 23 24
M  V30 24 2 24 25
M  V30 25 1 19 26
M  V30 26 2 26 27
M  V30 27 1 27 28
M  V30 28 1 28 29
M  V30 29 2 28 30
M  V30 30 1 30 31
M  V30 31 2 31 32
M  V30 32 1 32 33
M  V30 33 2 33 34
M  V30 34 1 12 35
M  V30 35 2 35 36
M  V30 36 1 8 37
M  V30 37 1 37 38
M  V30 38 1 38 5
M  V30 39 1 36 9
M  V30 40 1 33 17
M  V30 41 1 25 20
M  V30 42 1 32 26
M  V30 43 1 1 39
M  V30 44 1 1 40
M  V30 45 1 1 41
M  V30 46 1 2 42
M  V30 47 1 5 43
M  V30 48 1 6 44
M  V30 49 1 6 45
M  V30 50 1 7 46
M  V30 51 1 7 47
M  V30 52 1 10 48
M  V30 53 1 11 49
M  V30 54 1 15 50
M  V30 55 1 16 51
M  V30 56 1 16 52
M  V30 57 1 18 53
M  V30 58 1 21 54
M  V30 59 1 22 55
M  V30 60 1 23 56
M  V30 61 1 24 57
M  V30 62 1 25 58
M  V30 63 1 27 59
M  V30 64 1 30 60
M  V30 65 1 31 61
M  V30 66 1 35 62
M  V30 67 1 37 63
M  V30 68 1 37 64
M  V30 69 1 38 65
M  V30 70 1 38 66
M  V30 END BOND
M  V30 END CTAB
M  END
>  <Dataset>  (708) 
ChEMBL_Kinases

>  <Ligand_Instance>  (708) 
nan

>  <PDB_ID>  (708) 
nan

>  <Standardized_SMILES>  (708) 
CNC(=O)C1CCN(c2ccc(C(=O)NCc3cn(-c4ccccc4)c4cc(Cl)ccc4c3=O)cn2)CC1

>  <Name>  (708) 
nan

>  <Pocket>  (708) 
nan

>  <ATP_Site>  (708) 
nan

>  <Peripheral>  (708) 
nan

>  <Num_H_Atoms_ProtBoundConf>  (708) 
nan

>  <Num_Resolved_Atoms>  (708) 
nan

>  <Num_Not_Resolved_Atoms>  (708) 
nan

$$$$
CHEMBL3679493
     RDKit          3D

  0  0  0  0  0  0  0  0  0  0999 V3000
M  V30 BEGIN CTAB
M  V30 COUNTS 62 66 0 0 0
M  V30 BEGIN ATOM
M  V30 1 N 3.828552 -1.377353 5.294755 0
M  V30 2 C 4.599238 -1.081061 4.112994 0
M  V30 3 O 4.801629 -2.215172 3.630954 0
M  V30 4 N 4.863249 0.320146 3.892954 0
M  V30 5 C 4.393676 1.372132 4.784844 0
M  V30 6 C 3.656163 2.455849 4.054925 0
M  V30 7 N 3.668527 2.115221 2.635859 0
M  V30 8 C 2.491699 1.919720 1.863012 0
M  V30 9 C 2.460442 1.634460 0.514039 0
M  V30 10 C 1.280884 1.453923 -0.181885 0
M  V30 11 C 0.062100 1.556193 0.468812 0
M  V30 12 C -1.185587 1.374850 -0.235797 0
M  V30 13 O -1.050766 1.142679 -1.486960 0
M  V30 14 N -2.423773 1.454527 0.435164 0
M  V30 15 C -3.662569 1.266663 -0.288992 0
M  V30 16 C -3.688545 -0.101119 -0.862071 0
M  V30 17 C -2.843511 -1.178556 -0.717254 0
M  V30 18 N -3.121212 -2.321193 -1.366010 0
M  V30 19 C -2.202223 -3.389153 -1.170832 0
M  V30 20 C -2.017752 -4.223660 -0.088828 0
M  V30 21 C -1.046939 -5.200106 -0.139698 0
M  V30 22 C -0.253987 -5.347623 -1.274700 0
M  V30 23 C -0.417882 -4.519153 -2.382315 0
M  V30 24 C -1.400022 -3.546643 -2.305212 0
M  V30 25 C -4.181538 -2.494761 -2.159752 0
M  V30 26 C -4.362173 -3.712504 -2.770826 0
M  V30 27 C -5.434401 -3.955930 -3.599573 0
M  V30 28 Cl -5.739732 -5.468420 -4.412734 0
M  V30 29 C -6.332207 -2.905299 -3.790836 0
M  V30 30 C -6.151166 -1.665534 -3.170489 0
M  V30 31 C -5.068862 -1.445678 -2.344337 0
M  V30 32 C -4.802984 -0.262314 -1.687758 0
M  V30 33 O -5.692026 0.621658 -1.940165 0
M  V30 34 C 0.163012 1.839663 1.800277 0
M  V30 35 N 1.311066 2.019869 2.498393 0
M  V30 36 C 5.020656 2.002443 2.124928 0
M  V30 37 C 5.623310 0.764039 2.755954 0
M  V30 38 H 2.969002 -1.297742 5.908855 0
M  V30 39 H 3.858449 -1.912593 6.187867 0
M  V30 40 H 3.709962 0.980809 5.554617 0
M  V30 41 H 5.325627 1.738696 5.302527 0
M  V30 42 H 2.656496 2.686266 4.442956 0
M  V30 43 H 4.299837 3.379748 4.148721 0
M  V30 44 H 3.406115 1.552062 -0.004991 0
M  V30 45 H 1.332305 1.228293 -1.256324 0
M  V30 46 H -2.507530 1.645067 1.447883 0
M  V30 47 H -3.599807 1.950660 -1.180178 0
M  V30 48 H -4.551368 1.479604 0.320940 0
M  V30 49 H -2.017857 -0.958533 -0.058306 0
M  V30 50 H -2.693784 -3.995325 0.707725 0
M  V30 51 H -0.955497 -5.820929 0.745105 0
M  V30 52 H 0.505723 -6.133251 -1.277410 0
M  V30 53 H 0.221810 -4.678776 -3.229779 0
M  V30 54 H -1.445312 -2.951881 -3.227228 0
M  V30 55 H -3.684298 -4.568155 -2.651622 0
M  V30 56 H -7.228141 -2.968304 -4.427291 0
M  V30 57 H -6.847554 -0.842692 -3.314907 0
M  V30 58 H -0.734270 1.938968 2.398736 0
M  V30 59 H 5.099572 2.003842 1.034184 0
M  V30 60 H 5.631891 2.878091 2.495432 0
M  V30 61 H 6.659198 0.971026 3.117205 0
M  V30 62 H 5.643908 -0.029996 2.008149 0
M  V30 END ATOM
M  V30 BEGIN BOND
M  V30 1 1 1 2
M  V30 2 2 2 3
M  V30 3 1 2 4
M  V30 4 1 4 5
M  V30 5 1 5 6
M  V30 6 1 6 7
M  V30 7 1 7 8
M  V30 8 2 8 9
M  V30 9 1 9 10
M  V30 10 2 10 11
M  V30 11 1 11 12
M  V30 12 2 12 13
M  V30 13 1 12 14
M  V30 14 1 14 15
M  V30 15 1 15 16
M  V30 16 2 16 17
M  V30 17 1 17 18
M  V30 18 1 18 19
M  V30 19 2 19 20
M  V30 20 1 20 21
M  V30 21 2 21 22
M  V30 22 1 22 23
M  V30 23 2 23 24
M  V30 24 1 18 25
M  V30 25 2 25 26
M  V30 26 1 26 27
M  V30 27 1 27 28
M  V30 28 2 27 29
M  V30 29 1 29 30
M  V30 30 2 30 31
M  V30 31 1 31 32
M  V30 32 2 32 33
M  V30 33 1 11 34
M  V30 34 2 34 35
M  V30 35 1 7 36
M  V30 36 1 36 37
M  V30 37 1 37 4
M  V30 38 1 35 8
M  V30 39 1 32 16
M  V30 40 1 24 19
M  V30 41 1 31 25
M  V30 42 1 1 38
M  V30 43 1 1 39
M  V30 44 1 5 40
M  V30 45 1 5 41
M  V30 46 1 6 42
M  V30 47 1 6 43
M  V30 48 1 9 44
M  V30 49 1 10 45
M  V30 50 1 14 46
M  V30 51 1 15 47
M  V30 52 1 15 48
M  V30 53 1 17 49
M  V30 54 1 20 50
M  V30 55 1 21 51
M  V30 56 1 22 52
M  V30 57 1 23 53
M  V30 58 1 24 54
M  V30 59 1 26 55
M  V30 60 1 29 56
M  V30 61 1 30 57
M  V30 62 1 34 58
M  V30 63 1 36 59
M  V30 64 1 36 60
M  V30 65 1 37 61
M  V30 66 1 37 62
M  V30 END BOND
M  V30 END CTAB
M  END
>  <Dataset>  (709) 
ChEMBL_Kinases

>  <Ligand_Instance>  (709) 
nan

>  <PDB_ID>  (709) 
nan

>  <Standardized_SMILES>  (709) 
NC(=O)N1CCN(c2ccc(C(=O)NCc3cn(-c4ccccc4)c4cc(Cl)ccc4c3=O)cn2)CC1

>  <Name>  (709) 
nan

>  <Pocket>  (709) 
nan

>  <ATP_Site>  (709) 
nan

>  <Peripheral>  (709) 
nan

>  <Num_H_Atoms_ProtBoundConf>  (709) 
nan

>  <Num_Resolved_Atoms>  (709) 
nan

>  <Num_Not_Resolved_Atoms>  (709) 
nan

$$$$
CHEMBL3679503
     RDKit          3D

  0  0  0  0  0  0  0  0  0  0999 V3000
M  V30 BEGIN CTAB
M  V30 COUNTS 65 69 0 0 0
M  V30 BEGIN ATOM
M  V30 1 O 2.681956 -2.702627 1.844868 0
M  V30 2 C 1.675843 -2.036363 1.431120 0
M  V30 3 N 1.487290 -0.795784 2.098093 0
M  V30 4 C 2.412649 -0.406893 3.143494 0
M  V30 5 C 1.964010 0.924938 3.652158 0
M  V30 6 C 2.525585 2.149894 3.368107 0
M  V30 7 N 2.044225 3.285409 3.875457 0
M  V30 8 C 2.688693 4.529223 3.525712 0
M  V30 9 C 3.366381 5.352305 4.402807 0
M  V30 10 C 3.937168 6.519391 3.928090 0
M  V30 11 C 3.843575 6.872530 2.611394 0
M  V30 12 C 3.158997 6.031397 1.750059 0
M  V30 13 C 2.565134 4.843828 2.175468 0
M  V30 14 C 0.974663 3.309321 4.701371 0
M  V30 15 C 0.489857 4.485230 5.218717 0
M  V30 16 C -0.603841 4.545527 6.070123 0
M  V30 17 Cl -1.201753 6.051677 6.715856 0
M  V30 18 C -1.202212 3.338114 6.384670 0
M  V30 19 C -0.741596 2.135180 5.882509 0
M  V30 20 C 0.360416 2.097874 5.027652 0
M  V30 21 C 0.858790 0.924834 4.502391 0
M  V30 22 O 0.234604 -0.101913 4.858400 0
M  V30 23 C 0.801735 -2.517290 0.363927 0
M  V30 24 C -0.296238 -1.833241 -0.127450 0
M  V30 25 C -1.074588 -2.345344 -1.141470 0
M  V30 26 C -0.745900 -3.578229 -1.680567 0
M  V30 27 N -1.519349 -4.142789 -2.736688 0
M  V30 28 C -1.333866 -5.438361 -3.363011 0
M  V30 29 C -1.415403 -5.198497 -4.868758 0
M  V30 30 N -2.783625 -4.940854 -5.207367 0
M  V30 31 C -3.506229 -6.101557 -5.619503 0
M  V30 32 C -4.932880 -5.878526 -5.993305 0
M  V30 33 O -5.739969 -5.372122 -5.008616 0
M  V30 34 C -3.474896 -4.240820 -4.175355 0
M  V30 35 C -2.617804 -3.383327 -3.288401 0
M  V30 36 N 0.328379 -4.245229 -1.197624 0
M  V30 37 C 1.103561 -3.744457 -0.194078 0
M  V30 38 H 0.676315 -0.197882 1.808340 0
M  V30 39 H 3.462346 -0.422725 2.834675 0
M  V30 40 H 2.307522 -1.144159 3.992232 0
M  V30 41 H 3.380511 2.115627 2.706169 0
M  V30 42 H 3.414716 5.032199 5.434696 0
M  V30 43 H 4.462959 7.132582 4.677790 0
M  V30 44 H 4.295506 7.788899 2.254590 0
M  V30 45 H 3.078613 6.308532 0.686706 0
M  V30 46 H 2.032634 4.207859 1.457979 0
M  V30 47 H 0.943129 5.429539 4.984096 0
M  V30 48 H -2.051218 3.333757 7.039019 0
M  V30 49 H -1.231586 1.184348 6.145175 0
M  V30 50 H -0.526940 -0.875589 0.313563 0
M  V30 51 H -1.932696 -1.779956 -1.504871 0
M  V30 52 H -0.314648 -5.823787 -3.135462 0
M  V30 53 H -2.132202 -6.138841 -3.024541 0
M  V30 54 H -0.822238 -4.284476 -5.087609 0
M  V30 55 H -0.940672 -6.023758 -5.425189 0
M  V30 56 H -2.998606 -6.538655 -6.526952 0
M  V30 57 H -3.453328 -6.910994 -4.832404 0
M  V30 58 H -4.971600 -5.154732 -6.851160 0
M  V30 59 H -5.361654 -6.857643 -6.322445 0
M  V30 60 H -6.469568 -6.002834 -4.753857 0
M  V30 61 H -4.023746 -4.940642 -3.489620 0
M  V30 62 H -4.269628 -3.623963 -4.659998 0
M  V30 63 H -3.280987 -3.043943 -2.448784 0
M  V30 64 H -2.235768 -2.464250 -3.775629 0
M  V30 65 H 1.968407 -4.304769 0.178034 0
M  V30 END ATOM
M  V30 BEGIN BOND
M  V30 1 2 1 2
M  V30 2 1 2 3
M  V30 3 1 3 4
M  V30 4 1 4 5
M  V30 5 2 5 6
M  V30 6 1 6 7
M  V30 7 1 7 8
M  V30 8 2 8 9
M  V30 9 1 9 10
M  V30 10 2 10 11
M  V30 11 1 11 12
M  V30 12 2 12 13
M  V30 13 1 7 14
M  V30 14 2 14 15
M  V30 15 1 15 16
M  V30 16 1 16 17
M  V30 17 2 16 18
M  V30 18 1 18 19
M  V30 19 2 19 20
M  V30 20 1 20 21
M  V30 21 2 21 22
M  V30 22 1 2 23
M  V30 23 2 23 24
M  V30 24 1 24 25
M  V30 25 2 25 26
M  V30 26 1 26 27
M  V30 27 1 27 28
M  V30 28 1 28 29
M  V30 29 1 29 30
M  V30 30 1 30 31
M  V30 31 1 31 32
M  V30 32 1 32 33
M  V30 33 1 30 34
M  V30 34 1 34 35
M  V30 35 1 26 36
M  V30 36 2 36 37
M  V30 37 1 21 5
M  V30 38 1 37 23
M  V30 39 1 13 8
M  V30 40 1 20 14
M  V30 41 1 35 27
M  V30 42 1 3 38
M  V30 43 1 4 39
M  V30 44 1 4 40
M  V30 45 1 6 41
M  V30 46 1 9 42
M  V30 47 1 10 43
M  V30 48 1 11 44
M  V30 49 1 12 45
M  V30 50 1 13 46
M  V30 51 1 15 47
M  V30 52 1 18 48
M  V30 53 1 19 49
M  V30 54 1 24 50
M  V30 55 1 25 51
M  V30 56 1 28 52
M  V30 57 1 28 53
M  V30 58 1 29 54
M  V30 59 1 29 55
M  V30 60 1 31 56
M  V30 61 1 31 57
M  V30 62 1 32 58
M  V30 63 1 32 59
M  V30 64 1 33 60
M  V30 65 1 34 61
M  V30 66 1 34 62
M  V30 67 1 35 63
M  V30 68 1 35 64
M  V30 69 1 37 65
M  V30 END BOND
M  V30 END CTAB
M  END
>  <Dataset>  (710) 
ChEMBL_Kinases

>  <Ligand_Instance>  (710) 
nan

>  <PDB_ID>  (710) 
nan

>  <Standardized_SMILES>  (710) 
O=C(NCc1cn(-c2ccccc2)c2cc(Cl)ccc2c1=O)c1ccc(N2CCN(CCO)CC2)nc1

>  <Name>  (710) 
nan

>  <Pocket>  (710) 
nan

>  <ATP_Site>  (710) 
nan

>  <Peripheral>  (710) 
nan

>  <Num_H_Atoms_ProtBoundConf>  (710) 
nan

>  <Num_Resolved_Atoms>  (710) 
nan

>  <Num_Not_Resolved_Atoms>  (710) 
nan

$$$$
CHEMBL3679495
     RDKit          3D

  0  0  0  0  0  0  0  0  0  0999 V3000
M  V30 BEGIN CTAB
M  V30 COUNTS 67 71 0 0 0
M  V30 BEGIN ATOM
M  V30 1 C 4.473274 1.857888 7.595303 0
M  V30 2 N 5.255524 0.959301 6.814811 0
M  V30 3 C 5.684164 -0.134589 7.664315 0
M  V30 4 C 4.616042 0.479426 5.605081 0
M  V30 5 C 3.348285 -0.247379 5.853712 0
M  V30 6 C 2.101509 0.340679 5.335348 0
M  V30 7 N 2.180249 1.228863 4.234512 0
M  V30 8 C 1.493522 1.232989 2.990799 0
M  V30 9 C 0.600806 0.238818 2.650781 0
M  V30 10 C -0.039467 0.297984 1.425047 0
M  V30 11 C 0.247447 1.361776 0.588391 0
M  V30 12 C -0.369041 1.520044 -0.726502 0
M  V30 13 O -0.139720 2.502979 -1.508365 0
M  V30 14 N -1.299363 0.609303 -1.308608 0
M  V30 15 C -1.892524 0.781673 -2.596195 0
M  V30 16 C -2.820029 -0.353241 -2.911022 0
M  V30 17 C -2.345564 -1.304971 -3.812442 0
M  V30 18 N -3.041952 -2.382320 -4.204695 0
M  V30 19 C -2.473016 -3.298044 -5.129537 0
M  V30 20 C -3.023011 -3.454587 -6.375170 0
M  V30 21 C -2.494759 -4.337410 -7.301635 0
M  V30 22 C -1.369005 -5.085319 -6.946958 0
M  V30 23 C -0.825296 -4.908724 -5.670728 0
M  V30 24 C -1.365330 -4.024034 -4.760467 0
M  V30 25 C -4.271146 -2.531091 -3.681945 0
M  V30 26 C -5.007807 -3.642617 -4.077467 0
M  V30 27 C -6.279632 -3.812121 -3.547349 0
M  V30 28 Cl -7.221326 -5.225128 -4.047643 0
M  V30 29 C -6.795752 -2.899444 -2.651710 0
M  V30 30 C -6.074772 -1.773744 -2.238417 0
M  V30 31 C -4.803238 -1.610874 -2.772998 0
M  V30 32 C -4.067333 -0.500870 -2.378189 0
M  V30 33 O -4.479282 0.361604 -1.570446 0
M  V30 34 C 1.145422 2.348119 0.948012 0
M  V30 35 N 1.767009 2.271255 2.162430 0
M  V30 36 C 3.149054 2.201763 4.610331 0
M  V30 37 C 4.505301 1.561290 4.558798 0
M  V30 38 H 3.387933 1.638596 7.599377 0
M  V30 39 H 4.784177 1.757397 8.665571 0
M  V30 40 H 4.621414 2.928303 7.361928 0
M  V30 41 H 5.371374 -1.125379 7.261736 0
M  V30 42 H 5.233641 -0.095146 8.685087 0
M  V30 43 H 6.775478 -0.132253 7.820176 0
M  V30 44 H 5.356550 -0.268004 5.184668 0
M  V30 45 H 3.279905 -0.393681 6.971913 0
M  V30 46 H 3.389619 -1.309005 5.473728 0
M  V30 47 H 1.329663 -0.447469 5.098143 0
M  V30 48 H 1.600585 0.912407 6.172493 0
M  V30 49 H 0.381732 -0.589079 3.309544 0
M  V30 50 H -0.741151 -0.453467 1.119638 0
M  V30 51 H -1.558635 -0.248574 -0.735868 0
M  V30 52 H -2.525753 1.712367 -2.544031 0
M  V30 53 H -1.140036 0.912655 -3.395309 0
M  V30 54 H -1.344717 -1.188443 -4.241550 0
M  V30 55 H -3.890502 -2.868744 -6.627721 0
M  V30 56 H -2.957691 -4.440552 -8.292089 0
M  V30 57 H -0.962994 -5.766022 -7.663109 0
M  V30 58 H 0.044237 -5.499410 -5.424139 0
M  V30 59 H -0.934132 -3.902909 -3.787184 0
M  V30 60 H -4.648514 -4.380956 -4.771786 0
M  V30 61 H -7.789224 -3.096686 -2.282666 0
M  V30 62 H -6.491828 -1.079622 -1.545312 0
M  V30 63 H 1.371899 3.178922 0.299510 0
M  V30 64 H 3.165378 2.992219 3.801459 0
M  V30 65 H 2.932643 2.759314 5.530295 0
M  V30 66 H 5.324190 2.293961 4.683063 0
M  V30 67 H 4.576278 1.069795 3.558031 0
M  V30 END ATOM
M  V30 BEGIN BOND
M  V30 1 1 1 2
M  V30 2 1 2 3
M  V30 3 1 2 4
M  V30 4 1 4 5
M  V30 5 1 5 6
M  V30 6 1 6 7
M  V30 7 1 7 8
M  V30 8 2 8 9
M  V30 9 1 9 10
M  V30 10 2 10 11
M  V30 11 1 11 12
M  V30 12 2 12 13
M  V30 13 1 12 14
M  V30 14 1 14 15
M  V30 15 1 15 16
M  V30 16 2 16 17
M  V30 17 1 17 18
M  V30 18 1 18 19
M  V30 19 2 19 20
M  V30 20 1 20 21
M  V30 21 2 21 22
M  V30 22 1 22 23
M  V30 23 2 23 24
M  V30 24 1 18 25
M  V30 25 2 25 26
M  V30 26 1 26 27
M  V30 27 1 27 28
M  V30 28 2 27 29
M  V30 29 1 29 30
M  V30 30 2 30 31
M  V30 31 1 31 32
M  V30 32 2 32 33
M  V30 33 1 11 34
M  V30 34 2 34 35
M  V30 35 1 7 36
M  V30 36 1 36 37
M  V30 37 1 37 4
M  V30 38 1 35 8
M  V30 39 1 32 16
M  V30 40 1 24 19
M  V30 41 1 31 25
M  V30 42 1 1 38
M  V30 43 1 1 39
M  V30 44 1 1 40
M  V30 45 1 3 41
M  V30 46 1 3 42
M  V30 47 1 3 43
M  V30 48 1 4 44
M  V30 49 1 5 45
M  V30 50 1 5 46
M  V30 51 1 6 47
M  V30 52 1 6 48
M  V30 53 1 9 49
M  V30 54 1 10 50
M  V30 55 1 14 51
M  V30 56 1 15 52
M  V30 57 1 15 53
M  V30 58 1 17 54
M  V30 59 1 20 55
M  V30 60 1 21 56
M  V30 61 1 22 57
M  V30 62 1 23 58
M  V30 63 1 24 59
M  V30 64 1 26 60
M  V30 65 1 29 61
M  V30 66 1 30 62
M  V30 67 1 34 63
M  V30 68 1 36 64
M  V30 69 1 36 65
M  V30 70 1 37 66
M  V30 71 1 37 67
M  V30 END BOND
M  V30 END CTAB
M  END
>  <Dataset>  (711) 
ChEMBL_Kinases

>  <Ligand_Instance>  (711) 
nan

>  <PDB_ID>  (711) 
nan

>  <Standardized_SMILES>  (711) 
CN(C)C1CCN(c2ccc(C(=O)NCc3cn(-c4ccccc4)c4cc(Cl)ccc4c3=O)cn2)CC1

>  <Name>  (711) 
nan

>  <Pocket>  (711) 
nan

>  <ATP_Site>  (711) 
nan

>  <Peripheral>  (711) 
nan

>  <Num_H_Atoms_ProtBoundConf>  (711) 
nan

>  <Num_Resolved_Atoms>  (711) 
nan

>  <Num_Not_Resolved_Atoms>  (711) 
nan

$$$$
CHEMBL3679496
     RDKit          3D

  0  0  0  0  0  0  0  0  0  0999 V3000
M  V30 BEGIN CTAB
M  V30 COUNTS 60 64 0 0 0
M  V30 BEGIN ATOM
M  V30 1 O 0.702271 -3.738066 2.341504 0
M  V30 2 C 0.293291 -2.862523 1.537633 0
M  V30 3 N 0.251764 -1.475369 1.883636 0
M  V30 4 C 0.721085 -1.186663 3.227792 0
M  V30 5 C 0.595865 0.302748 3.386804 0
M  V30 6 C 1.620481 1.205923 3.338399 0
M  V30 7 N 1.366748 2.517274 3.495087 0
M  V30 8 C 2.415791 3.466763 3.447871 0
M  V30 9 C 3.135874 3.882659 2.342717 0
M  V30 10 C 4.131429 4.819359 2.459818 0
M  V30 11 C 4.464992 5.394559 3.687699 0
M  V30 12 C 3.733965 4.965257 4.777454 0
M  V30 13 C 2.729629 4.024085 4.676715 0
M  V30 14 C 0.108091 2.956765 3.700593 0
M  V30 15 C -0.123388 4.313354 3.858873 0
M  V30 16 C -1.396816 4.836480 4.074561 0
M  V30 17 Cl -1.705540 6.536269 4.274604 0
M  V30 18 C -2.450341 3.949721 4.128410 0
M  V30 19 C -2.232205 2.587633 3.971292 0
M  V30 20 C -0.959831 2.081040 3.757290 0
M  V30 21 C -0.719790 0.720889 3.597718 0
M  V30 22 O -1.752128 0.003780 3.664554 0
M  V30 23 C -0.139038 -3.335557 0.227042 0
M  V30 24 C -0.078213 -4.687398 -0.037932 0
M  V30 25 C -0.468446 -5.236263 -1.266112 0
M  V30 26 C -0.937892 -4.366453 -2.257912 0
M  V30 27 N -1.354352 -4.849713 -3.541915 0
M  V30 28 C -1.844854 -3.860387 -4.513643 0
M  V30 29 C -2.950626 -4.574292 -5.269241 0
M  V30 30 C -2.261069 -5.652168 -6.070724 0
M  V30 31 O -1.461228 -4.995651 -7.015040 0
M  V30 32 C -1.507497 -6.625979 -5.236453 0
M  V30 33 C -1.272727 -6.245420 -3.809901 0
M  V30 34 N -0.982964 -3.055068 -1.963044 0
M  V30 35 C -0.609215 -2.524047 -0.784947 0
M  V30 36 H -0.090269 -0.756130 1.210261 0
M  V30 37 H 0.128152 -1.692878 4.011508 0
M  V30 38 H 1.805778 -1.409502 3.258082 0
M  V30 39 H 2.602270 0.813160 3.173201 0
M  V30 40 H 2.840599 3.409051 1.418350 0
M  V30 41 H 4.633316 5.075473 1.536315 0
M  V30 42 H 5.257433 6.130552 3.736957 0
M  V30 43 H 4.022879 5.438669 5.727706 0
M  V30 44 H 2.258399 3.796253 5.603491 0
M  V30 45 H 0.654397 5.059885 3.827756 0
M  V30 46 H -3.491341 4.246038 4.292181 0
M  V30 47 H -3.071574 1.895576 4.015691 0
M  V30 48 H 0.276392 -5.422258 0.685724 0
M  V30 49 H -0.411758 -6.292171 -1.446427 0
M  V30 50 H -1.040429 -3.675665 -5.283161 0
M  V30 51 H -2.161724 -2.939309 -4.021427 0
M  V30 52 H -3.669064 -4.998386 -4.525970 0
M  V30 53 H -3.407846 -3.858549 -5.966062 0
M  V30 54 H -3.049383 -6.185307 -6.641426 0
M  V30 55 H -1.802295 -4.073209 -7.174766 0
M  V30 56 H -1.947418 -7.640837 -5.320108 0
M  V30 57 H -0.484984 -6.713970 -5.710307 0
M  V30 58 H -2.022377 -6.764768 -3.178396 0
M  V30 59 H -0.267727 -6.614970 -3.449053 0
M  V30 60 H -0.667866 -1.465253 -0.606453 0
M  V30 END ATOM
M  V30 BEGIN BOND
M  V30 1 2 1 2
M  V30 2 1 2 3
M  V30 3 1 3 4
M  V30 4 1 4 5
M  V30 5 2 5 6
M  V30 6 1 6 7
M  V30 7 1 7 8
M  V30 8 2 8 9
M  V30 9 1 9 10
M  V30 10 2 10 11
M  V30 11 1 11 12
M  V30 12 2 12 13
M  V30 13 1 7 14
M  V30 14 2 14 15
M  V30 15 1 15 16
M  V30 16 1 16 17
M  V30 17 2 16 18
M  V30 18 1 18 19
M  V30 19 2 19 20
M  V30 20 1 20 21
M  V30 21 2 21 22
M  V30 22 1 2 23
M  V30 23 2 23 24
M  V30 24 1 24 25
M  V30 25 2 25 26
M  V30 26 1 26 27
M  V30 27 1 27 28
M  V30 28 1 28 29
M  V30 29 1 29 30
M  V30 30 1 30 31
M  V30 31 1 30 32
M  V30 32 1 32 33
M  V30 33 1 26 34
M  V30 34 2 34 35
M  V30 35 1 21 5
M  V30 36 1 35 23
M  V30 37 1 13 8
M  V30 38 1 20 14
M  V30 39 1 33 27
M  V30 40 1 3 36
M  V30 41 1 4 37
M  V30 42 1 4 38
M  V30 43 1 6 39
M  V30 44 1 9 40
M  V30 45 1 10 41
M  V30 46 1 11 42
M  V30 47 1 12 43
M  V30 48 1 13 44
M  V30 49 1 15 45
M  V30 50 1 18 46
M  V30 51 1 19 47
M  V30 52 1 24 48
M  V30 53 1 25 49
M  V30 54 1 28 50
M  V30 55 1 28 51
M  V30 56 1 29 52
M  V30 57 1 29 53
M  V30 58 1 30 54
M  V30 59 1 31 55
M  V30 60 1 32 56
M  V30 61 1 32 57
M  V30 62 1 33 58
M  V30 63 1 33 59
M  V30 64 1 35 60
M  V30 END BOND
M  V30 END CTAB
M  END
>  <Dataset>  (712) 
ChEMBL_Kinases

>  <Ligand_Instance>  (712) 
nan

>  <PDB_ID>  (712) 
nan

>  <Standardized_SMILES>  (712) 
O=C(NCc1cn(-c2ccccc2)c2cc(Cl)ccc2c1=O)c1ccc(N2CCC(O)CC2)nc1

>  <Name>  (712) 
nan

>  <Pocket>  (712) 
nan

>  <ATP_Site>  (712) 
nan

>  <Peripheral>  (712) 
nan

>  <Num_H_Atoms_ProtBoundConf>  (712) 
nan

>  <Num_Resolved_Atoms>  (712) 
nan

>  <Num_Not_Resolved_Atoms>  (712) 
nan

$$$$
CHEMBL3679497
     RDKit          3D

  0  0  0  0  0  0  0  0  0  0999 V3000
M  V30 BEGIN CTAB
M  V30 COUNTS 53 56 0 0 0
M  V30 BEGIN ATOM
M  V30 1 O -0.466483 -3.306560 3.767629 0
M  V30 2 C -0.794278 -3.236104 2.562289 0
M  V30 3 N -0.655308 -1.805484 2.322499 0
M  V30 4 C -0.238835 -0.830844 3.325876 0
M  V30 5 C -0.183547 0.495903 2.696024 0
M  V30 6 C 1.046110 1.038204 2.321138 0
M  V30 7 N 1.215261 2.243135 1.697779 0
M  V30 8 C 2.565809 2.624483 1.382203 0
M  V30 9 C 3.366487 3.665741 1.780465 0
M  V30 10 C 4.639586 3.718195 1.273256 0
M  V30 11 C 5.147070 2.794056 0.398521 0
M  V30 12 C 4.346842 1.737329 -0.011618 0
M  V30 13 C 3.043910 1.668334 0.495921 0
M  V30 14 C 0.102085 2.945753 1.434314 0
M  V30 15 C 0.283442 4.157297 0.796118 0
M  V30 16 C -0.837295 4.934897 0.484145 0
M  V30 17 Cl -0.729149 6.479433 -0.321959 0
M  V30 18 C -2.100002 4.482277 0.817279 0
M  V30 19 C -2.224297 3.264997 1.455138 0
M  V30 20 C -1.143550 2.468267 1.779995 0
M  V30 21 C -1.296070 1.248253 2.409129 0
M  V30 22 O -2.433374 0.821823 2.721417 0
M  V30 23 C -1.221454 -4.124432 1.494543 0
M  V30 24 C -1.033863 -5.477546 1.619974 0
M  V30 25 C -1.461561 -6.315174 0.610876 0
M  V30 26 C -2.068328 -5.765821 -0.501269 0
M  V30 27 N -2.601793 -6.363417 -1.690398 0
M  V30 28 C -1.902833 -6.261949 -2.963111 0
M  V30 29 C -1.697054 -4.805078 -3.341345 0
M  V30 30 O -2.884439 -4.112820 -3.470744 0
M  V30 31 N -2.241225 -4.407613 -0.598300 0
M  V30 32 C -1.822928 -3.569619 0.391887 0
M  V30 33 H -0.862773 -1.402076 1.352301 0
M  V30 34 H -0.916155 -0.836426 4.201881 0
M  V30 35 H 0.768378 -1.120890 3.674162 0
M  V30 36 H 1.905148 0.455429 2.548412 0
M  V30 37 H 2.853150 4.318505 2.465941 0
M  V30 38 H 5.243699 4.547388 1.604686 0
M  V30 39 H 6.184316 2.966149 0.076885 0
M  V30 40 H 4.815950 1.046508 -0.702510 0
M  V30 41 H 2.564121 0.792713 0.077105 0
M  V30 42 H 1.264040 4.551891 0.516198 0
M  V30 43 H -3.000923 5.037899 0.599159 0
M  V30 44 H -3.189625 2.828681 1.756157 0
M  V30 45 H -0.564782 -5.958883 2.461137 0
M  V30 46 H -1.402004 -7.378633 0.532740 0
M  V30 47 H -3.517905 -6.899727 -1.731707 0
M  V30 48 H -0.905763 -6.698450 -2.786154 0
M  V30 49 H -2.393903 -6.826684 -3.756423 0
M  V30 50 H -0.951293 -4.314072 -2.694009 0
M  V30 51 H -1.248498 -4.822814 -4.380161 0
M  V30 52 H -2.758927 -3.203312 -3.104488 0
M  V30 53 H -2.019124 -2.503090 0.216621 0
M  V30 END ATOM
M  V30 BEGIN BOND
M  V30 1 2 1 2
M  V30 2 1 2 3
M  V30 3 1 3 4
M  V30 4 1 4 5
M  V30 5 2 5 6
M  V30 6 1 6 7
M  V30 7 1 7 8
M  V30 8 2 8 9
M  V30 9 1 9 10
M  V30 10 2 10 11
M  V30 11 1 11 12
M  V30 12 2 12 13
M  V30 13 1 7 14
M  V30 14 2 14 15
M  V30 15 1 15 16
M  V30 16 1 16 17
M  V30 17 2 16 18
M  V30 18 1 18 19
M  V30 19 2 19 20
M  V30 20 1 20 21
M  V30 21 2 21 22
M  V30 22 1 2 23
M  V30 23 2 23 24
M  V30 24 1 24 25
M  V30 25 2 25 26
M  V30 26 1 26 27
M  V30 27 1 27 28
M  V30 28 1 28 29
M  V30 29 1 29 30
M  V30 30 1 26 31
M  V30 31 2 31 32
M  V30 32 1 21 5
M  V30 33 1 32 23
M  V30 34 1 13 8
M  V30 35 1 20 14
M  V30 36 1 3 33
M  V30 37 1 4 34
M  V30 38 1 4 35
M  V30 39 1 6 36
M  V30 40 1 9 37
M  V30 41 1 10 38
M  V30 42 1 11 39
M  V30 43 1 12 40
M  V30 44 1 13 41
M  V30 45 1 15 42
M  V30 46 1 18 43
M  V30 47 1 19 44
M  V30 48 1 24 45
M  V30 49 1 25 46
M  V30 50 1 27 47
M  V30 51 1 28 48
M  V30 52 1 28 49
M  V30 53 1 29 50
M  V30 54 1 29 51
M  V30 55 1 30 52
M  V30 56 1 32 53
M  V30 END BOND
M  V30 END CTAB
M  END
>  <Dataset>  (713) 
ChEMBL_Kinases

>  <Ligand_Instance>  (713) 
nan

>  <PDB_ID>  (713) 
nan

>  <Standardized_SMILES>  (713) 
O=C(NCc1cn(-c2ccccc2)c2cc(Cl)ccc2c1=O)c1ccc(NCCO)nc1

>  <Name>  (713) 
nan

>  <Pocket>  (713) 
nan

>  <ATP_Site>  (713) 
nan

>  <Peripheral>  (713) 
nan

>  <Num_H_Atoms_ProtBoundConf>  (713) 
nan

>  <Num_Resolved_Atoms>  (713) 
nan

>  <Num_Not_Resolved_Atoms>  (713) 
nan

$$$$
CHEMBL3679498
     RDKit          3D

  0  0  0  0  0  0  0  0  0  0999 V3000
M  V30 BEGIN CTAB
M  V30 COUNTS 60 64 0 0 0
M  V30 BEGIN ATOM
M  V30 1 O -0.197295 -3.790154 3.114934 0
M  V30 2 C -0.354878 -3.104962 2.080336 0
M  V30 3 N -0.094489 -1.713930 2.092475 0
M  V30 4 C 0.350607 -1.285148 3.426365 0
M  V30 5 C 0.585287 0.195333 3.286233 0
M  V30 6 C 1.775326 0.871942 3.183038 0
M  V30 7 N 1.763276 2.201599 3.065236 0
M  V30 8 C 3.053689 2.813205 2.964187 0
M  V30 9 C 3.805492 3.250399 4.043782 0
M  V30 10 C 5.042973 3.831519 3.873020 0
M  V30 11 C 5.571011 3.994311 2.603043 0
M  V30 12 C 4.817405 3.557236 1.537689 0
M  V30 13 C 3.567785 2.967726 1.671955 0
M  V30 14 C 0.630709 2.928251 3.041592 0
M  V30 15 C 0.701130 4.300804 2.917266 0
M  V30 16 C -0.491959 4.987623 2.899638 0
M  V30 17 Cl -0.388280 6.731240 2.741254 0
M  V30 18 C -1.726661 4.384934 2.997908 0
M  V30 19 C -1.780246 3.001242 3.122600 0
M  V30 20 C -0.597684 2.270632 3.144496 0
M  V30 21 C -0.624362 0.892810 3.267960 0
M  V30 22 O -1.779279 0.370069 3.356247 0
M  V30 23 C -0.812423 -3.803861 0.884600 0
M  V30 24 C -1.028717 -5.164389 0.945652 0
M  V30 25 C -1.462235 -5.889193 -0.145116 0
M  V30 26 C -1.696028 -5.240471 -1.363181 0
M  V30 27 N -2.131828 -5.794657 -2.572136 0
M  V30 28 C -2.374740 -5.116501 -3.824185 0
M  V30 29 C -3.451935 -4.053572 -3.698794 0
M  V30 30 C -3.470267 -3.282289 -5.006994 0
M  V30 31 O -2.819808 -3.969030 -6.035094 0
M  V30 32 C -1.438247 -4.031165 -5.801044 0
M  V30 33 C -1.151507 -4.408424 -4.355357 0
M  V30 34 N -1.475521 -3.913765 -1.388766 0
M  V30 35 C -1.052960 -3.198241 -0.331261 0
M  V30 36 H -0.223059 -1.135335 1.233686 0
M  V30 37 H 1.367438 -1.716983 3.547728 0
M  V30 38 H -0.361610 -1.531849 4.212570 0
M  V30 39 H 2.629672 0.218633 3.210192 0
M  V30 40 H 3.387108 3.119655 5.026391 0
M  V30 41 H 5.613313 4.165122 4.721647 0
M  V30 42 H 6.547820 4.448736 2.409386 0
M  V30 43 H 5.235502 3.686026 0.532925 0
M  V30 44 H 3.023866 2.644316 0.790262 0
M  V30 45 H 1.669921 4.757344 2.841826 0
M  V30 46 H -2.666930 4.928929 2.983676 0
M  V30 47 H -2.734593 2.495999 3.202096 0
M  V30 48 H -0.879681 -5.755155 1.829383 0
M  V30 49 H -1.651502 -6.950446 -0.170300 0
M  V30 50 H -2.279206 -6.840372 -2.478583 0
M  V30 51 H -2.710881 -5.855178 -4.561847 0
M  V30 52 H -3.197472 -3.325440 -2.917013 0
M  V30 53 H -4.426876 -4.552182 -3.513962 0
M  V30 54 H -2.961866 -2.293232 -4.912492 0
M  V30 55 H -4.531745 -3.178963 -5.300050 0
M  V30 56 H -1.028633 -4.773103 -6.516486 0
M  V30 57 H -1.015466 -3.045188 -6.078905 0
M  V30 58 H -0.240447 -5.039210 -4.368752 0
M  V30 59 H -0.977494 -3.471997 -3.785105 0
M  V30 60 H -0.893847 -2.136217 -0.412985 0
M  V30 END ATOM
M  V30 BEGIN BOND
M  V30 1 2 1 2
M  V30 2 1 2 3
M  V30 3 1 3 4
M  V30 4 1 4 5
M  V30 5 2 5 6
M  V30 6 1 6 7
M  V30 7 1 7 8
M  V30 8 2 8 9
M  V30 9 1 9 10
M  V30 10 2 10 11
M  V30 11 1 11 12
M  V30 12 2 12 13
M  V30 13 1 7 14
M  V30 14 2 14 15
M  V30 15 1 15 16
M  V30 16 1 16 17
M  V30 17 2 16 18
M  V30 18 1 18 19
M  V30 19 2 19 20
M  V30 20 1 20 21
M  V30 21 2 21 22
M  V30 22 1 2 23
M  V30 23 2 23 24
M  V30 24 1 24 25
M  V30 25 2 25 26
M  V30 26 1 26 27
M  V30 27 1 27 28
M  V30 28 1 28 29
M  V30 29 1 29 30
M  V30 30 1 30 31
M  V30 31 1 31 32
M  V30 32 1 32 33
M  V30 33 1 26 34
M  V30 34 2 34 35
M  V30 35 1 21 5
M  V30 36 1 35 23
M  V30 37 1 13 8
M  V30 38 1 20 14
M  V30 39 1 33 28
M  V30 40 1 3 36
M  V30 41 1 4 37
M  V30 42 1 4 38
M  V30 43 1 6 39
M  V30 44 1 9 40
M  V30 45 1 10 41
M  V30 46 1 11 42
M  V30 47 1 12 43
M  V30 48 1 13 44
M  V30 49 1 15 45
M  V30 50 1 18 46
M  V30 51 1 19 47
M  V30 52 1 24 48
M  V30 53 1 25 49
M  V30 54 1 27 50
M  V30 55 1 28 51
M  V30 56 1 29 52
M  V30 57 1 29 53
M  V30 58 1 30 54
M  V30 59 1 30 55
M  V30 60 1 32 56
M  V30 61 1 32 57
M  V30 62 1 33 58
M  V30 63 1 33 59
M  V30 64 1 35 60
M  V30 END BOND
M  V30 END CTAB
M  END
>  <Dataset>  (714) 
ChEMBL_Kinases

>  <Ligand_Instance>  (714) 
nan

>  <PDB_ID>  (714) 
nan

>  <Standardized_SMILES>  (714) 
O=C(NCc1cn(-c2ccccc2)c2cc(Cl)ccc2c1=O)c1ccc(NC2CCOCC2)nc1

>  <Name>  (714) 
nan

>  <Pocket>  (714) 
nan

>  <ATP_Site>  (714) 
nan

>  <Peripheral>  (714) 
nan

>  <Num_H_Atoms_ProtBoundConf>  (714) 
nan

>  <Num_Resolved_Atoms>  (714) 
nan

>  <Num_Not_Resolved_Atoms>  (714) 
nan

$$$$
CHEMBL3679499
     RDKit          3D

  0  0  0  0  0  0  0  0  0  0999 V3000
M  V30 BEGIN CTAB
M  V30 COUNTS 52 55 0 0 0
M  V30 BEGIN ATOM
M  V30 1 C 3.613890 -4.308580 -4.582412 0
M  V30 2 N 4.518039 -3.297167 -4.067354 0
M  V30 3 C 5.856654 -3.123383 -4.633818 0
M  V30 4 C 4.106089 -2.466137 -3.004740 0
M  V30 5 C 4.912351 -1.479185 -2.458662 0
M  V30 6 C 4.453903 -0.683441 -1.405387 0
M  V30 7 C 3.192259 -0.846464 -0.871555 0
M  V30 8 C 2.771803 0.016027 0.227705 0
M  V30 9 O 3.616813 0.862018 0.613756 0
M  V30 10 N 1.499390 -0.074097 0.837376 0
M  V30 11 C 1.170814 0.843233 1.941125 0
M  V30 12 C -0.214493 0.509068 2.369894 0
M  V30 13 C -1.384184 1.197520 2.106234 0
M  V30 14 N -2.548530 0.724944 2.589302 0
M  V30 15 C -3.711421 1.461469 2.293240 0
M  V30 16 C -4.147969 2.456871 3.162299 0
M  V30 17 C -5.294863 3.175053 2.858838 0
M  V30 18 C -6.039916 2.938823 1.703397 0
M  V30 19 C -5.561999 1.930524 0.863001 0
M  V30 20 C -4.412661 1.192878 1.142677 0
M  V30 21 C -2.628089 -0.392496 3.321033 0
M  V30 22 C -3.860660 -0.800800 3.773273 0
M  V30 23 C -3.963044 -1.934455 4.519030 0
M  V30 24 Cl -5.494724 -2.541268 5.145008 0
M  V30 25 C -2.849966 -2.691348 4.835498 0
M  V30 26 C -1.621529 -2.265412 4.372558 0
M  V30 27 C -1.479045 -1.125614 3.616672 0
M  V30 28 C -0.266156 -0.656038 3.128043 0
M  V30 29 O 0.700994 -1.392157 3.453574 0
M  V30 30 C 2.427992 -1.839823 -1.447307 0
M  V30 31 N 2.892636 -2.593324 -2.461560 0
M  V30 32 H 4.218435 -4.995383 -5.207121 0
M  V30 33 H 3.265910 -4.883003 -3.706446 0
M  V30 34 H 2.809468 -3.919170 -5.213842 0
M  V30 35 H 5.994752 -2.032600 -4.769832 0
M  V30 36 H 5.967614 -3.682240 -5.580152 0
M  V30 37 H 6.584767 -3.454206 -3.861603 0
M  V30 38 H 5.910806 -1.326613 -2.857628 0
M  V30 39 H 5.144186 0.063335 -1.036563 0
M  V30 40 H 0.815169 -0.799150 0.484661 0
M  V30 41 H 1.130164 1.883661 1.531647 0
M  V30 42 H 1.913256 0.762344 2.750240 0
M  V30 43 H -1.236280 2.089385 1.509210 0
M  V30 44 H -3.614752 2.699826 4.089966 0
M  V30 45 H -5.673856 3.961456 3.507081 0
M  V30 46 H -6.932497 3.481425 1.445166 0
M  V30 47 H -6.149587 1.753309 -0.035689 0
M  V30 48 H -4.106324 0.421468 0.433344 0
M  V30 49 H -4.794538 -0.294141 3.590164 0
M  V30 50 H -2.848997 -3.609564 5.426570 0
M  V30 51 H -0.719870 -2.822668 4.592969 0
M  V30 52 H 1.432139 -1.991256 -1.049191 0
M  V30 END ATOM
M  V30 BEGIN BOND
M  V30 1 1 1 2
M  V30 2 1 2 3
M  V30 3 1 2 4
M  V30 4 2 4 5
M  V30 5 1 5 6
M  V30 6 2 6 7
M  V30 7 1 7 8
M  V30 8 2 8 9
M  V30 9 1 8 10
M  V30 10 1 10 11
M  V30 11 1 11 12
M  V30 12 2 12 13
M  V30 13 1 13 14
M  V30 14 1 14 15
M  V30 15 2 15 16
M  V30 16 1 16 17
M  V30 17 2 17 18
M  V30 18 1 18 19
M  V30 19 2 19 20
M  V30 20 1 14 21
M  V30 21 2 21 22
M  V30 22 1 22 23
M  V30 23 1 23 24
M  V30 24 2 23 25
M  V30 25 1 25 26
M  V30 26 2 26 27
M  V30 27 1 27 28
M  V30 28 2 28 29
M  V30 29 1 7 30
M  V30 30 2 30 31
M  V30 31 1 31 4
M  V30 32 1 28 12
M  V30 33 1 20 15
M  V30 34 1 27 21
M  V30 35 1 1 32
M  V30 36 1 1 33
M  V30 37 1 1 34
M  V30 38 1 3 35
M  V30 39 1 3 36
M  V30 40 1 3 37
M  V30 41 1 5 38
M  V30 42 1 6 39
M  V30 43 1 10 40
M  V30 44 1 11 41
M  V30 45 1 11 42
M  V30 46 1 13 43
M  V30 47 1 16 44
M  V30 48 1 17 45
M  V30 49 1 18 46
M  V30 50 1 19 47
M  V30 51 1 20 48
M  V30 52 1 22 49
M  V30 53 1 25 50
M  V30 54 1 26 51
M  V30 55 1 30 52
M  V30 END BOND
M  V30 END CTAB
M  END
>  <Dataset>  (715) 
ChEMBL_Kinases

>  <Ligand_Instance>  (715) 
nan

>  <PDB_ID>  (715) 
nan

>  <Standardized_SMILES>  (715) 
CN(C)c1ccc(C(=O)NCc2cn(-c3ccccc3)c3cc(Cl)ccc3c2=O)cn1

>  <Name>  (715) 
nan

>  <Pocket>  (715) 
nan

>  <ATP_Site>  (715) 
nan

>  <Peripheral>  (715) 
nan

>  <Num_H_Atoms_ProtBoundConf>  (715) 
nan

>  <Num_Resolved_Atoms>  (715) 
nan

>  <Num_Not_Resolved_Atoms>  (715) 
nan

$$$$
CHEMBL3679500
     RDKit          3D

  0  0  0  0  0  0  0  0  0  0999 V3000
M  V30 BEGIN CTAB
M  V30 COUNTS 59 63 0 0 0
M  V30 BEGIN ATOM
M  V30 1 O 1.576369 -3.244333 2.335283 0
M  V30 2 C 0.866206 -2.631058 1.520657 0
M  V30 3 N 0.629240 -1.237225 1.707065 0
M  V30 4 C 1.280499 -0.675567 2.881590 0
M  V30 5 C 0.927162 0.786250 2.914042 0
M  V30 6 C 1.893157 1.698641 2.528445 0
M  V30 7 N 1.566497 3.002608 2.561461 0
M  V30 8 C 2.616209 3.886618 2.149532 0
M  V30 9 C 2.672660 4.477929 0.893674 0
M  V30 10 C 3.768553 5.303149 0.683627 0
M  V30 11 C 4.733940 5.528245 1.637168 0
M  V30 12 C 4.633274 4.917558 2.870042 0
M  V30 13 C 3.554100 4.090238 3.110174 0
M  V30 14 C 0.347279 3.412447 2.953932 0
M  V30 15 C 0.093589 4.752403 2.959422 0
M  V30 16 C -1.129532 5.284910 3.345325 0
M  V30 17 Cl -1.518043 7.001529 3.372881 0
M  V30 18 C -2.077539 4.353730 3.725962 0
M  V30 19 C -1.885463 2.987710 3.743110 0
M  V30 20 C -0.640681 2.532585 3.345133 0
M  V30 21 C -0.338337 1.164539 3.324189 0
M  V30 22 O -1.223741 0.345107 3.676456 0
M  V30 23 C 0.296362 -3.363591 0.395231 0
M  V30 24 C 0.523666 -4.722534 0.324924 0
M  V30 25 C -0.022540 -5.419285 -0.761134 0
M  V30 26 C -0.761816 -4.804310 -1.737841 0
M  V30 27 N -1.328239 -5.493627 -2.845593 0
M  V30 28 C -1.344033 -6.902991 -3.111721 0
M  V30 29 C -2.706547 -7.527671 -2.963181 0
M  V30 30 S -3.924093 -6.683396 -3.943958 0
M  V30 31 O -3.955973 -7.233580 -5.338679 0
M  V30 32 O -5.258714 -6.898312 -3.314777 0
M  V30 33 C -3.485157 -4.953499 -3.909271 0
M  V30 34 C -1.997369 -4.764116 -3.905104 0
M  V30 35 N -0.962321 -3.480251 -1.636370 0
M  V30 36 C -0.451990 -2.781970 -0.606412 0
M  V30 37 H 0.037450 -0.690200 1.045739 0
M  V30 38 H 0.825850 -1.118453 3.807115 0
M  V30 39 H 2.369389 -0.779203 2.883313 0
M  V30 40 H 2.876503 1.320157 2.214622 0
M  V30 41 H 1.886610 4.263736 0.186396 0
M  V30 42 H 3.834127 5.776024 -0.289196 0
M  V30 43 H 5.573640 6.165487 1.464559 0
M  V30 44 H 5.407828 5.105524 3.617323 0
M  V30 45 H 3.540256 3.642477 4.106296 0
M  V30 46 H 0.845718 5.494185 2.658012 0
M  V30 47 H -3.052884 4.732608 4.036557 0
M  V30 48 H -2.656245 2.293563 4.048290 0
M  V30 49 H 1.104368 -5.288174 1.065818 0
M  V30 50 H 0.167390 -6.482220 -0.797011 0
M  V30 51 H -0.677279 -7.412710 -2.387601 0
M  V30 52 H -0.899638 -7.081492 -4.109144 0
M  V30 53 H -2.630339 -8.556582 -3.425975 0
M  V30 54 H -2.985159 -7.665146 -1.920473 0
M  V30 55 H -3.965238 -4.460373 -3.050814 0
M  V30 56 H -3.886895 -4.511773 -4.837199 0
M  V30 57 H -1.806563 -3.671537 -3.749610 0
M  V30 58 H -1.564225 -5.080330 -4.871431 0
M  V30 59 H -0.642430 -1.719385 -0.571321 0
M  V30 END ATOM
M  V30 BEGIN BOND
M  V30 1 2 1 2
M  V30 2 1 2 3
M  V30 3 1 3 4
M  V30 4 1 4 5
M  V30 5 2 5 6
M  V30 6 1 6 7
M  V30 7 1 7 8
M  V30 8 2 8 9
M  V30 9 1 9 10
M  V30 10 2 10 11
M  V30 11 1 11 12
M  V30 12 2 12 13
M  V30 13 1 7 14
M  V30 14 2 14 15
M  V30 15 1 15 16
M  V30 16 1 16 17
M  V30 17 2 16 18
M  V30 18 1 18 19
M  V30 19 2 19 20
M  V30 20 1 20 21
M  V30 21 2 21 22
M  V30 22 1 2 23
M  V30 23 2 23 24
M  V30 24 1 24 25
M  V30 25 2 25 26
M  V30 26 1 26 27
M  V30 27 1 27 28
M  V30 28 1 28 29
M  V30 29 1 29 30
M  V30 30 2 30 31
M  V30 31 2 30 32
M  V30 32 1 30 33
M  V30 33 1 33 34
M  V30 34 1 26 35
M  V30 35 2 35 36
M  V30 36 1 21 5
M  V30 37 1 36 23
M  V30 38 1 13 8
M  V30 39 1 20 14
M  V30 40 1 34 27
M  V30 41 1 3 37
M  V30 42 1 4 38
M  V30 43 1 4 39
M  V30 44 1 6 40
M  V30 45 1 9 41
M  V30 46 1 10 42
M  V30 47 1 11 43
M  V30 48 1 12 44
M  V30 49 1 13 45
M  V30 50 1 15 46
M  V30 51 1 18 47
M  V30 52 1 19 48
M  V30 53 1 24 49
M  V30 54 1 25 50
M  V30 55 1 28 51
M  V30 56 1 28 52
M  V30 57 1 29 53
M  V30 58 1 29 54
M  V30 59 1 33 55
M  V30 60 1 33 56
M  V30 61 1 34 57
M  V30 62 1 34 58
M  V30 63 1 36 59
M  V30 END BOND
M  V30 END CTAB
M  END
>  <Dataset>  (716) 
ChEMBL_Kinases

>  <Ligand_Instance>  (716) 
nan

>  <PDB_ID>  (716) 
nan

>  <Standardized_SMILES>  (716) 
O=C(NCc1cn(-c2ccccc2)c2cc(Cl)ccc2c1=O)c1ccc(N2CCS(=O)(=O)CC2)nc1

>  <Name>  (716) 
nan

>  <Pocket>  (716) 
nan

>  <ATP_Site>  (716) 
nan

>  <Peripheral>  (716) 
nan

>  <Num_H_Atoms_ProtBoundConf>  (716) 
nan

>  <Num_Resolved_Atoms>  (716) 
nan

>  <Num_Not_Resolved_Atoms>  (716) 
nan

$$$$
CHEMBL3679501
     RDKit          3D

  0  0  0  0  0  0  0  0  0  0999 V3000
M  V30 BEGIN CTAB
M  V30 COUNTS 76 80 0 0 0
M  V30 BEGIN ATOM
M  V30 1 C 2.096813 -5.166559 -1.096087 0
M  V30 2 C 2.873452 -5.793635 0.015008 0
M  V30 3 C 1.951603 -5.787225 1.232519 0
M  V30 4 C 3.219854 -7.213512 -0.385279 0
M  V30 5 O 4.101885 -5.148868 0.310963 0
M  V30 6 C 4.138019 -3.809525 0.726903 0
M  V30 7 O 2.949035 -3.407503 0.758464 0
M  V30 8 N 5.260788 -3.018176 1.059726 0
M  V30 9 C 5.047549 -1.666224 1.466168 0
M  V30 10 C 5.613431 -0.616068 0.569350 0
M  V30 11 C 5.316017 0.740406 1.225027 0
M  V30 12 N 4.226532 0.548186 2.185475 0
M  V30 13 C 2.914789 1.042954 1.964869 0
M  V30 14 C 1.812419 0.690114 2.707847 0
M  V30 15 C 0.537204 1.206411 2.451426 0
M  V30 16 C 0.448844 2.103289 1.395929 0
M  V30 17 C -0.861412 2.657587 1.076016 0
M  V30 18 O -1.844786 2.154056 1.710196 0
M  V30 19 N -1.104840 3.686406 0.138589 0
M  V30 20 C -2.443163 4.211414 -0.152065 0
M  V30 21 C -3.239616 3.085691 -0.700770 0
M  V30 22 C -4.219055 2.325888 -0.105808 0
M  V30 23 N -4.817519 1.337434 -0.797107 0
M  V30 24 C -5.811834 0.618579 -0.081836 0
M  V30 25 C -7.028292 1.123327 0.355500 0
M  V30 26 C -7.897702 0.306192 1.047750 0
M  V30 27 C -7.609632 -1.022705 1.332189 0
M  V30 28 C -6.402398 -1.558757 0.908122 0
M  V30 29 C -5.539784 -0.711644 0.211361 0
M  V30 30 C -4.496599 1.051260 -2.069142 0
M  V30 31 C -5.125437 0.034124 -2.752328 0
M  V30 32 C -4.792701 -0.259485 -4.063270 0
M  V30 33 Cl -5.562644 -1.531943 -4.968630 0
M  V30 34 C -3.816868 0.463120 -4.724152 0
M  V30 35 C -3.177332 1.486885 -4.051117 0
M  V30 36 C -3.507861 1.790794 -2.722795 0
M  V30 37 C -2.888590 2.808230 -2.019978 0
M  V30 38 O -2.005261 3.426059 -2.695461 0
M  V30 39 C 1.574151 2.445120 0.660651 0
M  V30 40 N 2.785080 1.918249 0.947509 0
M  V30 41 C 4.698339 -0.206342 3.354772 0
M  V30 42 C 5.541396 -1.389031 2.871573 0
M  V30 43 H 1.431438 -4.341220 -0.758617 0
M  V30 44 H 2.697657 -4.917097 -1.989402 0
M  V30 45 H 1.379845 -5.963774 -1.459153 0
M  V30 46 H 1.083463 -5.079050 1.091654 0
M  V30 47 H 1.528865 -6.810406 1.309056 0
M  V30 48 H 2.492680 -5.483497 2.141233 0
M  V30 49 H 2.342750 -7.578412 -0.983031 0
M  V30 50 H 4.093558 -7.246279 -1.053653 0
M  V30 51 H 3.344187 -7.892250 0.481080 0
M  V30 52 H 6.166394 -3.529381 0.967727 0
M  V30 53 H 3.931840 -1.496895 1.455108 0
M  V30 54 H 5.151091 -0.674623 -0.436043 0
M  V30 55 H 6.709790 -0.734988 0.439478 0
M  V30 56 H 5.033731 1.484422 0.450918 0
M  V30 57 H 6.200827 1.064635 1.784828 0
M  V30 58 H 1.954383 -0.021768 3.526587 0
M  V30 59 H -0.304104 0.895807 3.064691 0
M  V30 60 H -0.278774 4.089785 -0.371164 0
M  V30 61 H -2.898058 4.533206 0.815122 0
M  V30 62 H -2.375858 5.079979 -0.833983 0
M  V30 63 H -4.424898 2.616055 0.920597 0
M  V30 64 H -7.205921 2.164667 0.109543 0
M  V30 65 H -8.843893 0.724156 1.384298 0
M  V30 66 H -8.298321 -1.662260 1.877332 0
M  V30 67 H -6.129646 -2.583454 1.101353 0
M  V30 68 H -4.596945 -1.171809 -0.107759 0
M  V30 69 H -5.891971 -0.538612 -2.245710 0
M  V30 70 H -3.489475 0.312332 -5.742000 0
M  V30 71 H -2.399080 2.081749 -4.540371 0
M  V30 72 H 1.519663 3.142701 -0.163799 0
M  V30 73 H 5.431413 0.461741 3.865981 0
M  V30 74 H 3.915813 -0.475234 4.055529 0
M  V30 75 H 5.425157 -2.284662 3.466245 0
M  V30 76 H 6.621132 -1.099969 2.765706 0
M  V30 END ATOM
M  V30 BEGIN BOND
M  V30 1 1 1 2
M  V30 2 1 2 3
M  V30 3 1 2 4
M  V30 4 1 2 5
M  V30 5 1 5 6
M  V30 6 2 6 7
M  V30 7 1 6 8
M  V30 8 1 8 9
M  V30 9 1 9 10
M  V30 10 1 10 11
M  V30 11 1 11 12
M  V30 12 1 12 13
M  V30 13 2 13 14
M  V30 14 1 14 15
M  V30 15 2 15 16
M  V30 16 1 16 17
M  V30 17 2 17 18
M  V30 18 1 17 19
M  V30 19 1 19 20
M  V30 20 1 20 21
M  V30 21 2 21 22
M  V30 22 1 22 23
M  V30 23 1 23 24
M  V30 24 2 24 25
M  V30 25 1 25 26
M  V30 26 2 26 27
M  V30 27 1 27 28
M  V30 28 2 28 29
M  V30 29 1 23 30
M  V30 30 2 30 31
M  V30 31 1 31 32
M  V30 32 1 32 33
M  V30 33 2 32 34
M  V30 34 1 34 35
M  V30 35 2 35 36
M  V30 36 1 36 37
M  V30 37 2 37 38
M  V30 38 1 16 39
M  V30 39 2 39 40
M  V30 40 1 12 41
M  V30 41 1 41 42
M  V30 42 1 42 9
M  V30 43 1 40 13
M  V30 44 1 37 21
M  V30 45 1 29 24
M  V30 46 1 36 30
M  V30 47 1 1 43
M  V30 48 1 1 44
M  V30 49 1 1 45
M  V30 50 1 3 46
M  V30 51 1 3 47
M  V30 52 1 3 48
M  V30 53 1 4 49
M  V30 54 1 4 50
M  V30 55 1 4 51
M  V30 56 1 8 52
M  V30 57 1 9 53
M  V30 58 1 10 54
M  V30 59 1 10 55
M  V30 60 1 11 56
M  V30 61 1 11 57
M  V30 62 1 14 58
M  V30 63 1 15 59
M  V30 64 1 19 60
M  V30 65 1 20 61
M  V30 66 1 20 62
M  V30 67 1 22 63
M  V30 68 1 25 64
M  V30 69 1 26 65
M  V30 70 1 27 66
M  V30 71 1 28 67
M  V30 72 1 29 68
M  V30 73 1 31 69
M  V30 74 1 34 70
M  V30 75 1 35 71
M  V30 76 1 39 72
M  V30 77 1 41 73
M  V30 78 1 41 74
M  V30 79 1 42 75
M  V30 80 1 42 76
M  V30 END BOND
M  V30 END CTAB
M  END
>  <Dataset>  (717) 
ChEMBL_Kinases

>  <Ligand_Instance>  (717) 
nan

>  <PDB_ID>  (717) 
nan

>  <Standardized_SMILES>  (717) 
CC(C)(C)OC(=O)NC1CCN(c2ccc(C(=O)NCc3cn(-c4ccccc4)c4cc(Cl)ccc4c3=O)cn2)CC1

>  <Name>  (717) 
nan

>  <Pocket>  (717) 
nan

>  <ATP_Site>  (717) 
nan

>  <Peripheral>  (717) 
nan

>  <Num_H_Atoms_ProtBoundConf>  (717) 
nan

>  <Num_Resolved_Atoms>  (717) 
nan

>  <Num_Not_Resolved_Atoms>  (717) 
nan

$$$$
CHEMBL3679502
     RDKit          3D

  0  0  0  0  0  0  0  0  0  0999 V3000
M  V30 BEGIN CTAB
M  V30 COUNTS 64 68 0 0 0
M  V30 BEGIN ATOM
M  V30 1 C 3.584831 0.218473 5.923137 0
M  V30 2 N 4.114592 1.563414 5.855810 0
M  V30 3 C 5.016966 1.763161 4.792527 0
M  V30 4 C 5.149195 3.144434 4.240057 0
M  V30 5 C 3.904650 3.654461 3.570556 0
M  V30 6 N 2.786234 2.726338 3.714736 0
M  V30 7 C 2.367309 2.098042 2.510011 0
M  V30 8 C 1.307566 1.222206 2.404125 0
M  V30 9 C 0.909415 0.613946 1.235183 0
M  V30 10 C 1.603885 0.883853 0.074327 0
M  V30 11 C 1.313121 0.324426 -1.240611 0
M  V30 12 O 1.951351 0.573615 -2.289282 0
M  V30 13 N 0.240520 -0.586819 -1.457990 0
M  V30 14 C 0.012621 -1.102064 -2.794052 0
M  V30 15 C -1.156453 -2.019793 -2.724900 0
M  V30 16 C -2.446459 -1.794640 -3.139104 0
M  V30 17 N -3.371730 -2.757492 -2.990183 0
M  V30 18 C -4.695926 -2.477356 -3.434469 0
M  V30 19 C -5.412795 -1.545195 -2.710339 0
M  V30 20 C -6.700482 -1.271017 -3.140768 0
M  V30 21 C -7.289947 -1.870821 -4.234425 0
M  V30 22 C -6.555555 -2.810808 -4.957822 0
M  V30 23 C -5.272657 -3.084090 -4.529197 0
M  V30 24 C -3.057370 -3.960580 -2.433672 0
M  V30 25 C -4.074999 -4.881366 -2.324656 0
M  V30 26 C -3.796966 -6.124541 -1.761368 0
M  V30 27 Cl -4.962617 -7.413071 -1.543359 0
M  V30 28 C -2.513129 -6.432495 -1.315761 0
M  V30 29 C -1.510405 -5.468736 -1.445559 0
M  V30 30 C -1.781866 -4.233787 -2.003983 0
M  V30 31 C -0.818993 -3.242786 -2.154770 0
M  V30 32 O 0.330052 -3.573752 -1.734085 0
M  V30 33 C 2.663388 1.760568 0.183248 0
M  V30 34 N 3.025636 2.342656 1.363029 0
M  V30 35 C 2.089958 2.398213 4.943360 0
M  V30 36 C 3.112871 2.567224 6.076452 0
M  V30 37 H 4.383268 -0.431998 6.346885 0
M  V30 38 H 3.355776 -0.184327 4.934687 0
M  V30 39 H 2.675248 0.243467 6.553820 0
M  V30 40 H 4.765479 1.082945 3.927378 0
M  V30 41 H 6.034546 1.436349 5.113417 0
M  V30 42 H 5.570580 3.833590 5.000008 0
M  V30 43 H 5.931263 3.077464 3.437728 0
M  V30 44 H 3.584241 4.566245 4.126298 0
M  V30 45 H 4.038422 3.956159 2.515519 0
M  V30 46 H 0.741687 0.982756 3.265947 0
M  V30 47 H 0.090215 -0.058416 1.175095 0
M  V30 48 H -0.368670 -0.867803 -0.634951 0
M  V30 49 H 0.904924 -1.640443 -3.199435 0
M  V30 50 H -0.205867 -0.270424 -3.488864 0
M  V30 51 H -2.606418 -0.815975 -3.567403 0
M  V30 52 H -5.051927 -1.007367 -1.830210 0
M  V30 53 H -7.292796 -0.534663 -2.583167 0
M  V30 54 H -8.312645 -1.619952 -4.536304 0
M  V30 55 H -7.007566 -3.289238 -5.818948 0
M  V30 56 H -4.692482 -3.812801 -5.083267 0
M  V30 57 H -5.102262 -4.740788 -2.639437 0
M  V30 58 H -2.246280 -7.389417 -0.868843 0
M  V30 59 H -0.482238 -5.663140 -1.108863 0
M  V30 60 H 3.291187 2.062932 -0.630020 0
M  V30 61 H 1.244358 3.085610 5.156980 0
M  V30 62 H 1.750134 1.341117 4.985337 0
M  V30 63 H 3.561043 3.557589 6.052511 0
M  V30 64 H 2.591430 2.311327 7.005614 0
M  V30 END ATOM
M  V30 BEGIN BOND
M  V30 1 1 1 2
M  V30 2 1 2 3
M  V30 3 1 3 4
M  V30 4 1 4 5
M  V30 5 1 5 6
M  V30 6 1 6 7
M  V30 7 2 7 8
M  V30 8 1 8 9
M  V30 9 2 9 10
M  V30 10 1 10 11
M  V30 11 2 11 12
M  V30 12 1 11 13
M  V30 13 1 13 14
M  V30 14 1 14 15
M  V30 15 2 15 16
M  V30 16 1 16 17
M  V30 17 1 17 18
M  V30 18 2 18 19
M  V30 19 1 19 20
M  V30 20 2 20 21
M  V30 21 1 21 22
M  V30 22 2 22 23
M  V30 23 1 17 24
M  V30 24 2 24 25
M  V30 25 1 25 26
M  V30 26 1 26 27
M  V30 27 2 26 28
M  V30 28 1 28 29
M  V30 29 2 29 30
M  V30 30 1 30 31
M  V30 31 2 31 32
M  V30 32 1 10 33
M  V30 33 2 33 34
M  V30 34 1 6 35
M  V30 35 1 35 36
M  V30 36 1 36 2
M  V30 37 1 34 7
M  V30 38 1 31 15
M  V30 39 1 23 18
M  V30 40 1 30 24
M  V30 41 1 1 37
M  V30 42 1 1 38
M  V30 43 1 1 39
M  V30 44 1 3 40
M  V30 45 1 3 41
M  V30 46 1 4 42
M  V30 47 1 4 43
M  V30 48 1 5 44
M  V30 49 1 5 45
M  V30 50 1 8 46
M  V30 51 1 9 47
M  V30 52 1 13 48
M  V30 53 1 14 49
M  V30 54 1 14 50
M  V30 55 1 16 51
M  V30 56 1 19 52
M  V30 57 1 20 53
M  V30 58 1 21 54
M  V30 59 1 22 55
M  V30 60 1 23 56
M  V30 61 1 25 57
M  V30 62 1 28 58
M  V30 63 1 29 59
M  V30 64 1 33 60
M  V30 65 1 35 61
M  V30 66 1 35 62
M  V30 67 1 36 63
M  V30 68 1 36 64
M  V30 END BOND
M  V30 END CTAB
M  END
>  <Dataset>  (718) 
ChEMBL_Kinases

>  <Ligand_Instance>  (718) 
nan

>  <PDB_ID>  (718) 
nan

>  <Standardized_SMILES>  (718) 
CN1CCCN(c2ccc(C(=O)NCc3cn(-c4ccccc4)c4cc(Cl)ccc4c3=O)cn2)CC1

>  <Name>  (718) 
nan

>  <Pocket>  (718) 
nan

>  <ATP_Site>  (718) 
nan

>  <Peripheral>  (718) 
nan

>  <Num_H_Atoms_ProtBoundConf>  (718) 
nan

>  <Num_Resolved_Atoms>  (718) 
nan

>  <Num_Not_Resolved_Atoms>  (718) 
nan

$$$$
CHEMBL3679494
     RDKit          3D

  0  0  0  0  0  0  0  0  0  0999 V3000
M  V30 BEGIN CTAB
M  V30 COUNTS 56 59 0 0 0
M  V30 BEGIN ATOM
M  V30 1 C 5.708552 -2.001935 4.171741 0
M  V30 2 O 6.230712 -2.788032 3.174093 0
M  V30 3 C 5.992197 -2.268092 1.884109 0
M  V30 4 C 6.582192 -0.908315 1.717453 0
M  V30 5 N 6.365777 -0.307381 0.408504 0
M  V30 6 C 4.981599 0.004252 0.110355 0
M  V30 7 C 4.358318 0.730499 1.138746 0
M  V30 8 C 3.002159 1.107812 1.015658 0
M  V30 9 C 2.326270 0.734017 -0.146428 0
M  V30 10 C 0.889237 1.108234 -0.238301 0
M  V30 11 O 0.190016 1.367884 -1.241746 0
M  V30 12 N 0.162771 1.195238 0.960401 0
M  V30 13 C -1.195789 1.537387 1.341437 0
M  V30 14 C -2.182221 0.541461 0.814201 0
M  V30 15 C -3.097883 0.561522 -0.225586 0
M  V30 16 N -3.860483 -0.555618 -0.446771 0
M  V30 17 C -4.737114 -0.359820 -1.547328 0
M  V30 18 C -4.000277 -0.381927 -2.745753 0
M  V30 19 C -4.718729 -0.185760 -3.923412 0
M  V30 20 C -6.062096 0.010942 -3.851788 0
M  V30 21 C -6.825427 0.040473 -2.692436 0
M  V30 22 C -6.102614 -0.154982 -1.531918 0
M  V30 23 C -3.724626 -1.646076 0.330705 0
M  V30 24 C -4.549016 -2.693321 -0.008126 0
M  V30 25 C -4.511657 -3.871569 0.697938 0
M  V30 26 Cl -5.528484 -5.257209 0.329036 0
M  V30 27 C -3.626020 -4.011728 1.773782 0
M  V30 28 C -2.820349 -2.936555 2.075566 0
M  V30 29 C -2.835139 -1.762119 1.397054 0
M  V30 30 C -2.083614 -0.622937 1.591350 0
M  V30 31 O -1.289886 -0.800575 2.589050 0
M  V30 32 C 2.971295 0.023506 -1.130518 0
M  V30 33 N 4.275548 -0.322947 -0.979423 0
M  V30 34 H 4.597730 -1.865659 4.064712 0
M  V30 35 H 5.795922 -2.553753 5.160400 0
M  V30 36 H 6.206950 -1.045666 4.285740 0
M  V30 37 H 4.965733 -2.389708 1.539085 0
M  V30 38 H 6.623673 -2.964949 1.235175 0
M  V30 39 H 7.658843 -0.896024 1.993666 0
M  V30 40 H 6.042094 -0.250607 2.449138 0
M  V30 41 H 7.058546 -0.061595 -0.361359 0
M  V30 42 H 4.733709 1.105203 2.084439 0
M  V30 43 H 2.501897 1.685761 1.789032 0
M  V30 44 H 0.710176 0.942618 1.847023 0
M  V30 45 H -1.289909 1.614975 2.423348 0
M  V30 46 H -1.455272 2.545256 0.921302 0
M  V30 47 H -3.032490 1.521262 -0.702186 0
M  V30 48 H -2.947456 -0.525260 -2.939669 0
M  V30 49 H -4.281222 -0.178089 -4.936113 0
M  V30 50 H -6.642371 0.165673 -4.753428 0
M  V30 51 H -7.883643 0.196922 -2.673912 0
M  V30 52 H -6.541528 -0.155610 -0.527157 0
M  V30 53 H -5.273336 -2.696682 -0.820890 0
M  V30 54 H -3.542246 -4.899564 2.368068 0
M  V30 55 H -2.112857 -2.965123 2.891854 0
M  V30 56 H 2.445340 -0.261574 -2.027070 0
M  V30 END ATOM
M  V30 BEGIN BOND
M  V30 1 1 1 2
M  V30 2 1 2 3
M  V30 3 1 3 4
M  V30 4 1 4 5
M  V30 5 1 5 6
M  V30 6 2 6 7
M  V30 7 1 7 8
M  V30 8 2 8 9
M  V30 9 1 9 10
M  V30 10 2 10 11
M  V30 11 1 10 12
M  V30 12 1 12 13
M  V30 13 1 13 14
M  V30 14 2 14 15
M  V30 15 1 15 16
M  V30 16 1 16 17
M  V30 17 2 17 18
M  V30 18 1 18 19
M  V30 19 2 19 20
M  V30 20 1 20 21
M  V30 21 2 21 22
M  V30 22 1 16 23
M  V30 23 2 23 24
M  V30 24 1 24 25
M  V30 25 1 25 26
M  V30 26 2 25 27
M  V30 27 1 27 28
M  V30 28 2 28 29
M  V30 29 1 29 30
M  V30 30 2 30 31
M  V30 31 1 9 32
M  V30 32 2 32 33
M  V30 33 1 33 6
M  V30 34 1 30 14
M  V30 35 1 22 17
M  V30 36 1 29 23
M  V30 37 1 1 34
M  V30 38 1 1 35
M  V30 39 1 1 36
M  V30 40 1 3 37
M  V30 41 1 3 38
M  V30 42 1 4 39
M  V30 43 1 4 40
M  V30 44 1 5 41
M  V30 45 1 7 42
M  V30 46 1 8 43
M  V30 47 1 12 44
M  V30 48 1 13 45
M  V30 49 1 13 46
M  V30 50 1 15 47
M  V30 51 1 18 48
M  V30 52 1 19 49
M  V30 53 1 20 50
M  V30 54 1 21 51
M  V30 55 1 22 52
M  V30 56 1 24 53
M  V30 57 1 27 54
M  V30 58 1 28 55
M  V30 59 1 32 56
M  V30 END BOND
M  V30 END CTAB
M  END
>  <Dataset>  (719) 
ChEMBL_Kinases

>  <Ligand_Instance>  (719) 
nan

>  <PDB_ID>  (719) 
nan

>  <Standardized_SMILES>  (719) 
COCCNc1ccc(C(=O)NCc2cn(-c3ccccc3)c3cc(Cl)ccc3c2=O)cn1

>  <Name>  (719) 
nan

>  <Pocket>  (719) 
nan

>  <ATP_Site>  (719) 
nan

>  <Peripheral>  (719) 
nan

>  <Num_H_Atoms_ProtBoundConf>  (719) 
nan

>  <Num_Resolved_Atoms>  (719) 
nan

>  <Num_Not_Resolved_Atoms>  (719) 
nan

$$$$
CHEMBL3679551
     RDKit          3D

  0  0  0  0  0  0  0  0  0  0999 V3000
M  V30 BEGIN CTAB
M  V30 COUNTS 51 54 0 0 0
M  V30 BEGIN ATOM
M  V30 1 C 3.202082 -3.258935 0.347461 0
M  V30 2 O 2.281447 -2.469716 1.119084 0
M  V30 3 C 0.951269 -2.382954 0.772401 0
M  V30 4 O 1.110933 -3.124796 -0.201611 0
M  V30 5 C -0.285334 -1.792849 1.160946 0
M  V30 6 C -0.261668 -0.980726 2.259336 0
M  V30 7 C 0.868908 -0.476130 3.072587 0
M  V30 8 N 1.448996 0.703233 2.535484 0
M  V30 9 C 2.092972 1.300996 1.449208 0
M  V30 10 O 2.257247 0.499662 0.511741 0
M  V30 11 C 2.537066 2.682601 1.371904 0
M  V30 12 C 2.404702 3.667701 2.352050 0
M  V30 13 C 2.878740 4.943750 2.136549 0
M  V30 14 C 3.489266 5.255550 0.945867 0
M  V30 15 Cl 4.073554 6.887230 0.720464 0
M  V30 16 C 3.635804 4.306647 -0.041647 0
M  V30 17 C 3.153962 3.041522 0.199149 0
M  V30 18 C -1.479721 -0.448320 2.700205 0
M  V30 19 O -1.629725 0.319671 3.702741 0
M  V30 20 C -2.649005 -0.769135 2.000275 0
M  V30 21 C -3.874333 -0.271566 2.391491 0
M  V30 22 C -5.035387 -0.590547 1.694719 0
M  V30 23 C -4.925826 -1.421776 0.597058 0
M  V30 24 Cl -6.327200 -1.886324 -0.352940 0
M  V30 25 C -3.701004 -1.921420 0.203001 0
M  V30 26 C -2.537993 -1.600739 0.902655 0
M  V30 27 N -1.372955 -2.126423 0.460413 0
M  V30 28 C -1.272497 -2.975648 -0.663369 0
M  V30 29 C -1.319566 -4.352856 -0.661131 0
M  V30 30 C -1.210296 -5.088451 -1.821242 0
M  V30 31 C -1.046293 -4.456707 -3.054652 0
M  V30 32 C -0.998049 -3.059108 -3.061590 0
M  V30 33 C -1.108736 -2.320171 -1.886928 0
M  V30 34 H 4.144241 -3.266857 0.933794 0
M  V30 35 H 2.828723 -4.309747 0.299901 0
M  V30 36 H 3.395663 -2.837852 -0.642240 0
M  V30 37 H 1.707918 -1.259768 3.026471 0
M  V30 38 H 0.624625 -0.436632 4.130402 0
M  V30 39 H 1.342513 1.462022 3.292797 0
M  V30 40 H 1.927152 3.382703 3.255745 0
M  V30 41 H 2.719341 5.627560 2.971513 0
M  V30 42 H 4.111271 4.549201 -0.969724 0
M  V30 43 H 3.294368 2.333317 -0.608928 0
M  V30 44 H -3.959725 0.379940 3.251499 0
M  V30 45 H -6.019026 -0.224984 1.962525 0
M  V30 46 H -3.624259 -2.569022 -0.653512 0
M  V30 47 H -1.449445 -4.816762 0.322874 0
M  V30 48 H -1.253652 -6.169312 -1.762399 0
M  V30 49 H -0.958747 -5.021232 -3.977000 0
M  V30 50 H -0.872932 -2.546303 -3.994025 0
M  V30 51 H -1.061687 -1.236244 -1.976712 0
M  V30 END ATOM
M  V30 BEGIN BOND
M  V30 1 1 1 2
M  V30 2 1 2 3
M  V30 3 2 3 4
M  V30 4 1 3 5
M  V30 5 2 5 6
M  V30 6 1 6 7
M  V30 7 1 7 8
M  V30 8 1 8 9
M  V30 9 2 9 10
M  V30 10 1 9 11
M  V30 11 2 11 12
M  V30 12 1 12 13
M  V30 13 2 13 14
M  V30 14 1 14 15
M  V30 15 1 14 16
M  V30 16 2 16 17
M  V30 17 1 6 18
M  V30 18 2 18 19
M  V30 19 1 18 20
M  V30 20 2 20 21
M  V30 21 1 21 22
M  V30 22 2 22 23
M  V30 23 1 23 24
M  V30 24 1 23 25
M  V30 25 2 25 26
M  V30 26 1 26 27
M  V30 27 1 27 28
M  V30 28 2 28 29
M  V30 29 1 29 30
M  V30 30 2 30 31
M  V30 31 1 31 32
M  V30 32 2 32 33
M  V30 33 1 27 5
M  V30 34 1 33 28
M  V30 35 1 17 11
M  V30 36 1 26 20
M  V30 37 1 1 34
M  V30 38 1 1 35
M  V30 39 1 1 36
M  V30 40 1 7 37
M  V30 41 1 7 38
M  V30 42 1 8 39
M  V30 43 1 12 40
M  V30 44 1 13 41
M  V30 45 1 16 42
M  V30 46 1 17 43
M  V30 47 1 21 44
M  V30 48 1 22 45
M  V30 49 1 25 46
M  V30 50 1 29 47
M  V30 51 1 30 48
M  V30 52 1 31 49
M  V30 53 1 32 50
M  V30 54 1 33 51
M  V30 END BOND
M  V30 END CTAB
M  END
>  <Dataset>  (720) 
ChEMBL_Kinases

>  <Ligand_Instance>  (720) 
nan

>  <PDB_ID>  (720) 
nan

>  <Standardized_SMILES>  (720) 
COC(=O)c1c(CNC(=O)c2ccc(Cl)cc2)c(=O)c2ccc(Cl)cc2n1-c1ccccc1

>  <Name>  (720) 
nan

>  <Pocket>  (720) 
nan

>  <ATP_Site>  (720) 
nan

>  <Peripheral>  (720) 
nan

>  <Num_H_Atoms_ProtBoundConf>  (720) 
nan

>  <Num_Resolved_Atoms>  (720) 
nan

>  <Num_Not_Resolved_Atoms>  (720) 
nan

$$$$
CHEMBL3679550
     RDKit          3D

  0  0  0  0  0  0  0  0  0  0999 V3000
M  V30 BEGIN CTAB
M  V30 COUNTS 62 65 0 0 0
M  V30 BEGIN ATOM
M  V30 1 C 3.117625 1.329446 2.481526 0
M  V30 2 O 2.514257 0.100808 2.227136 0
M  V30 3 C 1.284541 -0.299057 2.686640 0
M  V30 4 O 0.999266 0.726732 3.311696 0
M  V30 5 C 0.502424 -1.508382 2.537531 0
M  V30 6 C 0.939596 -2.583751 1.799841 0
M  V30 7 C 2.212681 -2.603713 1.078835 0
M  V30 8 N 2.112703 -1.810847 -0.128493 0
M  V30 9 C 1.268445 -1.925323 -1.235551 0
M  V30 10 O 0.428069 -2.860060 -1.243051 0
M  V30 11 C 1.318956 -0.998730 -2.396067 0
M  V30 12 C 1.028585 0.396706 -1.903347 0
M  V30 13 C 0.476404 1.294290 -2.974370 0
M  V30 14 N -0.644358 0.755179 -3.668448 0
M  V30 15 S -0.966292 1.442851 -5.175501 0
M  V30 16 C 0.320222 1.268013 -6.373348 0
M  V30 17 O -1.343111 2.898208 -5.097293 0
M  V30 18 O -2.181224 0.732296 -5.751035 0
M  V30 19 C -0.871298 -0.636697 -3.557774 0
M  V30 20 C 0.386180 -1.462887 -3.459012 0
M  V30 21 C 0.057110 -3.645043 1.803057 0
M  V30 22 O 0.294857 -4.701318 1.188127 0
M  V30 23 C -1.147247 -3.636330 2.475862 0
M  V30 24 C -2.018030 -4.724018 2.459959 0
M  V30 25 C -3.219242 -4.701926 3.137153 0
M  V30 26 C -3.584216 -3.578930 3.855574 0
M  V30 27 Cl -5.101505 -3.487007 4.740285 0
M  V30 28 C -2.719071 -2.504838 3.868415 0
M  V30 29 C -1.506555 -2.512651 3.191447 0
M  V30 30 N -0.664948 -1.463836 3.206131 0
M  V30 31 C -1.118375 -0.353333 3.968238 0
M  V30 32 C -1.759716 0.639983 3.224776 0
M  V30 33 C -2.250251 1.775557 3.846053 0
M  V30 34 C -2.112332 1.941426 5.207467 0
M  V30 35 C -1.473896 0.948961 5.935964 0
M  V30 36 C -0.973317 -0.201414 5.328753 0
M  V30 37 H 4.226055 1.295564 2.390596 0
M  V30 38 H 2.954341 1.566187 3.574792 0
M  V30 39 H 2.645570 2.164755 1.927794 0
M  V30 40 H 3.082377 -2.328486 1.680705 0
M  V30 41 H 2.428112 -3.650302 0.721468 0
M  V30 42 H 2.783577 -1.004960 -0.221085 0
M  V30 43 H 2.385806 -1.038907 -2.763401 0
M  V30 44 H 0.382609 0.351276 -1.024253 0
M  V30 45 H 2.006149 0.838709 -1.573157 0
M  V30 46 H 1.259631 1.517211 -3.735611 0
M  V30 47 H 0.215042 2.256760 -2.490510 0
M  V30 48 H -0.039793 1.818453 -7.285402 0
M  V30 49 H 0.484185 0.234179 -6.703558 0
M  V30 50 H 1.257194 1.746935 -6.047349 0
M  V30 51 H -1.540003 -0.920608 -2.704988 0
M  V30 52 H -1.422079 -0.957773 -4.470101 0
M  V30 53 H 0.903317 -1.414729 -4.432348 0
M  V30 54 H 0.121029 -2.521562 -3.266320 0
M  V30 55 H -1.719648 -5.599996 1.892012 0
M  V30 56 H -3.904949 -5.540791 3.132684 0
M  V30 57 H -2.997859 -1.619540 4.429690 0
M  V30 58 H -1.892751 0.553338 2.143557 0
M  V30 59 H -2.752752 2.567564 3.305708 0
M  V30 60 H -2.469491 2.800616 5.763407 0
M  V30 61 H -1.328669 1.012007 7.017016 0
M  V30 62 H -0.475115 -0.998503 5.825183 0
M  V30 END ATOM
M  V30 BEGIN BOND
M  V30 1 1 1 2
M  V30 2 1 2 3
M  V30 3 2 3 4
M  V30 4 1 3 5
M  V30 5 2 5 6
M  V30 6 1 6 7
M  V30 7 1 7 8
M  V30 8 1 8 9
M  V30 9 2 9 10
M  V30 10 1 9 11
M  V30 11 1 11 12
M  V30 12 1 12 13
M  V30 13 1 13 14
M  V30 14 1 14 15
M  V30 15 1 15 16
M  V30 16 2 15 17
M  V30 17 2 15 18
M  V30 18 1 14 19
M  V30 19 1 19 20
M  V30 20 1 6 21
M  V30 21 2 21 22
M  V30 22 1 21 23
M  V30 23 2 23 24
M  V30 24 1 24 25
M  V30 25 2 25 26
M  V30 26 1 26 27
M  V30 27 1 26 28
M  V30 28 2 28 29
M  V30 29 1 29 30
M  V30 30 1 30 31
M  V30 31 2 31 32
M  V30 32 1 32 33
M  V30 33 2 33 34
M  V30 34 1 34 35
M  V30 35 2 35 36
M  V30 36 1 30 5
M  V30 37 1 36 31
M  V30 38 1 20 11
M  V30 39 1 29 23
M  V30 40 1 1 37
M  V30 41 1 1 38
M  V30 42 1 1 39
M  V30 43 1 7 40
M  V30 44 1 7 41
M  V30 45 1 8 42
M  V30 46 1 11 43
M  V30 47 1 12 44
M  V30 48 1 12 45
M  V30 49 1 13 46
M  V30 50 1 13 47
M  V30 51 1 16 48
M  V30 52 1 16 49
M  V30 53 1 16 50
M  V30 54 1 19 51
M  V30 55 1 19 52
M  V30 56 1 20 53
M  V30 57 1 20 54
M  V30 58 1 24 55
M  V30 59 1 25 56
M  V30 60 1 28 57
M  V30 61 1 32 58
M  V30 62 1 33 59
M  V30 63 1 34 60
M  V30 64 1 35 61
M  V30 65 1 36 62
M  V30 END BOND
M  V30 END CTAB
M  END
>  <Dataset>  (721) 
ChEMBL_Kinases

>  <Ligand_Instance>  (721) 
nan

>  <PDB_ID>  (721) 
nan

>  <Standardized_SMILES>  (721) 
COC(=O)c1c(CNC(=O)C2CCN(S(C)(=O)=O)CC2)c(=O)c2ccc(Cl)cc2n1-c1ccccc1

>  <Name>  (721) 
nan

>  <Pocket>  (721) 
nan

>  <ATP_Site>  (721) 
nan

>  <Peripheral>  (721) 
nan

>  <Num_H_Atoms_ProtBoundConf>  (721) 
nan

>  <Num_Resolved_Atoms>  (721) 
nan

>  <Num_Not_Resolved_Atoms>  (721) 
nan

$$$$
CHEMBL3679549
     RDKit          3D

  0  0  0  0  0  0  0  0  0  0999 V3000
M  V30 BEGIN CTAB
M  V30 COUNTS 61 64 0 0 0
M  V30 BEGIN ATOM
M  V30 1 C 1.162270 -0.774280 4.587758 0
M  V30 2 O 0.736465 -1.582273 3.504040 0
M  V30 3 C 1.423018 -1.575717 2.295266 0
M  V30 4 O 2.292265 -0.742093 2.647566 0
M  V30 5 C 1.079247 -2.360298 1.118236 0
M  V30 6 C 1.861487 -2.240545 -0.007913 0
M  V30 7 C 3.039282 -1.367882 -0.126412 0
M  V30 8 N 2.716280 0.038945 -0.278772 0
M  V30 9 C 1.973415 0.672007 -1.283735 0
M  V30 10 O 1.493664 -0.028296 -2.211653 0
M  V30 11 C 1.723671 2.121673 -1.310634 0
M  V30 12 C 0.989699 2.661702 -0.132825 0
M  V30 13 C 0.069912 3.776881 -0.653842 0
M  V30 14 N -0.901507 3.087663 -1.477386 0
M  V30 15 C -2.215591 3.089409 -0.950613 0
M  V30 16 C -3.562532 2.587361 -1.295338 0
M  V30 17 O -2.154968 3.729717 0.149579 0
M  V30 18 C -0.350933 2.518687 -2.693574 0
M  V30 19 C 1.152390 2.551245 -2.633764 0
M  V30 20 C 1.407548 -3.058741 -1.051321 0
M  V30 21 O 2.016517 -3.064293 -2.149262 0
M  V30 22 C 0.308094 -3.889466 -0.970820 0
M  V30 23 C -0.077334 -4.666610 -2.044324 0
M  V30 24 C -1.191793 -5.492795 -1.926971 0
M  V30 25 C -1.880553 -5.506598 -0.728069 0
M  V30 26 Cl -3.259975 -6.544753 -0.618091 0
M  V30 27 C -1.481839 -4.720607 0.341749 0
M  V30 28 C -0.373676 -3.896976 0.229807 0
M  V30 29 N -0.000723 -3.140705 1.278089 0
M  V30 30 C -0.751866 -3.200772 2.484424 0
M  V30 31 C -1.791291 -2.291430 2.488222 0
M  V30 32 C -2.659084 -2.167758 3.557415 0
M  V30 33 C -2.457554 -2.997189 4.652363 0
M  V30 34 C -1.418345 -3.905910 4.647908 0
M  V30 35 C -0.556266 -4.022948 3.575936 0
M  V30 36 H 0.983263 0.274014 4.312877 0
M  V30 37 H 0.625421 -1.072940 5.504633 0
M  V30 38 H 2.243716 -0.898813 4.792331 0
M  V30 39 H 3.816199 -1.545888 0.614035 0
M  V30 40 H 3.519415 -1.643978 -1.114126 0
M  V30 41 H 3.084699 0.706468 0.462843 0
M  V30 42 H 2.749342 2.597108 -1.272710 0
M  V30 43 H 0.281118 1.932286 0.318447 0
M  V30 44 H 1.636533 3.149224 0.625651 0
M  V30 45 H -0.344539 4.390882 0.141321 0
M  V30 46 H 0.668368 4.430248 -1.343535 0
M  V30 47 H -3.975416 1.914899 -0.507138 0
M  V30 48 H -3.494428 1.944366 -2.219548 0
M  V30 49 H -4.318571 3.400045 -1.402817 0
M  V30 50 H -0.628993 1.448524 -2.789030 0
M  V30 51 H -0.676267 3.105490 -3.568693 0
M  V30 52 H 1.531170 1.840824 -3.415845 0
M  V30 53 H 1.539430 3.548931 -2.963210 0
M  V30 54 H 0.479354 -4.639444 -2.977043 0
M  V30 55 H -1.484188 -6.091753 -2.763395 0
M  V30 56 H -2.066879 -4.774666 1.263797 0
M  V30 57 H -2.036706 -1.595132 1.681069 0
M  V30 58 H -3.486926 -1.465713 3.597395 0
M  V30 59 H -3.111567 -2.937802 5.514799 0
M  V30 60 H -1.200068 -4.580279 5.458003 0
M  V30 61 H 0.279310 -4.693871 3.472281 0
M  V30 END ATOM
M  V30 BEGIN BOND
M  V30 1 1 1 2
M  V30 2 1 2 3
M  V30 3 2 3 4
M  V30 4 1 3 5
M  V30 5 2 5 6
M  V30 6 1 6 7
M  V30 7 1 7 8
M  V30 8 1 8 9
M  V30 9 2 9 10
M  V30 10 1 9 11
M  V30 11 1 11 12
M  V30 12 1 12 13
M  V30 13 1 13 14
M  V30 14 1 14 15
M  V30 15 1 15 16
M  V30 16 2 15 17
M  V30 17 1 14 18
M  V30 18 1 18 19
M  V30 19 1 6 20
M  V30 20 2 20 21
M  V30 21 1 20 22
M  V30 22 2 22 23
M  V30 23 1 23 24
M  V30 24 2 24 25
M  V30 25 1 25 26
M  V30 26 1 25 27
M  V30 27 2 27 28
M  V30 28 1 28 29
M  V30 29 1 29 30
M  V30 30 2 30 31
M  V30 31 1 31 32
M  V30 32 2 32 33
M  V30 33 1 33 34
M  V30 34 2 34 35
M  V30 35 1 29 5
M  V30 36 1 35 30
M  V30 37 1 19 11
M  V30 38 1 28 22
M  V30 39 1 1 36
M  V30 40 1 1 37
M  V30 41 1 1 38
M  V30 42 1 7 39
M  V30 43 1 7 40
M  V30 44 1 8 41
M  V30 45 1 11 42
M  V30 46 1 12 43
M  V30 47 1 12 44
M  V30 48 1 13 45
M  V30 49 1 13 46
M  V30 50 1 16 47
M  V30 51 1 16 48
M  V30 52 1 16 49
M  V30 53 1 18 50
M  V30 54 1 18 51
M  V30 55 1 19 52
M  V30 56 1 19 53
M  V30 57 1 23 54
M  V30 58 1 24 55
M  V30 59 1 27 56
M  V30 60 1 31 57
M  V30 61 1 32 58
M  V30 62 1 33 59
M  V30 63 1 34 60
M  V30 64 1 35 61
M  V30 END BOND
M  V30 END CTAB
M  END
>  <Dataset>  (722) 
ChEMBL_Kinases

>  <Ligand_Instance>  (722) 
nan

>  <PDB_ID>  (722) 
nan

>  <Standardized_SMILES>  (722) 
COC(=O)c1c(CNC(=O)C2CCN(C(C)=O)CC2)c(=O)c2ccc(Cl)cc2n1-c1ccccc1

>  <Name>  (722) 
nan

>  <Pocket>  (722) 
nan

>  <ATP_Site>  (722) 
nan

>  <Peripheral>  (722) 
nan

>  <Num_H_Atoms_ProtBoundConf>  (722) 
nan

>  <Num_Resolved_Atoms>  (722) 
nan

>  <Num_Not_Resolved_Atoms>  (722) 
nan

$$$$
CHEMBL3679548
     RDKit          3D

  0  0  0  0  0  0  0  0  0  0999 V3000
M  V30 BEGIN CTAB
M  V30 COUNTS 59 63 0 0 0
M  V30 BEGIN ATOM
M  V30 1 C 3.466026 1.057132 2.058961 0
M  V30 2 O 3.052249 -0.240498 1.709549 0
M  V30 3 C 2.571697 -0.590866 0.468346 0
M  V30 4 O 2.677710 0.532364 -0.013544 0
M  V30 5 C 2.145740 -1.935820 0.111816 0
M  V30 6 C 1.675519 -2.204427 -1.157363 0
M  V30 7 C 1.561740 -1.183103 -2.196616 0
M  V30 8 N 0.409499 -0.347310 -1.951279 0
M  V30 9 C -0.969378 -0.637723 -1.898542 0
M  V30 10 O -1.306768 -1.819107 -2.095102 0
M  V30 11 C -2.013647 0.325841 -1.637620 0
M  V30 12 C -3.324754 -0.160790 -1.598473 0
M  V30 13 C -4.368101 0.737855 -1.344383 0
M  V30 14 C -4.151537 2.079426 -1.132307 0
M  V30 15 C -5.181386 3.074619 -0.863245 0
M  V30 16 N -6.293297 3.152474 -1.623325 0
M  V30 17 N -7.060902 4.128363 -1.177833 0
M  V30 18 N -6.473899 4.696431 -0.136187 0
M  V30 19 C -6.864208 5.799927 0.722870 0
M  V30 20 N -5.333899 4.048711 0.046086 0
M  V30 21 C -2.866933 2.571739 -1.168013 0
M  V30 22 C -1.824968 1.681236 -1.420574 0
M  V30 23 C 1.307121 -3.522276 -1.408682 0
M  V30 24 O 0.865048 -3.918991 -2.513995 0
M  V30 25 C 1.404996 -4.516686 -0.435723 0
M  V30 26 C 1.052612 -5.840095 -0.631540 0
M  V30 27 C 1.161022 -6.792312 0.346652 0
M  V30 28 C 1.647949 -6.355358 1.555353 0
M  V30 29 Cl 1.820807 -7.518151 2.864639 0
M  V30 30 C 2.010353 -5.050517 1.794014 0
M  V30 31 C 1.891260 -4.105580 0.788825 0
M  V30 32 N 2.268391 -2.858286 1.112014 0
M  V30 33 C 2.763679 -2.525650 2.401950 0
M  V30 34 C 2.132350 -2.111806 3.553195 0
M  V30 35 C 2.835044 -1.845229 4.705780 0
M  V30 36 C 4.204717 -2.000903 4.693259 0
M  V30 37 C 4.908450 -2.418534 3.556261 0
M  V30 38 C 4.151369 -2.673229 2.422757 0
M  V30 39 H 3.668894 1.116043 3.146914 0
M  V30 40 H 2.727101 1.784780 1.727268 0
M  V30 41 H 4.450532 1.303214 1.573014 0
M  V30 42 H 1.344634 -1.694132 -3.184893 0
M  V30 43 H 2.473490 -0.605231 -2.372969 0
M  V30 44 H 0.609010 0.676718 -1.780502 0
M  V30 45 H -3.604964 -1.203246 -1.752651 0
M  V30 46 H -5.400209 0.386199 -1.308147 0
M  V30 47 H -7.489781 6.527213 0.152444 0
M  V30 48 H -7.434423 5.463871 1.610771 0
M  V30 49 H -5.975974 6.346322 1.101738 0
M  V30 50 H -2.592958 3.627076 -1.012350 0
M  V30 51 H -0.820349 2.068120 -1.448516 0
M  V30 52 H 0.683793 -6.071873 -1.615182 0
M  V30 53 H 0.864776 -7.811318 0.125676 0
M  V30 54 H 2.385614 -4.778075 2.769678 0
M  V30 55 H 1.052614 -2.039753 3.390103 0
M  V30 56 H 2.248756 -1.525934 5.554857 0
M  V30 57 H 4.753232 -1.790612 5.599479 0
M  V30 58 H 5.977137 -2.515426 3.627950 0
M  V30 59 H 4.796275 -2.991764 1.596882 0
M  V30 END ATOM
M  V30 BEGIN BOND
M  V30 1 1 1 2
M  V30 2 1 2 3
M  V30 3 2 3 4
M  V30 4 1 3 5
M  V30 5 2 5 6
M  V30 6 1 6 7
M  V30 7 1 7 8
M  V30 8 1 8 9
M  V30 9 2 9 10
M  V30 10 1 9 11
M  V30 11 2 11 12
M  V30 12 1 12 13
M  V30 13 2 13 14
M  V30 14 1 14 15
M  V30 15 1 15 16
M  V30 16 2 16 17
M  V30 17 1 17 18
M  V30 18 1 18 19
M  V30 19 1 18 20
M  V30 20 1 14 21
M  V30 21 2 21 22
M  V30 22 1 6 23
M  V30 23 2 23 24
M  V30 24 1 23 25
M  V30 25 2 25 26
M  V30 26 1 26 27
M  V30 27 2 27 28
M  V30 28 1 28 29
M  V30 29 1 28 30
M  V30 30 2 30 31
M  V30 31 1 31 32
M  V30 32 1 32 33
M  V30 33 2 33 34
M  V30 34 1 34 35
M  V30 35 2 35 36
M  V30 36 1 36 37
M  V30 37 2 37 38
M  V30 38 1 32 5
M  V30 39 1 38 33
M  V30 40 1 22 11
M  V30 41 1 31 25
M  V30 42 2 20 15
M  V30 43 1 1 39
M  V30 44 1 1 40
M  V30 45 1 1 41
M  V30 46 1 7 42
M  V30 47 1 7 43
M  V30 48 1 8 44
M  V30 49 1 12 45
M  V30 50 1 13 46
M  V30 51 1 19 47
M  V30 52 1 19 48
M  V30 53 1 19 49
M  V30 54 1 21 50
M  V30 55 1 22 51
M  V30 56 1 26 52
M  V30 57 1 27 53
M  V30 58 1 30 54
M  V30 59 1 34 55
M  V30 60 1 35 56
M  V30 61 1 36 57
M  V30 62 1 37 58
M  V30 63 1 38 59
M  V30 END BOND
M  V30 END CTAB
M  END
>  <Dataset>  (723) 
ChEMBL_Kinases

>  <Ligand_Instance>  (723) 
nan

>  <PDB_ID>  (723) 
nan

>  <Standardized_SMILES>  (723) 
COC(=O)c1c(CNC(=O)c2ccc(-c3nnn(C)n3)cc2)c(=O)c2ccc(Cl)cc2n1-c1ccccc1

>  <Name>  (723) 
nan

>  <Pocket>  (723) 
nan

>  <ATP_Site>  (723) 
nan

>  <Peripheral>  (723) 
nan

>  <Num_H_Atoms_ProtBoundConf>  (723) 
nan

>  <Num_Resolved_Atoms>  (723) 
nan

>  <Num_Not_Resolved_Atoms>  (723) 
nan

$$$$
CHEMBL3679547
     RDKit          3D

  0  0  0  0  0  0  0  0  0  0999 V3000
M  V30 BEGIN CTAB
M  V30 COUNTS 71 74 0 0 0
M  V30 BEGIN ATOM
M  V30 1 C 4.305717 1.866938 0.358577 0
M  V30 2 O 3.614022 0.895762 1.065727 0
M  V30 3 C 3.512032 -0.446106 0.773055 0
M  V30 4 O 4.213508 -0.426299 -0.264134 0
M  V30 5 C 2.898061 -1.647855 1.291056 0
M  V30 6 C 2.152131 -1.519099 2.405431 0
M  V30 7 C 1.707228 -0.330937 3.164426 0
M  V30 8 N 0.490991 0.172668 2.598454 0
M  V30 9 C -0.018573 0.677743 1.407471 0
M  V30 10 O 0.653094 0.815208 0.370456 0
M  V30 11 C -1.368932 1.152798 1.053912 0
M  V30 12 C -1.411306 1.616982 -0.383470 0
M  V30 13 C -2.553966 2.573493 -0.533689 0
M  V30 14 N -3.538416 2.356501 0.537799 0
M  V30 15 C -4.826753 1.725062 0.397248 0
M  V30 16 O -5.731464 1.491352 1.235223 0
M  V30 17 O -5.081878 1.319288 -0.885077 0
M  V30 18 C -6.239817 0.675945 -1.348030 0
M  V30 19 C -7.501639 1.480345 -1.146797 0
M  V30 20 C -6.058633 0.416343 -2.839980 0
M  V30 21 C -6.422447 -0.703628 -0.723652 0
M  V30 22 C -3.050810 2.869771 1.803453 0
M  V30 23 C -1.716216 2.245941 2.043245 0
M  V30 24 C 1.634736 -2.711860 2.923693 0
M  V30 25 O 0.912171 -2.777773 3.968510 0
M  V30 26 C 1.892152 -3.916348 2.304982 0
M  V30 27 C 1.406503 -5.137263 2.769204 0
M  V30 28 C 1.664165 -6.338864 2.148565 0
M  V30 29 C 2.444139 -6.311411 1.011874 0
M  V30 30 Cl 2.788109 -7.836078 0.197661 0
M  V30 31 C 2.950996 -5.111283 0.512616 0
M  V30 32 C 2.671287 -3.921224 1.163060 0
M  V30 33 N 3.174301 -2.782769 0.656662 0
M  V30 34 C 3.974988 -2.796860 -0.518193 0
M  V30 35 C 5.328985 -2.931250 -0.648405 0
M  V30 36 C 5.894715 -2.917732 -1.905109 0
M  V30 37 C 5.117335 -2.770571 -3.038849 0
M  V30 38 C 3.730134 -2.631711 -2.924471 0
M  V30 39 C 3.172434 -2.647591 -1.640126 0
M  V30 40 H 5.022396 1.535938 -0.389948 0
M  V30 41 H 3.629164 2.663700 -0.062045 0
M  V30 42 H 4.916873 2.436276 1.120014 0
M  V30 43 H 1.526154 -0.538556 4.218276 0
M  V30 44 H 2.518466 0.465902 3.051332 0
M  V30 45 H -0.359626 0.199489 3.255433 0
M  V30 46 H -2.067153 0.293172 1.151374 0
M  V30 47 H -1.619404 0.727659 -1.013884 0
M  V30 48 H -0.442099 2.039130 -0.721143 0
M  V30 49 H -2.208242 3.625724 -0.486718 0
M  V30 50 H -3.099841 2.440577 -1.486215 0
M  V30 51 H -7.961083 1.734831 -2.128443 0
M  V30 52 H -8.221138 0.903904 -0.510505 0
M  V30 53 H -7.327071 2.452146 -0.634749 0
M  V30 54 H -4.966519 0.328533 -3.037662 0
M  V30 55 H -6.398842 1.331717 -3.350709 0
M  V30 56 H -6.629062 -0.484945 -3.147006 0
M  V30 57 H -7.087858 -1.265264 -1.432951 0
M  V30 58 H -5.437116 -1.205209 -0.707359 0
M  V30 59 H -6.925873 -0.655430 0.262053 0
M  V30 60 H -3.772719 2.708583 2.610072 0
M  V30 61 H -2.929856 3.982851 1.668379 0
M  V30 62 H -0.866781 2.959681 2.032378 0
M  V30 63 H -1.668511 1.757928 3.044557 0
M  V30 64 H 0.806859 -5.087270 3.658174 0
M  V30 65 H 1.246960 -7.248429 2.575888 0
M  V30 66 H 3.563138 -5.094939 -0.381020 0
M  V30 67 H 5.842427 -3.038687 0.273360 0
M  V30 68 H 6.965403 -3.025641 -1.980388 0
M  V30 69 H 5.556558 -2.759927 -4.026670 0
M  V30 70 H 3.167532 -2.519717 -3.841587 0
M  V30 71 H 2.081060 -2.530786 -1.675065 0
M  V30 END ATOM
M  V30 BEGIN BOND
M  V30 1 1 1 2
M  V30 2 1 2 3
M  V30 3 2 3 4
M  V30 4 1 3 5
M  V30 5 2 5 6
M  V30 6 1 6 7
M  V30 7 1 7 8
M  V30 8 1 8 9
M  V30 9 2 9 10
M  V30 10 1 9 11
M  V30 11 1 11 12
M  V30 12 1 12 13
M  V30 13 1 13 14
M  V30 14 1 14 15
M  V30 15 2 15 16
M  V30 16 1 15 17
M  V30 17 1 17 18
M  V30 18 1 18 19
M  V30 19 1 18 20
M  V30 20 1 18 21
M  V30 21 1 14 22
M  V30 22 1 22 23
M  V30 23 1 6 24
M  V30 24 2 24 25
M  V30 25 1 24 26
M  V30 26 2 26 27
M  V30 27 1 27 28
M  V30 28 2 28 29
M  V30 29 1 29 30
M  V30 30 1 29 31
M  V30 31 2 31 32
M  V30 32 1 32 33
M  V30 33 1 33 34
M  V30 34 2 34 35
M  V30 35 1 35 36
M  V30 36 2 36 37
M  V30 37 1 37 38
M  V30 38 2 38 39
M  V30 39 1 33 5
M  V30 40 1 39 34
M  V30 41 1 23 11
M  V30 42 1 32 26
M  V30 43 1 1 40
M  V30 44 1 1 41
M  V30 45 1 1 42
M  V30 46 1 7 43
M  V30 47 1 7 44
M  V30 48 1 8 45
M  V30 49 1 11 46
M  V30 50 1 12 47
M  V30 51 1 12 48
M  V30 52 1 13 49
M  V30 53 1 13 50
M  V30 54 1 19 51
M  V30 55 1 19 52
M  V30 56 1 19 53
M  V30 57 1 20 54
M  V30 58 1 20 55
M  V30 59 1 20 56
M  V30 60 1 21 57
M  V30 61 1 21 58
M  V30 62 1 21 59
M  V30 63 1 22 60
M  V30 64 1 22 61
M  V30 65 1 23 62
M  V30 66 1 23 63
M  V30 67 1 27 64
M  V30 68 1 28 65
M  V30 69 1 31 66
M  V30 70 1 35 67
M  V30 71 1 36 68
M  V30 72 1 37 69
M  V30 73 1 38 70
M  V30 74 1 39 71
M  V30 END BOND
M  V30 END CTAB
M  END
>  <Dataset>  (724) 
ChEMBL_Kinases

>  <Ligand_Instance>  (724) 
nan

>  <PDB_ID>  (724) 
nan

>  <Standardized_SMILES>  (724) 
COC(=O)c1c(CNC(=O)C2CCN(C(=O)OC(C)(C)C)CC2)c(=O)c2ccc(Cl)cc2n1-c1ccccc1

>  <Name>  (724) 
nan

>  <Pocket>  (724) 
nan

>  <ATP_Site>  (724) 
nan

>  <Peripheral>  (724) 
nan

>  <Num_H_Atoms_ProtBoundConf>  (724) 
nan

>  <Num_Resolved_Atoms>  (724) 
nan

>  <Num_Not_Resolved_Atoms>  (724) 
nan

$$$$
CHEMBL3679546
     RDKit          3D

  0  0  0  0  0  0  0  0  0  0999 V3000
M  V30 BEGIN CTAB
M  V30 COUNTS 60 64 0 0 0
M  V30 BEGIN ATOM
M  V30 1 C 1.504571 -0.296773 4.188749 0
M  V30 2 O 1.504627 -1.449827 3.337173 0
M  V30 3 C 1.848714 -1.350544 1.996054 0
M  V30 4 O 2.093868 -0.121769 1.894877 0
M  V30 5 C 1.878928 -2.459705 1.053602 0
M  V30 6 C 2.242789 -2.210825 -0.250388 0
M  V30 7 C 2.608479 -0.875471 -0.761937 0
M  V30 8 N 1.348245 -0.132021 -0.919461 0
M  V30 9 C 1.363112 1.197684 -1.393337 0
M  V30 10 O 2.531896 1.639569 -1.649224 0
M  V30 11 C 0.167698 2.013749 -1.582342 0
M  V30 12 C -1.088800 1.574213 -1.319499 0
M  V30 13 C -2.138802 2.439091 -1.538166 0
M  V30 14 C -2.046818 3.726145 -2.003874 0
M  V30 15 C -3.197955 4.595415 -2.215688 0
M  V30 16 C -3.035342 5.928002 -2.703756 0
M  V30 17 S -4.727286 6.537145 -2.777366 0
M  V30 18 C -5.409130 4.893920 -2.134706 0
M  V30 19 C -6.878832 4.603313 -1.906727 0
M  V30 20 N -4.451745 4.253107 -1.987685 0
M  V30 21 C -0.753733 4.129120 -2.256848 0
M  V30 22 C 0.340375 3.298061 -2.053906 0
M  V30 23 C 2.238290 -3.342192 -1.068353 0
M  V30 24 O 2.557340 -3.215997 -2.279910 0
M  V30 25 C 1.893397 -4.614995 -0.598882 0
M  V30 26 C 1.899563 -5.709476 -1.434772 0
M  V30 27 C 1.541530 -6.942184 -0.883639 0
M  V30 28 C 1.189529 -7.084398 0.450445 0
M  V30 29 Cl 0.742760 -8.644604 1.120113 0
M  V30 30 C 1.195720 -5.953250 1.263047 0
M  V30 31 C 1.549697 -4.710507 0.736086 0
M  V30 32 N 1.536081 -3.649579 1.576179 0
M  V30 33 C 1.172417 -3.820963 2.936507 0
M  V30 34 C -0.200160 -3.611724 3.111880 0
M  V30 35 C -0.794465 -3.725354 4.370996 0
M  V30 36 C 0.007161 -4.053097 5.459322 0
M  V30 37 C 1.365716 -4.256670 5.265219 0
M  V30 38 C 1.949643 -4.142701 4.014675 0
M  V30 39 H 1.088785 -0.572858 5.156659 0
M  V30 40 H 0.918807 0.475396 3.636436 0
M  V30 41 H 2.543077 0.119965 4.244000 0
M  V30 42 H 3.038607 -1.032032 -1.783209 0
M  V30 43 H 3.256929 -0.283449 -0.120655 0
M  V30 44 H 0.408802 -0.548105 -0.692250 0
M  V30 45 H -1.261815 0.588318 -0.954145 0
M  V30 46 H -3.136037 2.042816 -1.312445 0
M  V30 47 H -2.060542 6.401207 -2.954764 0
M  V30 48 H -7.161522 3.702929 -2.463644 0
M  V30 49 H -7.086737 4.447524 -0.845438 0
M  V30 50 H -7.469603 5.450734 -2.319659 0
M  V30 51 H -0.534610 5.108359 -2.623855 0
M  V30 52 H 1.349688 3.666833 -2.270821 0
M  V30 53 H 2.171170 -5.606516 -2.468966 0
M  V30 54 H 1.537157 -7.822990 -1.518203 0
M  V30 55 H 0.920830 -6.057648 2.309976 0
M  V30 56 H -0.923211 -3.350404 2.328443 0
M  V30 57 H -1.848147 -3.570039 4.537514 0
M  V30 58 H -0.349887 -4.165109 6.468532 0
M  V30 59 H 2.022415 -4.512210 6.082075 0
M  V30 60 H 2.983440 -4.281593 3.774830 0
M  V30 END ATOM
M  V30 BEGIN BOND
M  V30 1 1 1 2
M  V30 2 1 2 3
M  V30 3 2 3 4
M  V30 4 1 3 5
M  V30 5 2 5 6
M  V30 6 1 6 7
M  V30 7 1 7 8
M  V30 8 1 8 9
M  V30 9 2 9 10
M  V30 10 1 9 11
M  V30 11 2 11 12
M  V30 12 1 12 13
M  V30 13 2 13 14
M  V30 14 1 14 15
M  V30 15 2 15 16
M  V30 16 1 16 17
M  V30 17 1 17 18
M  V30 18 1 18 19
M  V30 19 2 18 20
M  V30 20 1 14 21
M  V30 21 2 21 22
M  V30 22 1 6 23
M  V30 23 2 23 24
M  V30 24 1 23 25
M  V30 25 2 25 26
M  V30 26 1 26 27
M  V30 27 2 27 28
M  V30 28 1 28 29
M  V30 29 1 28 30
M  V30 30 2 30 31
M  V30 31 1 31 32
M  V30 32 1 32 33
M  V30 33 2 33 34
M  V30 34 1 34 35
M  V30 35 2 35 36
M  V30 36 1 36 37
M  V30 37 2 37 38
M  V30 38 1 32 5
M  V30 39 1 38 33
M  V30 40 1 22 11
M  V30 41 1 31 25
M  V30 42 1 20 15
M  V30 43 1 1 39
M  V30 44 1 1 40
M  V30 45 1 1 41
M  V30 46 1 7 42
M  V30 47 1 7 43
M  V30 48 1 8 44
M  V30 49 1 12 45
M  V30 50 1 13 46
M  V30 51 1 16 47
M  V30 52 1 19 48
M  V30 53 1 19 49
M  V30 54 1 19 50
M  V30 55 1 21 51
M  V30 56 1 22 52
M  V30 57 1 26 53
M  V30 58 1 27 54
M  V30 59 1 30 55
M  V30 60 1 34 56
M  V30 61 1 35 57
M  V30 62 1 36 58
M  V30 63 1 37 59
M  V30 64 1 38 60
M  V30 END BOND
M  V30 END CTAB
M  END
>  <Dataset>  (725) 
ChEMBL_Kinases

>  <Ligand_Instance>  (725) 
nan

>  <PDB_ID>  (725) 
nan

>  <Standardized_SMILES>  (725) 
COC(=O)c1c(CNC(=O)c2ccc(-c3csc(C)n3)cc2)c(=O)c2ccc(Cl)cc2n1-c1ccccc1

>  <Name>  (725) 
nan

>  <Pocket>  (725) 
nan

>  <ATP_Site>  (725) 
nan

>  <Peripheral>  (725) 
nan

>  <Num_H_Atoms_ProtBoundConf>  (725) 
nan

>  <Num_Resolved_Atoms>  (725) 
nan

>  <Num_Not_Resolved_Atoms>  (725) 
nan

$$$$
CHEMBL3679545
     RDKit          3D

  0  0  0  0  0  0  0  0  0  0999 V3000
M  V30 BEGIN CTAB
M  V30 COUNTS 59 63 0 0 0
M  V30 BEGIN ATOM
M  V30 1 C 3.638725 -0.241911 3.044213 0
M  V30 2 O 2.976760 -1.335740 2.433949 0
M  V30 3 C 2.666646 -1.368204 1.083041 0
M  V30 4 O 3.160657 -0.239371 0.846576 0
M  V30 5 C 1.992898 -2.441248 0.371126 0
M  V30 6 C 1.763605 -2.309185 -0.976483 0
M  V30 7 C 2.147772 -1.141727 -1.779134 0
M  V30 8 N 1.281646 0.000279 -1.560775 0
M  V30 9 C -0.110492 0.116168 -1.770143 0
M  V30 10 O -0.740544 -0.875689 -2.205306 0
M  V30 11 C -0.883723 1.313893 -1.517083 0
M  V30 12 C -2.237451 1.291011 -1.774764 0
M  V30 13 C -3.068601 2.397176 -1.562733 0
M  V30 14 C -2.512070 3.560036 -1.075650 0
M  V30 15 C -3.282940 4.769546 -0.819688 0
M  V30 16 N -4.624207 4.835422 -1.049075 0
M  V30 17 C -5.091714 6.040925 -0.737804 0
M  V30 18 C -6.536173 6.344412 -0.908470 0
M  V30 19 N -4.016327 6.729626 -0.308486 0
M  V30 20 O -2.976996 5.953268 -0.370765 0
M  V30 21 C -1.160944 3.633597 -0.801787 0
M  V30 22 C -0.397354 2.508870 -1.032370 0
M  V30 23 C 1.116441 -3.418233 -1.532035 0
M  V30 24 O 0.835102 -3.452008 -2.762784 0
M  V30 25 C 0.735829 -4.546830 -0.812104 0
M  V30 26 C 0.107450 -5.598283 -1.407723 0
M  V30 27 C -0.234652 -6.672459 -0.630877 0
M  V30 28 C 0.040482 -6.716172 0.736442 0
M  V30 29 Cl -0.402596 -8.094666 1.715775 0
M  V30 30 C 0.678528 -5.627731 1.295415 0
M  V30 31 C 1.041608 -4.516823 0.534761 0
M  V30 32 N 1.662040 -3.488676 1.142869 0
M  V30 33 C 1.918193 -3.580236 2.535859 0
M  V30 34 C 0.939638 -2.972729 3.300291 0
M  V30 35 C 1.006685 -2.953674 4.690548 0
M  V30 36 C 2.101927 -3.574075 5.253990 0
M  V30 37 C 3.111061 -4.198338 4.518810 0
M  V30 38 C 3.000231 -4.191727 3.123562 0
M  V30 39 H 3.711410 -0.465828 4.127887 0
M  V30 40 H 3.115901 0.708498 2.908315 0
M  V30 41 H 4.695018 -0.150503 2.678971 0
M  V30 42 H 1.993453 -1.393233 -2.873284 0
M  V30 43 H 3.201343 -0.871745 -1.708527 0
M  V30 44 H 1.724141 0.876585 -1.198486 0
M  V30 45 H -2.759226 0.416833 -2.159936 0
M  V30 46 H -4.125405 2.362508 -1.769579 0
M  V30 47 H -7.091038 5.686152 -0.185410 0
M  V30 48 H -6.756952 7.398055 -0.697179 0
M  V30 49 H -6.863720 6.018715 -1.931776 0
M  V30 50 H -0.709362 4.531334 -0.421623 0
M  V30 51 H 0.659672 2.564840 -0.818414 0
M  V30 52 H -0.110342 -5.571231 -2.473469 0
M  V30 53 H -0.738606 -7.536741 -1.064909 0
M  V30 54 H 0.891492 -5.669565 2.370475 0
M  V30 55 H 0.051735 -2.467387 2.899785 0
M  V30 56 H 0.247911 -2.481060 5.311698 0
M  V30 57 H 2.207134 -3.590368 6.339254 0
M  V30 58 H 3.956816 -4.676474 4.970478 0
M  V30 59 H 3.720355 -4.642818 2.474087 0
M  V30 END ATOM
M  V30 BEGIN BOND
M  V30 1 1 1 2
M  V30 2 1 2 3
M  V30 3 2 3 4
M  V30 4 1 3 5
M  V30 5 2 5 6
M  V30 6 1 6 7
M  V30 7 1 7 8
M  V30 8 1 8 9
M  V30 9 2 9 10
M  V30 10 1 9 11
M  V30 11 2 11 12
M  V30 12 1 12 13
M  V30 13 2 13 14
M  V30 14 1 14 15
M  V30 15 2 15 16
M  V30 16 1 16 17
M  V30 17 1 17 18
M  V30 18 2 17 19
M  V30 19 1 19 20
M  V30 20 1 14 21
M  V30 21 2 21 22
M  V30 22 1 6 23
M  V30 23 2 23 24
M  V30 24 1 23 25
M  V30 25 2 25 26
M  V30 26 1 26 27
M  V30 27 2 27 28
M  V30 28 1 28 29
M  V30 29 1 28 30
M  V30 30 2 30 31
M  V30 31 1 31 32
M  V30 32 1 32 33
M  V30 33 2 33 34
M  V30 34 1 34 35
M  V30 35 2 35 36
M  V30 36 1 36 37
M  V30 37 2 37 38
M  V30 38 1 32 5
M  V30 39 1 38 33
M  V30 40 1 22 11
M  V30 41 1 31 25
M  V30 42 1 20 15
M  V30 43 1 1 39
M  V30 44 1 1 40
M  V30 45 1 1 41
M  V30 46 1 7 42
M  V30 47 1 7 43
M  V30 48 1 8 44
M  V30 49 1 12 45
M  V30 50 1 13 46
M  V30 51 1 18 47
M  V30 52 1 18 48
M  V30 53 1 18 49
M  V30 54 1 21 50
M  V30 55 1 22 51
M  V30 56 1 26 52
M  V30 57 1 27 53
M  V30 58 1 30 54
M  V30 59 1 34 55
M  V30 60 1 35 56
M  V30 61 1 36 57
M  V30 62 1 37 58
M  V30 63 1 38 59
M  V30 END BOND
M  V30 END CTAB
M  END
>  <Dataset>  (726) 
ChEMBL_Kinases

>  <Ligand_Instance>  (726) 
nan

>  <PDB_ID>  (726) 
nan

>  <Standardized_SMILES>  (726) 
COC(=O)c1c(CNC(=O)c2ccc(-c3nc(C)no3)cc2)c(=O)c2ccc(Cl)cc2n1-c1ccccc1

>  <Name>  (726) 
nan

>  <Pocket>  (726) 
nan

>  <ATP_Site>  (726) 
nan

>  <Peripheral>  (726) 
nan

>  <Num_H_Atoms_ProtBoundConf>  (726) 
nan

>  <Num_Resolved_Atoms>  (726) 
nan

>  <Num_Not_Resolved_Atoms>  (726) 
nan

$$$$
CHEMBL3679544
     RDKit          3D

  0  0  0  0  0  0  0  0  0  0999 V3000
M  V30 BEGIN CTAB
M  V30 COUNTS 59 63 0 0 0
M  V30 BEGIN ATOM
M  V30 1 C 3.393540 -0.176150 3.110777 0
M  V30 2 O 2.750165 -1.292831 2.500444 0
M  V30 3 C 2.561207 -1.375214 1.128264 0
M  V30 4 O 3.105636 -0.273371 0.884028 0
M  V30 5 C 1.917267 -2.474368 0.425622 0
M  V30 6 C 1.801486 -2.413353 -0.944633 0
M  V30 7 C 2.279469 -1.312560 -1.780333 0
M  V30 8 N 1.431399 -0.140003 -1.694505 0
M  V30 9 C 0.061144 -0.003730 -2.014392 0
M  V30 10 O -0.563082 -1.007499 -2.438190 0
M  V30 11 C -0.672817 1.245860 -1.879043 0
M  V30 12 C -2.021701 1.224960 -2.239505 0
M  V30 13 C -2.834826 2.357808 -2.155777 0
M  V30 14 C -2.234048 3.509775 -1.694870 0
M  V30 15 C -3.050904 4.715548 -1.593689 0
M  V30 16 N -3.192371 5.899716 -2.220722 0
M  V30 17 O -4.131987 6.557279 -1.622017 0
M  V30 18 C -4.629588 5.870944 -0.621372 0
M  V30 19 C -5.729734 6.286494 0.313550 0
M  V30 20 N -3.959710 4.707388 -0.589004 0
M  V30 21 C -0.912866 3.595741 -1.324563 0
M  V30 22 C -0.181668 2.431610 -1.438089 0
M  V30 23 C 1.164066 -3.552488 -1.455311 0
M  V30 24 O 0.979938 -3.653789 -2.699470 0
M  V30 25 C 0.706462 -4.608203 -0.682332 0
M  V30 26 C 0.096074 -5.680572 -1.257202 0
M  V30 27 C -0.346330 -6.707169 -0.481359 0
M  V30 28 C -0.176135 -6.660321 0.884538 0
M  V30 29 Cl -0.769438 -8.011592 1.805574 0
M  V30 30 C 0.441764 -5.570328 1.445889 0
M  V30 31 C 0.898147 -4.518487 0.680501 0
M  V30 32 N 1.494520 -3.466872 1.223281 0
M  V30 33 C 1.641228 -3.474136 2.637335 0
M  V30 34 C 0.572020 -2.812782 3.253380 0
M  V30 35 C 0.529537 -2.712010 4.639488 0
M  V30 36 C 1.536427 -3.259559 5.432729 0
M  V30 37 C 2.587382 -3.911970 4.782262 0
M  V30 38 C 2.634463 -4.014988 3.406650 0
M  V30 39 H 3.436357 -0.413942 4.200445 0
M  V30 40 H 2.856273 0.774482 2.942982 0
M  V30 41 H 4.434066 -0.059308 2.751458 0
M  V30 42 H 2.166782 -1.671781 -2.850020 0
M  V30 43 H 3.336179 -1.078786 -1.689327 0
M  V30 44 H 1.883927 0.729489 -1.352341 0
M  V30 45 H -2.533057 0.341855 -2.606184 0
M  V30 46 H -3.879549 2.327086 -2.438845 0
M  V30 47 H -6.368208 7.070188 -0.165836 0
M  V30 48 H -6.359100 5.396415 0.501350 0
M  V30 49 H -5.290067 6.695566 1.251161 0
M  V30 50 H -0.455486 4.500412 -0.966435 0
M  V30 51 H 0.857314 2.470096 -1.154280 0
M  V30 52 H -0.046844 -5.735955 -2.325162 0
M  V30 53 H -0.828281 -7.549339 -0.957372 0
M  V30 54 H 0.562219 -5.561113 2.526311 0
M  V30 55 H -0.277139 -2.341879 2.744926 0
M  V30 56 H -0.295470 -2.199392 5.154623 0
M  V30 57 H 1.496031 -3.177129 6.509736 0
M  V30 58 H 3.396780 -4.355991 5.356979 0
M  V30 59 H 3.400001 -4.494687 2.847442 0
M  V30 END ATOM
M  V30 BEGIN BOND
M  V30 1 1 1 2
M  V30 2 1 2 3
M  V30 3 2 3 4
M  V30 4 1 3 5
M  V30 5 2 5 6
M  V30 6 1 6 7
M  V30 7 1 7 8
M  V30 8 1 8 9
M  V30 9 2 9 10
M  V30 10 1 9 11
M  V30 11 2 11 12
M  V30 12 1 12 13
M  V30 13 2 13 14
M  V30 14 1 14 15
M  V30 15 2 15 16
M  V30 16 1 16 17
M  V30 17 1 17 18
M  V30 18 1 18 19
M  V30 19 2 18 20
M  V30 20 1 14 21
M  V30 21 2 21 22
M  V30 22 1 6 23
M  V30 23 2 23 24
M  V30 24 1 23 25
M  V30 25 2 25 26
M  V30 26 1 26 27
M  V30 27 2 27 28
M  V30 28 1 28 29
M  V30 29 1 28 30
M  V30 30 2 30 31
M  V30 31 1 31 32
M  V30 32 1 32 33
M  V30 33 2 33 34
M  V30 34 1 34 35
M  V30 35 2 35 36
M  V30 36 1 36 37
M  V30 37 2 37 38
M  V30 38 1 32 5
M  V30 39 1 38 33
M  V30 40 1 22 11
M  V30 41 1 31 25
M  V30 42 1 20 15
M  V30 43 1 1 39
M  V30 44 1 1 40
M  V30 45 1 1 41
M  V30 46 1 7 42
M  V30 47 1 7 43
M  V30 48 1 8 44
M  V30 49 1 12 45
M  V30 50 1 13 46
M  V30 51 1 19 47
M  V30 52 1 19 48
M  V30 53 1 19 49
M  V30 54 1 21 50
M  V30 55 1 22 51
M  V30 56 1 26 52
M  V30 57 1 27 53
M  V30 58 1 30 54
M  V30 59 1 34 55
M  V30 60 1 35 56
M  V30 61 1 36 57
M  V30 62 1 37 58
M  V30 63 1 38 59
M  V30 END BOND
M  V30 END CTAB
M  END
>  <Dataset>  (727) 
ChEMBL_Kinases

>  <Ligand_Instance>  (727) 
nan

>  <PDB_ID>  (727) 
nan

>  <Standardized_SMILES>  (727) 
COC(=O)c1c(CNC(=O)c2ccc(-c3noc(C)n3)cc2)c(=O)c2ccc(Cl)cc2n1-c1ccccc1

>  <Name>  (727) 
nan

>  <Pocket>  (727) 
nan

>  <ATP_Site>  (727) 
nan

>  <Peripheral>  (727) 
nan

>  <Num_H_Atoms_ProtBoundConf>  (727) 
nan

>  <Num_Resolved_Atoms>  (727) 
nan

>  <Num_Not_Resolved_Atoms>  (727) 
nan

$$$$
CHEMBL3679543
     RDKit          3D

  0  0  0  0  0  0  0  0  0  0999 V3000
M  V30 BEGIN CTAB
M  V30 COUNTS 56 60 0 0 0
M  V30 BEGIN ATOM
M  V30 1 C -1.620898 -1.070156 4.074294 0
M  V30 2 O -0.562936 -1.305408 3.172704 0
M  V30 3 C -0.606747 -2.197167 2.132191 0
M  V30 4 O -1.748339 -2.715647 2.181944 0
M  V30 5 C 0.391640 -2.543011 1.134198 0
M  V30 6 C 1.641795 -1.971624 1.068075 0
M  V30 7 C 2.075648 -0.939333 2.012802 0
M  V30 8 N 1.498085 0.371572 1.781735 0
M  V30 9 C 1.578511 1.177046 0.632266 0
M  V30 10 O 2.232140 0.745575 -0.360623 0
M  V30 11 C 0.972223 2.488814 0.462023 0
M  V30 12 C 1.152659 3.157229 -0.729775 0
M  V30 13 C 0.596852 4.421771 -0.965612 0
M  V30 14 C -0.150524 4.994666 0.042673 0
M  V30 15 C -0.706026 6.272897 -0.207691 0
M  V30 16 C -1.494398 7.040210 0.654283 0
M  V30 17 N -1.953065 8.214535 0.307603 0
M  V30 18 N -1.686543 8.692490 -0.842876 0
M  V30 19 S -0.654978 7.330699 -1.553776 0
M  V30 20 C -0.363764 4.374206 1.252096 0
M  V30 21 C 0.213358 3.127111 1.419309 0
M  V30 22 C 2.519742 -2.396567 0.065597 0
M  V30 23 O 3.667686 -1.956923 -0.090866 0
M  V30 24 C 2.136416 -3.369322 -0.838224 0
M  V30 25 C 3.000208 -3.806161 -1.847066 0
M  V30 26 C 2.589295 -4.778511 -2.734537 0
M  V30 27 C 1.326216 -5.323091 -2.630645 0
M  V30 28 Cl 0.775331 -6.568805 -3.752493 0
M  V30 29 C 0.475757 -4.889753 -1.633768 0
M  V30 30 C 0.866178 -3.904930 -0.719777 0
M  V30 31 N 0.030245 -3.488924 0.248586 0
M  V30 32 C -1.250079 -4.114923 0.268252 0
M  V30 33 C -1.600382 -5.212794 1.015162 0
M  V30 34 C -2.886283 -5.721283 0.937843 0
M  V30 35 C -3.840944 -5.140690 0.113661 0
M  V30 36 C -3.473577 -4.033561 -0.634253 0
M  V30 37 C -2.199200 -3.530125 -0.557210 0
M  V30 38 H -2.455357 -1.789249 3.964834 0
M  V30 39 H -1.276673 -1.212721 5.141564 0
M  V30 40 H -1.941697 -0.006097 4.046181 0
M  V30 41 H 1.744121 -1.266292 3.019379 0
M  V30 42 H 3.191231 -0.858086 2.071959 0
M  V30 43 H 0.930440 0.862004 2.527616 0
M  V30 44 H 1.731800 2.743189 -1.545038 0
M  V30 45 H 0.753185 4.918284 -1.901424 0
M  V30 46 H -1.821489 6.787199 1.676564 0
M  V30 47 H -0.952600 4.828482 2.043595 0
M  V30 48 H 0.035722 2.655423 2.373498 0
M  V30 49 H 3.998113 -3.358063 -1.909317 0
M  V30 50 H 3.273099 -5.115088 -3.522404 0
M  V30 51 H -0.505932 -5.342424 -1.587889 0
M  V30 52 H -0.830868 -5.634082 1.642174 0
M  V30 53 H -3.075515 -6.589643 1.561619 0
M  V30 54 H -4.837889 -5.565449 0.078009 0
M  V30 55 H -4.266378 -3.631719 -1.254809 0
M  V30 56 H -2.011115 -2.661643 -1.181370 0
M  V30 END ATOM
M  V30 BEGIN BOND
M  V30 1 1 1 2
M  V30 2 1 2 3
M  V30 3 2 3 4
M  V30 4 1 3 5
M  V30 5 2 5 6
M  V30 6 1 6 7
M  V30 7 1 7 8
M  V30 8 1 8 9
M  V30 9 2 9 10
M  V30 10 1 9 11
M  V30 11 2 11 12
M  V30 12 1 12 13
M  V30 13 2 13 14
M  V30 14 1 14 15
M  V30 15 2 15 16
M  V30 16 1 16 17
M  V30 17 2 17 18
M  V30 18 1 18 19
M  V30 19 1 14 20
M  V30 20 2 20 21
M  V30 21 1 6 22
M  V30 22 2 22 23
M  V30 23 1 22 24
M  V30 24 2 24 25
M  V30 25 1 25 26
M  V30 26 2 26 27
M  V30 27 1 27 28
M  V30 28 1 27 29
M  V30 29 2 29 30
M  V30 30 1 30 31
M  V30 31 1 31 32
M  V30 32 2 32 33
M  V30 33 1 33 34
M  V30 34 2 34 35
M  V30 35 1 35 36
M  V30 36 2 36 37
M  V30 37 1 31 5
M  V30 38 1 37 32
M  V30 39 1 21 11
M  V30 40 1 30 24
M  V30 41 1 19 15
M  V30 42 1 1 38
M  V30 43 1 1 39
M  V30 44 1 1 40
M  V30 45 1 7 41
M  V30 46 1 7 42
M  V30 47 1 8 43
M  V30 48 1 12 44
M  V30 49 1 13 45
M  V30 50 1 16 46
M  V30 51 1 20 47
M  V30 52 1 21 48
M  V30 53 1 25 49
M  V30 54 1 26 50
M  V30 55 1 29 51
M  V30 56 1 33 52
M  V30 57 1 34 53
M  V30 58 1 35 54
M  V30 59 1 36 55
M  V30 60 1 37 56
M  V30 END BOND
M  V30 END CTAB
M  END
>  <Dataset>  (728) 
ChEMBL_Kinases

>  <Ligand_Instance>  (728) 
nan

>  <PDB_ID>  (728) 
nan

>  <Standardized_SMILES>  (728) 
COC(=O)c1c(CNC(=O)c2ccc(-c3cnns3)cc2)c(=O)c2ccc(Cl)cc2n1-c1ccccc1

>  <Name>  (728) 
nan

>  <Pocket>  (728) 
nan

>  <ATP_Site>  (728) 
nan

>  <Peripheral>  (728) 
nan

>  <Num_H_Atoms_ProtBoundConf>  (728) 
nan

>  <Num_Resolved_Atoms>  (728) 
nan

>  <Num_Not_Resolved_Atoms>  (728) 
nan

$$$$
CHEMBL3679542
     RDKit          3D

  0  0  0  0  0  0  0  0  0  0999 V3000
M  V30 BEGIN CTAB
M  V30 COUNTS 64 68 0 0 0
M  V30 BEGIN ATOM
M  V30 1 C 1.781615 2.905810 1.344569 0
M  V30 2 O 2.170536 1.547135 1.261409 0
M  V30 3 C 1.848109 0.635336 2.245885 0
M  V30 4 O 1.220032 1.364778 3.021332 0
M  V30 5 C 2.133132 -0.780136 2.388292 0
M  V30 6 C 2.834987 -1.608729 1.529075 0
M  V30 7 C 3.330713 -0.920172 0.313828 0
M  V30 8 N 2.201844 -0.689067 -0.558150 0
M  V30 9 C 1.821426 -0.109678 -1.759977 0
M  V30 10 O 2.812724 0.436430 -2.356382 0
M  V30 11 C 0.511441 -0.051319 -2.378853 0
M  V30 12 C 0.388929 0.701142 -3.528646 0
M  V30 13 C -0.881927 0.732874 -4.083552 0
M  V30 14 C -2.020262 0.111271 -3.626466 0
M  V30 15 N -3.305082 0.182642 -4.218124 0
M  V30 16 C -3.727921 1.056225 -5.274691 0
M  V30 17 C -4.493093 0.337628 -6.383823 0
M  V30 18 O -4.560811 -1.025337 -6.073685 0
M  V30 19 C -5.317659 -1.067374 -4.873095 0
M  V30 20 C -4.374638 -0.692247 -3.751243 0
M  V30 21 C -1.879694 -0.651869 -2.457247 0
M  V30 22 C -0.603633 -0.690165 -1.889995 0
M  V30 23 C 3.031004 -2.943037 1.805635 0
M  V30 24 O 3.669740 -3.635478 0.990834 0
M  V30 25 C 2.486975 -3.378783 2.981081 0
M  V30 26 C 2.665235 -4.730490 3.307896 0
M  V30 27 C 2.154311 -5.259685 4.490227 0
M  V30 28 C 1.452279 -4.462796 5.375516 0
M  V30 29 Cl 0.782739 -5.058145 6.891908 0
M  V30 30 C 1.292626 -3.146685 5.026651 0
M  V30 31 C 1.780928 -2.569346 3.864809 0
M  V30 32 N 1.618755 -1.278969 3.543120 0
M  V30 33 C 0.871337 -0.574260 4.545862 0
M  V30 34 C -0.503220 -0.733673 4.520109 0
M  V30 35 C -1.368502 -0.137378 5.401875 0
M  V30 36 C -0.853137 0.670517 6.377915 0
M  V30 37 C 0.531271 0.863713 6.444480 0
M  V30 38 C 1.388074 0.243423 5.532096 0
M  V30 39 H 2.151230 3.388164 2.290641 0
M  V30 40 H 0.672970 2.890278 1.400036 0
M  V30 41 H 2.135673 3.469906 0.473272 0
M  V30 42 H 4.103975 -1.560886 -0.184781 0
M  V30 43 H 3.781008 0.057917 0.571778 0
M  V30 44 H 1.294045 -1.111538 -0.166706 0
M  V30 45 H 1.220652 1.229938 -3.963328 0
M  V30 46 H -0.964153 1.335656 -4.995935 0
M  V30 47 H -4.375292 1.897811 -4.886926 0
M  V30 48 H -2.855414 1.568579 -5.723684 0
M  V30 49 H -4.098130 0.537090 -7.384664 0
M  V30 50 H -5.556464 0.726740 -6.412702 0
M  V30 51 H -5.745451 -2.093553 -4.763999 0
M  V30 52 H -6.118479 -0.327315 -5.013005 0
M  V30 53 H -3.986861 -1.648537 -3.331417 0
M  V30 54 H -4.890533 -0.163644 -2.926416 0
M  V30 55 H -2.647876 -1.199070 -1.942417 0
M  V30 56 H -0.519285 -1.296128 -0.973650 0
M  V30 57 H 3.209176 -5.410633 2.657203 0
M  V30 58 H 2.270229 -6.293957 4.788283 0
M  V30 59 H 0.740606 -2.522672 5.718546 0
M  V30 60 H -0.946677 -1.368626 3.752175 0
M  V30 61 H -2.449961 -0.305814 5.316757 0
M  V30 62 H -1.504143 1.156915 7.092028 0
M  V30 63 H 0.945326 1.503362 7.217340 0
M  V30 64 H 2.453106 0.360535 5.534813 0
M  V30 END ATOM
M  V30 BEGIN BOND
M  V30 1 1 1 2
M  V30 2 1 2 3
M  V30 3 2 3 4
M  V30 4 1 3 5
M  V30 5 2 5 6
M  V30 6 1 6 7
M  V30 7 1 7 8
M  V30 8 1 8 9
M  V30 9 2 9 10
M  V30 10 1 9 11
M  V30 11 2 11 12
M  V30 12 1 12 13
M  V30 13 2 13 14
M  V30 14 1 14 15
M  V30 15 1 15 16
M  V30 16 1 16 17
M  V30 17 1 17 18
M  V30 18 1 18 19
M  V30 19 1 19 20
M  V30 20 1 14 21
M  V30 21 2 21 22
M  V30 22 1 6 23
M  V30 23 2 23 24
M  V30 24 1 23 25
M  V30 25 2 25 26
M  V30 26 1 26 27
M  V30 27 2 27 28
M  V30 28 1 28 29
M  V30 29 1 28 30
M  V30 30 2 30 31
M  V30 31 1 31 32
M  V30 32 1 32 33
M  V30 33 2 33 34
M  V30 34 1 34 35
M  V30 35 2 35 36
M  V30 36 1 36 37
M  V30 37 2 37 38
M  V30 38 1 32 5
M  V30 39 1 38 33
M  V30 40 1 22 11
M  V30 41 1 31 25
M  V30 42 1 20 15
M  V30 43 1 1 39
M  V30 44 1 1 40
M  V30 45 1 1 41
M  V30 46 1 7 42
M  V30 47 1 7 43
M  V30 48 1 8 44
M  V30 49 1 12 45
M  V30 50 1 13 46
M  V30 51 1 16 47
M  V30 52 1 16 48
M  V30 53 1 17 49
M  V30 54 1 17 50
M  V30 55 1 19 51
M  V30 56 1 19 52
M  V30 57 1 20 53
M  V30 58 1 20 54
M  V30 59 1 21 55
M  V30 60 1 22 56
M  V30 61 1 26 57
M  V30 62 1 27 58
M  V30 63 1 30 59
M  V30 64 1 34 60
M  V30 65 1 35 61
M  V30 66 1 36 62
M  V30 67 1 37 63
M  V30 68 1 38 64
M  V30 END BOND
M  V30 END CTAB
M  END
>  <Dataset>  (729) 
ChEMBL_Kinases

>  <Ligand_Instance>  (729) 
nan

>  <PDB_ID>  (729) 
nan

>  <Standardized_SMILES>  (729) 
COC(=O)c1c(CNC(=O)c2ccc(N3CCOCC3)cc2)c(=O)c2ccc(Cl)cc2n1-c1ccccc1

>  <Name>  (729) 
nan

>  <Pocket>  (729) 
nan

>  <ATP_Site>  (729) 
nan

>  <Peripheral>  (729) 
nan

>  <Num_H_Atoms_ProtBoundConf>  (729) 
nan

>  <Num_Resolved_Atoms>  (729) 
nan

>  <Num_Not_Resolved_Atoms>  (729) 
nan

$$$$
CHEMBL3679541
     RDKit          3D

  0  0  0  0  0  0  0  0  0  0999 V3000
M  V30 BEGIN CTAB
M  V30 COUNTS 58 62 0 0 0
M  V30 BEGIN ATOM
M  V30 1 C -3.463686 -0.941133 2.482882 0
M  V30 2 O -2.114326 -1.321126 2.445154 0
M  V30 3 C -1.623534 -2.285118 1.583731 0
M  V30 4 O -2.774476 -2.455178 1.108212 0
M  V30 5 C -0.327085 -2.866223 1.326896 0
M  V30 6 C 0.785391 -2.466358 2.020112 0
M  V30 7 C 0.777674 -1.415076 3.064878 0
M  V30 8 N 0.690959 -0.097007 2.533095 0
M  V30 9 C 1.531901 0.609400 1.651703 0
M  V30 10 O 2.562278 -0.016846 1.239523 0
M  V30 11 C 1.307992 1.973613 1.191730 0
M  V30 12 C 0.244919 2.780651 1.540354 0
M  V30 13 C 0.099833 4.067364 1.063298 0
M  V30 14 C 1.031180 4.607305 0.201760 0
M  V30 15 C 0.891705 5.963946 -0.309781 0
M  V30 16 C -0.142476 6.821615 -0.002599 0
M  V30 17 C 0.129854 7.986896 -0.703491 0
M  V30 18 N 1.278544 7.832745 -1.400545 0
M  V30 19 N 1.724194 6.601135 -1.148697 0
M  V30 20 C 2.109225 3.834959 -0.172319 0
M  V30 21 C 2.213849 2.554204 0.329060 0
M  V30 22 C 1.935871 -3.155822 1.636967 0
M  V30 23 O 3.033479 -2.893878 2.191097 0
M  V30 24 C 1.963738 -4.135498 0.666206 0
M  V30 25 C 3.158459 -4.773685 0.344812 0
M  V30 26 C 3.139643 -5.745554 -0.631216 0
M  V30 27 C 1.965412 -6.090761 -1.286958 0
M  V30 28 Cl 1.990343 -7.337430 -2.526453 0
M  V30 29 C 0.795540 -5.442596 -0.949002 0
M  V30 30 C 0.777400 -4.450949 0.036990 0
M  V30 31 N -0.361978 -3.812072 0.373319 0
M  V30 32 C -1.514731 -4.214742 -0.332871 0
M  V30 33 C -2.361927 -5.228709 -0.025546 0
M  V30 34 C -3.467793 -5.516586 -0.817089 0
M  V30 35 C -3.693883 -4.742917 -1.937762 0
M  V30 36 C -2.852759 -3.704885 -2.278944 0
M  V30 37 C -1.768050 -3.453075 -1.467271 0
M  V30 38 H -3.601461 -0.204346 3.286881 0
M  V30 39 H -4.134392 -1.799860 2.750420 0
M  V30 40 H -3.703694 -0.545576 1.464187 0
M  V30 41 H 1.778473 -1.496201 3.584440 0
M  V30 42 H 0.020055 -1.588696 3.840104 0
M  V30 43 H -0.136389 0.503816 2.826979 0
M  V30 44 H -0.492221 2.387100 2.206837 0
M  V30 45 H -0.761081 4.639412 1.382054 0
M  V30 46 H -1.012206 6.675519 0.642357 0
M  V30 47 H -0.499121 8.870428 -0.677861 0
M  V30 48 H 1.672189 8.591194 -2.001056 0
M  V30 49 H 2.875347 4.210901 -0.850507 0
M  V30 50 H 3.072375 1.979282 0.013121 0
M  V30 51 H 4.094113 -4.526421 0.839770 0
M  V30 52 H 4.081759 -6.226886 -0.862888 0
M  V30 53 H -0.134309 -5.685906 -1.438200 0
M  V30 54 H -2.097104 -5.774225 0.871291 0
M  V30 55 H -4.107418 -6.344375 -0.513345 0
M  V30 56 H -4.565441 -4.985348 -2.543443 0
M  V30 57 H -3.124906 -3.168547 -3.173249 0
M  V30 58 H -1.152640 -2.619723 -1.801861 0
M  V30 END ATOM
M  V30 BEGIN BOND
M  V30 1 1 1 2
M  V30 2 1 2 3
M  V30 3 2 3 4
M  V30 4 1 3 5
M  V30 5 2 5 6
M  V30 6 1 6 7
M  V30 7 1 7 8
M  V30 8 1 8 9
M  V30 9 2 9 10
M  V30 10 1 9 11
M  V30 11 2 11 12
M  V30 12 1 12 13
M  V30 13 2 13 14
M  V30 14 1 14 15
M  V30 15 1 15 16
M  V30 16 2 16 17
M  V30 17 1 17 18
M  V30 18 1 18 19
M  V30 19 1 14 20
M  V30 20 2 20 21
M  V30 21 1 6 22
M  V30 22 2 22 23
M  V30 23 1 22 24
M  V30 24 2 24 25
M  V30 25 1 25 26
M  V30 26 2 26 27
M  V30 27 1 27 28
M  V30 28 1 27 29
M  V30 29 2 29 30
M  V30 30 1 30 31
M  V30 31 1 31 32
M  V30 32 2 32 33
M  V30 33 1 33 34
M  V30 34 2 34 35
M  V30 35 1 35 36
M  V30 36 2 36 37
M  V30 37 1 31 5
M  V30 38 1 37 32
M  V30 39 1 21 11
M  V30 40 1 30 24
M  V30 41 2 19 15
M  V30 42 1 1 38
M  V30 43 1 1 39
M  V30 44 1 1 40
M  V30 45 1 7 41
M  V30 46 1 7 42
M  V30 47 1 8 43
M  V30 48 1 12 44
M  V30 49 1 13 45
M  V30 50 1 16 46
M  V30 51 1 17 47
M  V30 52 1 18 48
M  V30 53 1 20 49
M  V30 54 1 21 50
M  V30 55 1 25 51
M  V30 56 1 26 52
M  V30 57 1 29 53
M  V30 58 1 33 54
M  V30 59 1 34 55
M  V30 60 1 35 56
M  V30 61 1 36 57
M  V30 62 1 37 58
M  V30 END BOND
M  V30 END CTAB
M  END
>  <Dataset>  (730) 
ChEMBL_Kinases

>  <Ligand_Instance>  (730) 
nan

>  <PDB_ID>  (730) 
nan

>  <Standardized_SMILES>  (730) 
COC(=O)c1c(CNC(=O)c2ccc(-c3cc[nH]n3)cc2)c(=O)c2ccc(Cl)cc2n1-c1ccccc1

>  <Name>  (730) 
nan

>  <Pocket>  (730) 
nan

>  <ATP_Site>  (730) 
nan

>  <Peripheral>  (730) 
nan

>  <Num_H_Atoms_ProtBoundConf>  (730) 
nan

>  <Num_Resolved_Atoms>  (730) 
nan

>  <Num_Not_Resolved_Atoms>  (730) 
nan

$$$$
CHEMBL3679540
     RDKit          3D

  0  0  0  0  0  0  0  0  0  0999 V3000
M  V30 BEGIN CTAB
M  V30 COUNTS 51 54 0 0 0
M  V30 BEGIN ATOM
M  V30 1 C 1.035313 -5.304150 1.316799 0
M  V30 2 O 0.212960 -4.211474 0.963618 0
M  V30 3 C 0.616927 -2.901193 1.099665 0
M  V30 4 O 1.703954 -3.275507 1.544567 0
M  V30 5 C -0.153618 -1.733978 0.766241 0
M  V30 6 C 0.352237 -0.458590 0.941557 0
M  V30 7 C 1.723601 -0.383382 1.499439 0
M  V30 8 N 2.322483 0.915112 1.461510 0
M  V30 9 C 2.670800 1.665480 0.308460 0
M  V30 10 O 2.465910 1.199700 -0.850373 0
M  V30 11 C 3.271881 2.988794 0.462655 0
M  V30 12 C 3.672504 3.867607 -0.515768 0
M  V30 13 N 4.171474 4.966597 0.112005 0
M  V30 14 N 4.109391 4.832788 1.418811 0
M  V30 15 C 4.545109 5.790700 2.414997 0
M  V30 16 C 3.557749 3.620215 1.662320 0
M  V30 17 C -0.483083 0.578929 0.590809 0
M  V30 18 O -0.056268 1.729791 0.739700 0
M  V30 19 C -1.744697 0.322802 0.095424 0
M  V30 20 C -2.571382 1.371281 -0.251994 0
M  V30 21 C -3.827466 1.078018 -0.742939 0
M  V30 22 C -4.314629 -0.191556 -0.910811 0
M  V30 23 Cl -5.904435 -0.523384 -1.532084 0
M  V30 24 C -3.457954 -1.227109 -0.551758 0
M  V30 25 C -2.182604 -0.973421 -0.052355 0
M  V30 26 N -1.379068 -1.995120 0.286280 0
M  V30 27 C -1.897111 -3.321110 0.122740 0
M  V30 28 C -2.593335 -3.636992 1.273703 0
M  V30 29 C -3.215638 -4.887064 1.398543 0
M  V30 30 C -3.132116 -5.802475 0.370224 0
M  V30 31 C -2.431368 -5.450813 -0.756412 0
M  V30 32 C -1.815298 -4.237420 -0.902579 0
M  V30 33 H 1.404956 -5.240590 2.368684 0
M  V30 34 H 0.460971 -6.269309 1.282536 0
M  V30 35 H 1.920531 -5.406311 0.673312 0
M  V30 36 H 2.312712 -1.129953 0.884661 0
M  V30 37 H 1.693259 -0.802940 2.510769 0
M  V30 38 H 2.531363 1.372618 2.399314 0
M  V30 39 H 3.586984 3.675616 -1.582067 0
M  V30 40 H 3.994237 6.731527 2.367253 0
M  V30 41 H 5.640191 5.910181 2.279189 0
M  V30 42 H 4.377459 5.361401 3.443872 0
M  V30 43 H 3.391572 3.254271 2.654489 0
M  V30 44 H -2.264517 2.403063 -0.151005 0
M  V30 45 H -4.512956 1.872149 -1.029723 0
M  V30 46 H -3.848941 -2.239652 -0.686587 0
M  V30 47 H -2.770071 -3.061636 2.178003 0
M  V30 48 H -3.785174 -5.231646 2.259872 0
M  V30 49 H -3.591986 -6.789835 0.405558 0
M  V30 50 H -2.323432 -6.113172 -1.598663 0
M  V30 51 H -1.241682 -3.835569 -1.717801 0
M  V30 END ATOM
M  V30 BEGIN BOND
M  V30 1 1 1 2
M  V30 2 1 2 3
M  V30 3 2 3 4
M  V30 4 1 3 5
M  V30 5 2 5 6
M  V30 6 1 6 7
M  V30 7 1 7 8
M  V30 8 1 8 9
M  V30 9 2 9 10
M  V30 10 1 9 11
M  V30 11 1 11 12
M  V30 12 2 12 13
M  V30 13 1 13 14
M  V30 14 1 14 15
M  V30 15 1 14 16
M  V30 16 1 6 17
M  V30 17 2 17 18
M  V30 18 1 17 19
M  V30 19 2 19 20
M  V30 20 1 20 21
M  V30 21 2 21 22
M  V30 22 1 22 23
M  V30 23 1 22 24
M  V30 24 2 24 25
M  V30 25 1 25 26
M  V30 26 1 26 27
M  V30 27 2 27 28
M  V30 28 1 28 29
M  V30 29 2 29 30
M  V30 30 1 30 31
M  V30 31 2 31 32
M  V30 32 1 26 5
M  V30 33 1 32 27
M  V30 34 2 16 11
M  V30 35 1 25 19
M  V30 36 1 1 33
M  V30 37 1 1 34
M  V30 38 1 1 35
M  V30 39 1 7 36
M  V30 40 1 7 37
M  V30 41 1 8 38
M  V30 42 1 12 39
M  V30 43 1 15 40
M  V30 44 1 15 41
M  V30 45 1 15 42
M  V30 46 1 16 43
M  V30 47 1 20 44
M  V30 48 1 21 45
M  V30 49 1 24 46
M  V30 50 1 28 47
M  V30 51 1 29 48
M  V30 52 1 30 49
M  V30 53 1 31 50
M  V30 54 1 32 51
M  V30 END BOND
M  V30 END CTAB
M  END
>  <Dataset>  (731) 
ChEMBL_Kinases

>  <Ligand_Instance>  (731) 
nan

>  <PDB_ID>  (731) 
nan

>  <Standardized_SMILES>  (731) 
COC(=O)c1c(CNC(=O)c2cnn(C)c2)c(=O)c2ccc(Cl)cc2n1-c1ccccc1

>  <Name>  (731) 
nan

>  <Pocket>  (731) 
nan

>  <ATP_Site>  (731) 
nan

>  <Peripheral>  (731) 
nan

>  <Num_H_Atoms_ProtBoundConf>  (731) 
nan

>  <Num_Resolved_Atoms>  (731) 
nan

>  <Num_Not_Resolved_Atoms>  (731) 
nan

$$$$
CHEMBL3679539
     RDKit          3D

  0  0  0  0  0  0  0  0  0  0999 V3000
M  V30 BEGIN CTAB
M  V30 COUNTS 55 59 0 0 0
M  V30 BEGIN ATOM
M  V30 1 C 2.922012 0.299558 -0.803817 0
M  V30 2 O 2.044497 -0.428072 0.015286 0
M  V30 3 C 1.232951 -1.449120 -0.457525 0
M  V30 4 O 1.752735 -1.193991 -1.565481 0
M  V30 5 C 0.274657 -2.305580 0.218688 0
M  V30 6 C 0.056163 -2.163992 1.570618 0
M  V30 7 C 0.764113 -1.159820 2.406593 0
M  V30 8 N 0.140096 0.136617 2.105139 0
M  V30 9 C 0.798587 1.122422 2.889985 0
M  V30 10 O 1.717164 0.677231 3.623477 0
M  V30 11 C 0.497399 2.556614 2.905243 0
M  V30 12 C 1.273461 3.315452 3.746060 0
M  V30 13 C 1.072767 4.693265 3.840990 0
M  V30 14 C 0.080773 5.253736 3.069964 0
M  V30 15 C -0.317066 6.568665 2.977344 0
M  V30 16 C -1.346563 6.561874 2.060655 0
M  V30 17 N -1.535044 5.306606 1.643843 0
M  V30 18 C -0.662133 4.457578 2.251249 0
M  V30 19 C -0.503429 3.076842 2.118330 0
M  V30 20 C -0.880359 -3.047899 2.056764 0
M  V30 21 O -1.146478 -2.991027 3.291341 0
M  V30 22 C -1.549311 -3.986029 1.311809 0
M  V30 23 C -2.463031 -4.820774 1.884154 0
M  V30 24 C -3.136039 -5.764080 1.136196 0
M  V30 25 C -2.820636 -5.801643 -0.221148 0
M  V30 26 Cl -3.649739 -6.985868 -1.221576 0
M  V30 27 C -1.903298 -4.970095 -0.818720 0
M  V30 28 C -1.241181 -4.031058 -0.043847 0
M  V30 29 N -0.332821 -3.193826 -0.586771 0
M  V30 30 C -0.067634 -3.295370 -1.977241 0
M  V30 31 C -0.491143 -2.354811 -2.892748 0
M  V30 32 C -0.175806 -2.558146 -4.209689 0
M  V30 33 C 0.545315 -3.656315 -4.673888 0
M  V30 34 C 0.941219 -4.561809 -3.712151 0
M  V30 35 C 0.649092 -4.408560 -2.351595 0
M  V30 36 H 3.486786 0.990370 -0.130855 0
M  V30 37 H 3.730923 -0.354312 -1.244203 0
M  V30 38 H 2.417438 0.857008 -1.626818 0
M  V30 39 H 1.838021 -1.115989 2.232845 0
M  V30 40 H 0.501561 -1.346988 3.470064 0
M  V30 41 H -0.636765 0.485552 1.479001 0
M  V30 42 H 2.063126 2.918583 4.369719 0
M  V30 43 H 1.678074 5.283840 4.496476 0
M  V30 44 H 0.113174 7.390537 3.523190 0
M  V30 45 H -1.872401 7.463903 1.772314 0
M  V30 46 H -2.270596 5.074559 0.943770 0
M  V30 47 H -1.097499 2.475270 1.470657 0
M  V30 48 H -2.695117 -4.772820 2.955543 0
M  V30 49 H -3.866764 -6.447546 1.536635 0
M  V30 50 H -1.697373 -5.044316 -1.881290 0
M  V30 51 H -1.054913 -1.491529 -2.549004 0
M  V30 52 H -0.510197 -1.815710 -4.931307 0
M  V30 53 H 0.785527 -3.799963 -5.722098 0
M  V30 54 H 1.503009 -5.433922 -4.006011 0
M  V30 55 H 0.987778 -5.156039 -1.638910 0
M  V30 END ATOM
M  V30 BEGIN BOND
M  V30 1 1 1 2
M  V30 2 1 2 3
M  V30 3 2 3 4
M  V30 4 1 3 5
M  V30 5 2 5 6
M  V30 6 1 6 7
M  V30 7 1 7 8
M  V30 8 1 8 9
M  V30 9 2 9 10
M  V30 10 1 9 11
M  V30 11 2 11 12
M  V30 12 1 12 13
M  V30 13 2 13 14
M  V30 14 1 14 15
M  V30 15 2 15 16
M  V30 16 1 16 17
M  V30 17 1 17 18
M  V30 18 2 18 19
M  V30 19 1 6 20
M  V30 20 2 20 21
M  V30 21 1 20 22
M  V30 22 2 22 23
M  V30 23 1 23 24
M  V30 24 2 24 25
M  V30 25 1 25 26
M  V30 26 1 25 27
M  V30 27 2 27 28
M  V30 28 1 28 29
M  V30 29 1 29 30
M  V30 30 2 30 31
M  V30 31 1 31 32
M  V30 32 2 32 33
M  V30 33 1 33 34
M  V30 34 2 34 35
M  V30 35 1 29 5
M  V30 36 1 35 30
M  V30 37 1 19 11
M  V30 38 1 28 22
M  V30 39 1 18 14
M  V30 40 1 1 36
M  V30 41 1 1 37
M  V30 42 1 1 38
M  V30 43 1 7 39
M  V30 44 1 7 40
M  V30 45 1 8 41
M  V30 46 1 12 42
M  V30 47 1 13 43
M  V30 48 1 15 44
M  V30 49 1 16 45
M  V30 50 1 17 46
M  V30 51 1 19 47
M  V30 52 1 23 48
M  V30 53 1 24 49
M  V30 54 1 27 50
M  V30 55 1 31 51
M  V30 56 1 32 52
M  V30 57 1 33 53
M  V30 58 1 34 54
M  V30 59 1 35 55
M  V30 END BOND
M  V30 END CTAB
M  END
>  <Dataset>  (732) 
ChEMBL_Kinases

>  <Ligand_Instance>  (732) 
nan

>  <PDB_ID>  (732) 
nan

>  <Standardized_SMILES>  (732) 
COC(=O)c1c(CNC(=O)c2ccc3cc[nH]c3c2)c(=O)c2ccc(Cl)cc2n1-c1ccccc1

>  <Name>  (732) 
nan

>  <Pocket>  (732) 
nan

>  <ATP_Site>  (732) 
nan

>  <Peripheral>  (732) 
nan

>  <Num_H_Atoms_ProtBoundConf>  (732) 
nan

>  <Num_Resolved_Atoms>  (732) 
nan

>  <Num_Not_Resolved_Atoms>  (732) 
nan

$$$$
CHEMBL3679538
     RDKit          3D

  0  0  0  0  0  0  0  0  0  0999 V3000
M  V30 BEGIN CTAB
M  V30 COUNTS 61 65 0 0 0
M  V30 BEGIN ATOM
M  V30 1 C 2.538942 -0.050023 4.135175 0
M  V30 2 O 2.179865 -1.105945 3.259782 0
M  V30 3 C 2.291282 -1.046261 1.879573 0
M  V30 4 O 2.755368 0.106372 1.700803 0
M  V30 5 C 1.923482 -2.128457 0.982761 0
M  V30 6 C 2.068812 -1.980647 -0.376722 0
M  V30 7 C 2.597905 -0.739792 -1.001955 0
M  V30 8 N 1.508279 0.232934 -0.940722 0
M  V30 9 C 1.686604 1.549577 -1.465089 0
M  V30 10 O 2.794918 1.820370 -1.966374 0
M  V30 11 C 0.607484 2.515053 -1.405370 0
M  V30 12 C 0.656295 3.805419 -1.871713 0
M  V30 13 N -0.546227 4.354567 -1.622103 0
M  V30 14 N -1.343839 3.482295 -1.026835 0
M  V30 15 C -2.704833 3.565708 -0.557494 0
M  V30 16 C -3.701690 3.183498 -1.562389 0
M  V30 17 C -4.014464 1.822102 -1.541448 0
M  V30 18 C -4.933462 1.274133 -2.414466 0
M  V30 19 C -5.531203 2.152900 -3.316673 0
M  V30 20 C -5.244353 3.512325 -3.365905 0
M  V30 21 C -4.310380 4.028154 -2.467575 0
M  V30 22 C -0.641776 2.329165 -0.883214 0
M  V30 23 C 1.703899 -3.040782 -1.191931 0
M  V30 24 O 1.820985 -2.948499 -2.450847 0
M  V30 25 C 1.210208 -4.200244 -0.608164 0
M  V30 26 C 0.857124 -5.234419 -1.448810 0
M  V30 27 C 0.361144 -6.404464 -0.895272 0
M  V30 28 C 0.238018 -6.495585 0.464995 0
M  V30 29 Cl -0.390468 -7.984481 1.124334 0
M  V30 30 C 0.605309 -5.428709 1.284975 0
M  V30 31 C 1.099903 -4.256845 0.764885 0
M  V30 32 N 1.449311 -3.237435 1.571926 0
M  V30 33 C 1.294951 -3.399839 2.976797 0
M  V30 34 C 0.011498 -2.999113 3.354111 0
M  V30 35 C -0.400862 -3.058806 4.687644 0
M  V30 36 C 0.504458 -3.527168 5.616318 0
M  V30 37 C 1.790993 -3.929531 5.242762 0
M  V30 38 C 2.162272 -3.856221 3.916216 0
M  V30 39 H 1.895233 -0.187684 5.052372 0
M  V30 40 H 3.603335 -0.081361 4.418333 0
M  V30 41 H 2.235482 0.943635 3.723877 0
M  V30 42 H 2.818314 -0.917466 -2.074811 0
M  V30 43 H 3.493184 -0.405853 -0.451055 0
M  V30 44 H 0.562279 0.030610 -0.522807 0
M  V30 45 H 1.521148 4.262962 -2.347437 0
M  V30 46 H -2.864188 4.636016 -0.269052 0
M  V30 47 H -2.828799 3.009118 0.407606 0
M  V30 48 H -3.567175 1.101969 -0.849492 0
M  V30 49 H -5.183361 0.220338 -2.406880 0
M  V30 50 H -6.248919 1.721276 -3.997231 0
M  V30 51 H -5.714276 4.171043 -4.066392 0
M  V30 52 H -4.023217 5.075837 -2.432191 0
M  V30 53 H -0.953104 1.394597 -0.444380 0
M  V30 54 H 0.968360 -5.128028 -2.530450 0
M  V30 55 H 0.094838 -7.194537 -1.592982 0
M  V30 56 H 0.477147 -5.579743 2.358753 0
M  V30 57 H -0.788088 -2.613079 2.710729 0
M  V30 58 H -1.377293 -2.762988 5.032782 0
M  V30 59 H 0.250085 -3.601694 6.681705 0
M  V30 60 H 2.530210 -4.303445 5.946702 0
M  V30 61 H 3.115237 -4.133447 3.505748 0
M  V30 END ATOM
M  V30 BEGIN BOND
M  V30 1 1 1 2
M  V30 2 1 2 3
M  V30 3 2 3 4
M  V30 4 1 3 5
M  V30 5 2 5 6
M  V30 6 1 6 7
M  V30 7 1 7 8
M  V30 8 1 8 9
M  V30 9 2 9 10
M  V30 10 1 9 11
M  V30 11 1 11 12
M  V30 12 2 12 13
M  V30 13 1 13 14
M  V30 14 1 14 15
M  V30 15 1 15 16
M  V30 16 2 16 17
M  V30 17 1 17 18
M  V30 18 2 18 19
M  V30 19 1 19 20
M  V30 20 2 20 21
M  V30 21 1 14 22
M  V30 22 1 6 23
M  V30 23 2 23 24
M  V30 24 1 23 25
M  V30 25 2 25 26
M  V30 26 1 26 27
M  V30 27 2 27 28
M  V30 28 1 28 29
M  V30 29 1 28 30
M  V30 30 2 30 31
M  V30 31 1 31 32
M  V30 32 1 32 33
M  V30 33 2 33 34
M  V30 34 1 34 35
M  V30 35 2 35 36
M  V30 36 1 36 37
M  V30 37 2 37 38
M  V30 38 1 32 5
M  V30 39 1 38 33
M  V30 40 2 22 11
M  V30 41 1 31 25
M  V30 42 1 21 16
M  V30 43 1 1 39
M  V30 44 1 1 40
M  V30 45 1 1 41
M  V30 46 1 7 42
M  V30 47 1 7 43
M  V30 48 1 8 44
M  V30 49 1 12 45
M  V30 50 1 15 46
M  V30 51 1 15 47
M  V30 52 1 17 48
M  V30 53 1 18 49
M  V30 54 1 19 50
M  V30 55 1 20 51
M  V30 56 1 21 52
M  V30 57 1 22 53
M  V30 58 1 26 54
M  V30 59 1 27 55
M  V30 60 1 30 56
M  V30 61 1 34 57
M  V30 62 1 35 58
M  V30 63 1 36 59
M  V30 64 1 37 60
M  V30 65 1 38 61
M  V30 END BOND
M  V30 END CTAB
M  END
>  <Dataset>  (733) 
ChEMBL_Kinases

>  <Ligand_Instance>  (733) 
nan

>  <PDB_ID>  (733) 
nan

>  <Standardized_SMILES>  (733) 
COC(=O)c1c(CNC(=O)c2cnn(Cc3ccccc3)c2)c(=O)c2ccc(Cl)cc2n1-c1ccccc1

>  <Name>  (733) 
nan

>  <Pocket>  (733) 
nan

>  <ATP_Site>  (733) 
nan

>  <Peripheral>  (733) 
nan

>  <Num_H_Atoms_ProtBoundConf>  (733) 
nan

>  <Num_Resolved_Atoms>  (733) 
nan

>  <Num_Not_Resolved_Atoms>  (733) 
nan

$$$$
CHEMBL3679537
     RDKit          3D

  0  0  0  0  0  0  0  0  0  0999 V3000
M  V30 BEGIN CTAB
M  V30 COUNTS 58 61 0 0 0
M  V30 BEGIN ATOM
M  V30 1 C 6.498514 -1.636989 6.660184 0
M  V30 2 N 5.776912 -1.331332 5.471733 0
M  V30 3 C 4.758081 -0.365379 5.270005 0
M  V30 4 O 4.470713 0.305103 6.312361 0
M  V30 5 C 4.104159 -0.165181 3.981017 0
M  V30 6 C 4.398778 -0.876160 2.835512 0
M  V30 7 C 3.719847 -0.618723 1.637549 0
M  V30 8 C 2.737847 0.346842 1.553469 0
M  V30 9 C 2.082980 0.549332 0.269619 0
M  V30 10 O 2.470879 -0.175245 -0.666778 0
M  V30 11 N 1.055375 1.496568 0.021559 0
M  V30 12 C 0.361965 1.756940 -1.209105 0
M  V30 13 C -0.367663 0.614942 -1.767849 0
M  V30 14 C -1.559420 0.131481 -1.285073 0
M  V30 15 C -2.164996 0.782354 -0.131620 0
M  V30 16 O -1.890536 1.741198 0.615187 0
M  V30 17 O -3.356740 0.413392 0.467802 0
M  V30 18 C -3.915195 1.057371 1.575748 0
M  V30 19 N -2.262218 -0.907763 -1.767825 0
M  V30 20 C -3.480112 -1.368994 -1.240314 0
M  V30 21 C -3.285819 -2.267268 -0.190730 0
M  V30 22 C -4.349719 -2.850198 0.479794 0
M  V30 23 C -5.658236 -2.540995 0.107434 0
M  V30 24 C -5.843433 -1.643723 -0.940940 0
M  V30 25 C -4.779632 -1.072925 -1.597295 0
M  V30 26 C -1.741643 -1.543098 -2.840287 0
M  V30 27 C -2.418938 -2.624809 -3.387086 0
M  V30 28 C -1.924340 -3.307928 -4.487010 0
M  V30 29 Cl -2.819534 -4.666194 -5.136680 0
M  V30 30 C -0.726480 -2.914824 -5.067075 0
M  V30 31 C -0.060512 -1.829415 -4.507255 0
M  V30 32 C -0.552547 -1.156650 -3.419913 0
M  V30 33 C 0.132525 -0.065928 -2.870353 0
M  V30 34 O 1.200012 0.231665 -3.442118 0
M  V30 35 C 2.476362 1.032112 2.720831 0
M  V30 36 C 3.123083 0.807741 3.919823 0
M  V30 37 H 7.590265 -1.509480 6.544268 0
M  V30 38 H 6.332142 -2.725095 6.884632 0
M  V30 39 H 6.074334 -1.088696 7.520298 0
M  V30 40 H 6.091084 -1.938990 4.678798 0
M  V30 41 H 5.159049 -1.628233 2.887579 0
M  V30 42 H 4.034888 -1.239091 0.801693 0
M  V30 43 H 0.819472 2.048932 0.900995 0
M  V30 44 H -0.328735 2.590693 -1.049293 0
M  V30 45 H 1.162896 2.079676 -1.938303 0
M  V30 46 H -4.960664 0.670711 1.692009 0
M  V30 47 H -3.413847 0.815604 2.540368 0
M  V30 48 H -4.013556 2.152347 1.447276 0
M  V30 49 H -2.318283 -2.591456 0.196165 0
M  V30 50 H -4.223222 -3.550846 1.298422 0
M  V30 51 H -6.524822 -2.959210 0.587929 0
M  V30 52 H -6.832968 -1.376641 -1.261317 0
M  V30 53 H -4.835709 -0.370447 -2.417408 0
M  V30 54 H -3.372133 -2.966144 -2.954685 0
M  V30 55 H -0.339575 -3.437885 -5.916039 0
M  V30 56 H 0.871183 -1.543615 -4.978722 0
M  V30 57 H 1.713467 1.795637 2.693356 0
M  V30 58 H 2.849022 1.397059 4.784924 0
M  V30 END ATOM
M  V30 BEGIN BOND
M  V30 1 1 1 2
M  V30 2 1 2 3
M  V30 3 2 3 4
M  V30 4 1 3 5
M  V30 5 2 5 6
M  V30 6 1 6 7
M  V30 7 2 7 8
M  V30 8 1 8 9
M  V30 9 2 9 10
M  V30 10 1 9 11
M  V30 11 1 11 12
M  V30 12 1 12 13
M  V30 13 2 13 14
M  V30 14 1 14 15
M  V30 15 2 15 16
M  V30 16 1 15 17
M  V30 17 1 17 18
M  V30 18 1 14 19
M  V30 19 1 19 20
M  V30 20 2 20 21
M  V30 21 1 21 22
M  V30 22 2 22 23
M  V30 23 1 23 24
M  V30 24 2 24 25
M  V30 25 1 19 26
M  V30 26 2 26 27
M  V30 27 1 27 28
M  V30 28 1 28 29
M  V30 29 2 28 30
M  V30 30 1 30 31
M  V30 31 2 31 32
M  V30 32 1 32 33
M  V30 33 2 33 34
M  V30 34 1 8 35
M  V30 35 2 35 36
M  V30 36 1 36 5
M  V30 37 1 33 13
M  V30 38 1 25 20
M  V30 39 1 32 26
M  V30 40 1 1 37
M  V30 41 1 1 38
M  V30 42 1 1 39
M  V30 43 1 2 40
M  V30 44 1 6 41
M  V30 45 1 7 42
M  V30 46 1 11 43
M  V30 47 1 12 44
M  V30 48 1 12 45
M  V30 49 1 18 46
M  V30 50 1 18 47
M  V30 51 1 18 48
M  V30 52 1 21 49
M  V30 53 1 22 50
M  V30 54 1 23 51
M  V30 55 1 24 52
M  V30 56 1 25 53
M  V30 57 1 27 54
M  V30 58 1 30 55
M  V30 59 1 31 56
M  V30 60 1 35 57
M  V30 61 1 36 58
M  V30 END BOND
M  V30 END CTAB
M  END
>  <Dataset>  (734) 
ChEMBL_Kinases

>  <Ligand_Instance>  (734) 
nan

>  <PDB_ID>  (734) 
nan

>  <Standardized_SMILES>  (734) 
CNC(=O)c1ccc(C(=O)NCc2c(C(=O)OC)n(-c3ccccc3)c3cc(Cl)ccc3c2=O)cc1

>  <Name>  (734) 
nan

>  <Pocket>  (734) 
nan

>  <ATP_Site>  (734) 
nan

>  <Peripheral>  (734) 
nan

>  <Num_H_Atoms_ProtBoundConf>  (734) 
nan

>  <Num_Resolved_Atoms>  (734) 
nan

>  <Num_Not_Resolved_Atoms>  (734) 
nan

$$$$
CHEMBL3679519
     RDKit          3D

  0  0  0  0  0  0  0  0  0  0999 V3000
M  V30 BEGIN CTAB
M  V30 COUNTS 58 62 0 0 0
M  V30 BEGIN ATOM
M  V30 1 O -0.861418 -2.669336 2.233548 0
M  V30 2 C 0.071012 -2.619494 1.398561 0
M  V30 3 N 1.207350 -1.906857 1.827891 0
M  V30 4 C 1.703297 -1.168526 2.954031 0
M  V30 5 C 0.930059 0.052869 3.279128 0
M  V30 6 C 1.464218 1.231308 2.740580 0
M  V30 7 N 0.938870 2.458485 2.870123 0
M  V30 8 C 1.530761 3.619373 2.301404 0
M  V30 9 C 1.449965 4.133747 1.023209 0
M  V30 10 C 2.117324 5.283737 0.701827 0
M  V30 11 C 2.876861 5.943783 1.643519 0
M  V30 12 C 2.979101 5.456163 2.932440 0
M  V30 13 C 2.292130 4.278806 3.250283 0
M  V30 14 Cl 2.523070 3.792765 4.923061 0
M  V30 15 C -0.196576 2.646519 3.563005 0
M  V30 16 C -0.793815 3.875087 3.736850 0
M  V30 17 C -1.965618 3.990560 4.464554 0
M  V30 18 Cl -2.677499 5.580494 4.650970 0
M  V30 19 C -2.522122 2.839503 5.013484 0
M  V30 20 C -1.945398 1.589293 4.856380 0
M  V30 21 C -0.776633 1.528035 4.121541 0
M  V30 22 C -0.227199 0.274844 3.981688 0
M  V30 23 O -0.745848 -0.733908 4.486794 0
M  V30 24 C -0.105157 -3.277027 0.118186 0
M  V30 25 C -1.305588 -3.924182 -0.062390 0
M  V30 26 C -1.591037 -4.590135 -1.245506 0
M  V30 27 C -0.690510 -4.633607 -2.288309 0
M  V30 28 N -0.951340 -5.310112 -3.530735 0
M  V30 29 C -0.015578 -5.459690 -4.627792 0
M  V30 30 C -0.670580 -4.710184 -5.798916 0
M  V30 31 O -1.705214 -5.517269 -6.206021 0
M  V30 32 C -2.656533 -5.771195 -5.274045 0
M  V30 33 C -2.197082 -5.933139 -3.853165 0
M  V30 34 C 0.494228 -3.979538 -2.076079 0
M  V30 35 C 0.808432 -3.308761 -0.912199 0
M  V30 36 H 1.912731 -1.949618 1.021768 0
M  V30 37 H 1.613351 -1.847552 3.855894 0
M  V30 38 H 2.758435 -0.921838 2.782563 0
M  V30 39 H 2.377483 1.227416 2.157910 0
M  V30 40 H 0.818316 3.515571 0.378151 0
M  V30 41 H 2.012069 5.628377 -0.308950 0
M  V30 42 H 3.385993 6.844761 1.351010 0
M  V30 43 H 3.592771 6.025167 3.618225 0
M  V30 44 H -0.326194 4.765069 3.290407 0
M  V30 45 H -3.432067 2.933413 5.577701 0
M  V30 46 H -2.431770 0.719782 5.312541 0
M  V30 47 H -2.101310 -3.960282 0.693794 0
M  V30 48 H -2.544881 -5.086874 -1.345609 0
M  V30 49 H 0.989286 -5.079589 -4.430356 0
M  V30 50 H 0.004256 -6.531955 -4.913310 0
M  V30 51 H 0.043107 -4.610097 -6.640738 0
M  V30 52 H -0.980987 -3.729991 -5.380061 0
M  V30 53 H -3.183224 -6.703467 -5.564306 0
M  V30 54 H -3.452270 -4.974552 -5.355278 0
M  V30 55 H -2.065467 -7.027286 -3.604072 0
M  V30 56 H -3.041610 -5.588553 -3.225754 0
M  V30 57 H 1.275515 -3.938940 -2.808789 0
M  V30 58 H 1.735141 -2.809223 -0.773377 0
M  V30 END ATOM
M  V30 BEGIN BOND
M  V30 1 2 1 2
M  V30 2 1 2 3
M  V30 3 1 3 4
M  V30 4 1 4 5
M  V30 5 2 5 6
M  V30 6 1 6 7
M  V30 7 1 7 8
M  V30 8 2 8 9
M  V30 9 1 9 10
M  V30 10 2 10 11
M  V30 11 1 11 12
M  V30 12 2 12 13
M  V30 13 1 13 14
M  V30 14 1 7 15
M  V30 15 2 15 16
M  V30 16 1 16 17
M  V30 17 1 17 18
M  V30 18 2 17 19
M  V30 19 1 19 20
M  V30 20 2 20 21
M  V30 21 1 21 22
M  V30 22 2 22 23
M  V30 23 1 2 24
M  V30 24 2 24 25
M  V30 25 1 25 26
M  V30 26 2 26 27
M  V30 27 1 27 28
M  V30 28 1 28 29
M  V30 29 1 29 30
M  V30 30 1 30 31
M  V30 31 1 31 32
M  V30 32 1 32 33
M  V30 33 1 27 34
M  V30 34 2 34 35
M  V30 35 1 22 5
M  V30 36 1 35 24
M  V30 37 1 13 8
M  V30 38 1 21 15
M  V30 39 1 33 28
M  V30 40 1 3 36
M  V30 41 1 4 37
M  V30 42 1 4 38
M  V30 43 1 6 39
M  V30 44 1 9 40
M  V30 45 1 10 41
M  V30 46 1 11 42
M  V30 47 1 12 43
M  V30 48 1 16 44
M  V30 49 1 19 45
M  V30 50 1 20 46
M  V30 51 1 25 47
M  V30 52 1 26 48
M  V30 53 1 29 49
M  V30 54 1 29 50
M  V30 55 1 30 51
M  V30 56 1 30 52
M  V30 57 1 32 53
M  V30 58 1 32 54
M  V30 59 1 33 55
M  V30 60 1 33 56
M  V30 61 1 34 57
M  V30 62 1 35 58
M  V30 END BOND
M  V30 END CTAB
M  END
>  <Dataset>  (735) 
ChEMBL_Kinases

>  <Ligand_Instance>  (735) 
nan

>  <PDB_ID>  (735) 
nan

>  <Standardized_SMILES>  (735) 
O=C(NCc1cn(-c2ccccc2Cl)c2cc(Cl)ccc2c1=O)c1ccc(N2CCOCC2)cc1

>  <Name>  (735) 
nan

>  <Pocket>  (735) 
nan

>  <ATP_Site>  (735) 
nan

>  <Peripheral>  (735) 
nan

>  <Num_H_Atoms_ProtBoundConf>  (735) 
nan

>  <Num_Resolved_Atoms>  (735) 
nan

>  <Num_Not_Resolved_Atoms>  (735) 
nan

$$$$
CHEMBL3679520
     RDKit          3D

  0  0  0  0  0  0  0  0  0  0999 V3000
M  V30 BEGIN CTAB
M  V30 COUNTS 44 47 0 0 0
M  V30 BEGIN ATOM
M  V30 1 O -2.097533 -3.025385 1.166266 0
M  V30 2 C -2.012006 -2.753127 -0.055541 0
M  V30 3 N -2.109143 -1.388565 -0.347611 0
M  V30 4 C -2.275999 -0.081704 0.226716 0
M  V30 5 C -1.147446 0.231647 1.134386 0
M  V30 6 C -0.071775 0.958157 0.595753 0
M  V30 7 N 1.062042 1.324165 1.220360 0
M  V30 8 C 2.070198 2.063919 0.540256 0
M  V30 9 C 2.923112 1.485868 -0.378799 0
M  V30 10 C 3.876367 2.271191 -0.997980 0
M  V30 11 C 3.992689 3.633645 -0.712632 0
M  V30 12 C 3.117464 4.198070 0.222266 0
M  V30 13 C 2.167294 3.418964 0.840551 0
M  V30 14 Cl 1.092903 4.194163 2.011479 0
M  V30 15 C 1.198366 0.961989 2.506337 0
M  V30 16 C 2.343068 1.299594 3.230345 0
M  V30 17 C 2.472662 0.923793 4.547587 0
M  V30 18 Cl 3.948498 1.390308 5.388924 0
M  V30 19 C 1.465623 0.207264 5.162253 0
M  V30 20 C 0.306237 -0.145791 4.462324 0
M  V30 21 C 0.210802 0.246378 3.147930 0
M  V30 22 C -0.926028 -0.096755 2.452854 0
M  V30 23 O -1.819978 -0.736705 3.026817 0
M  V30 24 C -1.828967 -3.848960 -0.983519 0
M  V30 25 C -1.768197 -5.093200 -0.440245 0
M  V30 26 C -1.590598 -6.170007 -1.316075 0
M  V30 27 C -1.473598 -6.053635 -2.688020 0
M  V30 28 Br -1.234250 -7.638177 -3.720206 0
M  V30 29 N -1.541520 -4.797548 -3.165599 0
M  V30 30 C -1.712168 -3.751161 -2.334625 0
M  V30 31 H -2.023196 -1.329850 -1.409167 0
M  V30 32 H -3.251923 -0.079031 0.799467 0
M  V30 33 H -2.275938 0.675561 -0.551802 0
M  V30 34 H -0.138149 1.273562 -0.445916 0
M  V30 35 H 2.835272 0.430298 -0.602715 0
M  V30 36 H 4.547579 1.804571 -1.723520 0
M  V30 37 H 4.756271 4.247223 -1.213174 0
M  V30 38 H 3.229491 5.270399 0.428241 0
M  V30 39 H 3.105902 1.859091 2.714058 0
M  V30 40 H 1.587563 -0.080914 6.205586 0
M  V30 41 H -0.466617 -0.711615 4.982605 0
M  V30 42 H -1.846698 -5.318845 0.623468 0
M  V30 43 H -1.542749 -7.162222 -0.878883 0
M  V30 44 H -1.757042 -2.777443 -2.793213 0
M  V30 END ATOM
M  V30 BEGIN BOND
M  V30 1 2 1 2
M  V30 2 1 2 3
M  V30 3 1 3 4
M  V30 4 1 4 5
M  V30 5 2 5 6
M  V30 6 1 6 7
M  V30 7 1 7 8
M  V30 8 2 8 9
M  V30 9 1 9 10
M  V30 10 2 10 11
M  V30 11 1 11 12
M  V30 12 2 12 13
M  V30 13 1 13 14
M  V30 14 1 7 15
M  V30 15 2 15 16
M  V30 16 1 16 17
M  V30 17 1 17 18
M  V30 18 2 17 19
M  V30 19 1 19 20
M  V30 20 2 20 21
M  V30 21 1 21 22
M  V30 22 2 22 23
M  V30 23 1 2 24
M  V30 24 2 24 25
M  V30 25 1 25 26
M  V30 26 2 26 27
M  V30 27 1 27 28
M  V30 28 1 27 29
M  V30 29 2 29 30
M  V30 30 1 22 5
M  V30 31 1 30 24
M  V30 32 1 13 8
M  V30 33 1 21 15
M  V30 34 1 3 31
M  V30 35 1 4 32
M  V30 36 1 4 33
M  V30 37 1 6 34
M  V30 38 1 9 35
M  V30 39 1 10 36
M  V30 40 1 11 37
M  V30 41 1 12 38
M  V30 42 1 16 39
M  V30 43 1 19 40
M  V30 44 1 20 41
M  V30 45 1 25 42
M  V30 46 1 26 43
M  V30 47 1 30 44
M  V30 END BOND
M  V30 END CTAB
M  END
>  <Dataset>  (736) 
ChEMBL_Kinases

>  <Ligand_Instance>  (736) 
nan

>  <PDB_ID>  (736) 
nan

>  <Standardized_SMILES>  (736) 
O=C(NCc1cn(-c2ccccc2Cl)c2cc(Cl)ccc2c1=O)c1ccc(Br)nc1

>  <Name>  (736) 
nan

>  <Pocket>  (736) 
nan

>  <ATP_Site>  (736) 
nan

>  <Peripheral>  (736) 
nan

>  <Num_H_Atoms_ProtBoundConf>  (736) 
nan

>  <Num_Resolved_Atoms>  (736) 
nan

>  <Num_Not_Resolved_Atoms>  (736) 
nan

$$$$
CHEMBL3679521
     RDKit          3D

  0  0  0  0  0  0  0  0  0  0999 V3000
M  V30 BEGIN CTAB
M  V30 COUNTS 51 55 0 0 0
M  V30 BEGIN ATOM
M  V30 1 O 0.667603 -1.714539 1.578541 0
M  V30 2 C -0.495248 -2.247574 1.611279 0
M  V30 3 N -1.292534 -1.601642 2.562647 0
M  V30 4 C -0.892904 -0.486791 3.410802 0
M  V30 5 C -0.487326 0.688141 2.599925 0
M  V30 6 C 0.848257 1.060891 2.428724 0
M  V30 7 N 1.167950 2.154242 1.675769 0
M  V30 8 C 2.555630 2.445609 1.564603 0
M  V30 9 C 3.286983 1.694455 0.669356 0
M  V30 10 C 4.636602 2.040617 0.622232 0
M  V30 11 C 5.249096 3.033143 1.375422 0
M  V30 12 C 4.415859 3.726121 2.244358 0
M  V30 13 C 3.051609 3.437963 2.348456 0
M  V30 14 Cl 2.114423 4.386558 3.478952 0
M  V30 15 C 0.169593 2.855524 1.109151 0
M  V30 16 C 0.529516 3.969135 0.346219 0
M  V30 17 C -0.482030 4.704565 -0.244252 0
M  V30 18 Cl 0.043252 6.083281 -1.184818 0
M  V30 19 C -1.810702 4.355701 -0.088859 0
M  V30 20 C -2.159035 3.254023 0.666574 0
M  V30 21 C -1.151916 2.509067 1.262847 0
M  V30 22 C -1.522585 1.397006 2.024932 0
M  V30 23 O -2.732772 1.113436 2.140960 0
M  V30 24 C -0.980696 -3.359790 0.809369 0
M  V30 25 C -2.238499 -3.978206 0.799917 0
M  V30 26 C -2.362355 -5.052794 -0.108232 0
M  V30 27 C -1.348472 -5.530622 -0.974014 0
M  V30 28 C -2.130852 -6.605099 -1.579023 0
M  V30 29 C -2.866354 -7.580792 -2.118075 0
M  V30 30 N -2.385346 -8.422933 -3.048844 0
M  V30 31 N -1.108629 -8.081596 -3.285115 0
M  V30 32 C -0.986707 -7.030346 -2.424983 0
M  V30 33 N -0.185450 -4.861446 -0.878860 0
M  V30 34 C -0.015238 -3.841104 -0.039462 0
M  V30 35 H -2.293525 -1.935023 2.702827 0
M  V30 36 H -1.626984 -0.255393 4.177009 0
M  V30 37 H 0.039906 -0.818772 3.950877 0
M  V30 38 H 1.630092 0.482011 2.898330 0
M  V30 39 H 2.887467 0.915398 0.055748 0
M  V30 40 H 5.239563 1.452164 -0.087926 0
M  V30 41 H 6.293945 3.180789 1.226984 0
M  V30 42 H 4.929967 4.498384 2.820195 0
M  V30 43 H 1.576632 4.229709 0.235011 0
M  V30 44 H -2.570907 4.966411 -0.573931 0
M  V30 45 H -3.186605 2.953235 0.808816 0
M  V30 46 H -2.865949 -3.486368 1.512185 0
M  V30 47 H -3.423228 -5.317386 0.114438 0
M  V30 48 H -3.759065 -7.316873 -1.515482 0
M  V30 49 H -0.855169 -8.787837 -4.001875 0
M  V30 50 H 0.109057 -6.864000 -2.738512 0
M  V30 51 H 1.021785 -3.537360 -0.216534 0
M  V30 END ATOM
M  V30 BEGIN BOND
M  V30 1 2 1 2
M  V30 2 1 2 3
M  V30 3 1 3 4
M  V30 4 1 4 5
M  V30 5 2 5 6
M  V30 6 1 6 7
M  V30 7 1 7 8
M  V30 8 2 8 9
M  V30 9 1 9 10
M  V30 10 2 10 11
M  V30 11 1 11 12
M  V30 12 2 12 13
M  V30 13 1 13 14
M  V30 14 1 7 15
M  V30 15 2 15 16
M  V30 16 1 16 17
M  V30 17 1 17 18
M  V30 18 2 17 19
M  V30 19 1 19 20
M  V30 20 2 20 21
M  V30 21 1 21 22
M  V30 22 2 22 23
M  V30 23 1 2 24
M  V30 24 2 24 25
M  V30 25 1 25 26
M  V30 26 2 26 27
M  V30 27 1 27 28
M  V30 28 1 28 29
M  V30 29 2 29 30
M  V30 30 1 30 31
M  V30 31 1 31 32
M  V30 32 1 27 33
M  V30 33 2 33 34
M  V30 34 1 22 5
M  V30 35 1 34 24
M  V30 36 1 13 8
M  V30 37 1 21 15
M  V30 38 2 32 28
M  V30 39 1 3 35
M  V30 40 1 4 36
M  V30 41 1 4 37
M  V30 42 1 6 38
M  V30 43 1 9 39
M  V30 44 1 10 40
M  V30 45 1 11 41
M  V30 46 1 12 42
M  V30 47 1 16 43
M  V30 48 1 19 44
M  V30 49 1 20 45
M  V30 50 1 25 46
M  V30 51 1 26 47
M  V30 52 1 29 48
M  V30 53 1 31 49
M  V30 54 1 32 50
M  V30 55 1 34 51
M  V30 END BOND
M  V30 END CTAB
M  END
>  <Dataset>  (737) 
ChEMBL_Kinases

>  <Ligand_Instance>  (737) 
nan

>  <PDB_ID>  (737) 
nan

>  <Standardized_SMILES>  (737) 
O=C(NCc1cn(-c2ccccc2Cl)c2cc(Cl)ccc2c1=O)c1ccc(-c2cn[nH]c2)nc1

>  <Name>  (737) 
nan

>  <Pocket>  (737) 
nan

>  <ATP_Site>  (737) 
nan

>  <Peripheral>  (737) 
nan

>  <Num_H_Atoms_ProtBoundConf>  (737) 
nan

>  <Num_Resolved_Atoms>  (737) 
nan

>  <Num_Not_Resolved_Atoms>  (737) 
nan

$$$$
CHEMBL3679522
     RDKit          3D

  0  0  0  0  0  0  0  0  0  0999 V3000
M  V30 BEGIN CTAB
M  V30 COUNTS 52 56 0 0 0
M  V30 BEGIN ATOM
M  V30 1 O 0.136523 -3.837755 3.986663 0
M  V30 2 C -0.246567 -3.479683 2.859425 0
M  V30 3 N -0.116641 -2.099379 2.558105 0
M  V30 4 C 0.441002 -1.125850 3.507487 0
M  V30 5 C 0.393445 0.212103 2.815459 0
M  V30 6 C 1.542875 0.749239 2.274987 0
M  V30 7 N 1.392304 1.951965 1.668467 0
M  V30 8 C 2.618746 2.470188 1.112971 0
M  V30 9 C 2.883804 1.758632 -0.063767 0
M  V30 10 C 4.032252 2.080070 -0.795644 0
M  V30 11 C 4.865256 3.069913 -0.356045 0
M  V30 12 C 4.578761 3.754304 0.807027 0
M  V30 13 C 3.452692 3.453812 1.543406 0
M  V30 14 F 3.025767 4.020315 2.694302 0
M  V30 15 C 0.226680 2.616036 1.573828 0
M  V30 16 C 0.189553 3.828770 0.938377 0
M  V30 17 C -0.996241 4.523042 0.833589 0
M  V30 18 F -1.103374 5.734351 0.214872 0
M  V30 19 C -2.171567 4.002095 1.371443 0
M  V30 20 C -2.075766 2.770442 2.003771 0
M  V30 21 C -0.902748 2.051447 2.124543 0
M  V30 22 C -0.845827 0.827480 2.762781 0
M  V30 23 O -1.894893 0.339160 3.254899 0
M  V30 24 C -0.803710 -4.398204 1.874551 0
M  V30 25 C -1.033591 -5.751591 1.999117 0
M  V30 26 N -1.551919 -6.182487 0.831931 0
M  V30 27 N -1.662901 -5.181064 -0.022372 0
M  V30 28 C -2.152010 -5.148298 -1.371086 0
M  V30 29 C -3.479876 -5.249094 -1.759383 0
M  V30 30 C -3.771377 -5.196463 -3.122559 0
M  V30 31 C -2.805285 -5.051144 -4.070559 0
M  V30 32 C -1.467963 -4.948701 -3.695733 0
M  V30 33 C -1.170126 -4.999421 -2.355167 0
M  V30 34 C -1.204896 -4.062815 0.602049 0
M  V30 35 H -0.450710 -1.805817 1.592110 0
M  V30 36 H 1.493846 -1.399968 3.644661 0
M  V30 37 H -0.185552 -1.149423 4.403213 0
M  V30 38 H 2.451680 0.205567 2.362662 0
M  V30 39 H 2.324797 0.960889 -0.529675 0
M  V30 40 H 4.322568 1.579581 -1.726492 0
M  V30 41 H 5.756020 3.330526 -0.909007 0
M  V30 42 H 5.188029 4.552088 1.222521 0
M  V30 43 H 1.088066 4.253548 0.512936 0
M  V30 44 H -3.129638 4.528629 1.305156 0
M  V30 45 H -2.977678 2.345229 2.430108 0
M  V30 46 H -0.821833 -6.325269 2.890822 0
M  V30 47 H -4.168601 -5.361469 -0.936627 0
M  V30 48 H -4.818016 -5.279842 -3.363673 0
M  V30 49 H -3.041823 -5.011752 -5.115681 0
M  V30 50 H -0.704621 -4.832726 -4.462139 0
M  V30 51 H -0.120608 -4.916336 -2.103770 0
M  V30 52 H -1.163965 -3.071410 0.164831 0
M  V30 END ATOM
M  V30 BEGIN BOND
M  V30 1 2 1 2
M  V30 2 1 2 3
M  V30 3 1 3 4
M  V30 4 1 4 5
M  V30 5 2 5 6
M  V30 6 1 6 7
M  V30 7 1 7 8
M  V30 8 2 8 9
M  V30 9 1 9 10
M  V30 10 2 10 11
M  V30 11 1 11 12
M  V30 12 2 12 13
M  V30 13 1 13 14
M  V30 14 1 7 15
M  V30 15 2 15 16
M  V30 16 1 16 17
M  V30 17 1 17 18
M  V30 18 2 17 19
M  V30 19 1 19 20
M  V30 20 2 20 21
M  V30 21 1 21 22
M  V30 22 2 22 23
M  V30 23 1 2 24
M  V30 24 1 24 25
M  V30 25 2 25 26
M  V30 26 1 26 27
M  V30 27 1 27 28
M  V30 28 2 28 29
M  V30 29 1 29 30
M  V30 30 2 30 31
M  V30 31 1 31 32
M  V30 32 2 32 33
M  V30 33 1 27 34
M  V30 34 1 22 5
M  V30 35 2 34 24
M  V30 36 1 13 8
M  V30 37 1 21 15
M  V30 38 1 33 28
M  V30 39 1 3 35
M  V30 40 1 4 36
M  V30 41 1 4 37
M  V30 42 1 6 38
M  V30 43 1 9 39
M  V30 44 1 10 40
M  V30 45 1 11 41
M  V30 46 1 12 42
M  V30 47 1 16 43
M  V30 48 1 19 44
M  V30 49 1 20 45
M  V30 50 1 25 46
M  V30 51 1 29 47
M  V30 52 1 30 48
M  V30 53 1 31 49
M  V30 54 1 32 50
M  V30 55 1 33 51
M  V30 56 1 34 52
M  V30 END BOND
M  V30 END CTAB
M  END
>  <Dataset>  (738) 
ChEMBL_Kinases

>  <Ligand_Instance>  (738) 
nan

>  <PDB_ID>  (738) 
nan

>  <Standardized_SMILES>  (738) 
O=C(NCc1cn(-c2ccccc2F)c2cc(F)ccc2c1=O)c1cnn(-c2ccccc2)c1

>  <Name>  (738) 
nan

>  <Pocket>  (738) 
nan

>  <ATP_Site>  (738) 
nan

>  <Peripheral>  (738) 
nan

>  <Num_H_Atoms_ProtBoundConf>  (738) 
nan

>  <Num_Resolved_Atoms>  (738) 
nan

>  <Num_Not_Resolved_Atoms>  (738) 
nan

$$$$
CHEMBL3679523
     RDKit          3D

  0  0  0  0  0  0  0  0  0  0999 V3000
M  V30 BEGIN CTAB
M  V30 COUNTS 45 48 0 0 0
M  V30 BEGIN ATOM
M  V30 1 C -0.785231 -5.842471 4.788059 0
M  V30 2 N -0.094837 -5.306809 3.655588 0
M  V30 3 C 0.222446 -3.989882 3.493296 0
M  V30 4 C 0.874585 -3.939236 2.270561 0
M  V30 5 C 1.419022 -2.747891 1.633653 0
M  V30 6 O 1.315478 -1.630316 2.210175 0
M  V30 7 N 2.060150 -2.820875 0.382054 0
M  V30 8 C 2.644952 -1.713003 -0.362775 0
M  V30 9 C 1.529033 -0.760853 -0.617223 0
M  V30 10 C 1.404047 0.413886 0.092265 0
M  V30 11 N 0.445876 1.346174 -0.049091 0
M  V30 12 C 0.487042 2.501010 0.779618 0
M  V30 13 C 0.729401 3.660093 0.074414 0
M  V30 14 C 0.801919 4.871039 0.734398 0
M  V30 15 C 0.639059 4.975322 2.097606 0
M  V30 16 C 0.397189 3.806495 2.789135 0
M  V30 17 C 0.318742 2.581888 2.161696 0
M  V30 18 F 0.086550 1.390110 2.757659 0
M  V30 19 C -0.480418 1.085569 -0.988672 0
M  V30 20 C -1.479655 2.020804 -1.159854 0
M  V30 21 C -2.438838 1.758665 -2.126172 0
M  V30 22 F -3.468460 2.629776 -2.367081 0
M  V30 23 C -2.408876 0.614289 -2.892718 0
M  V30 24 C -1.389808 -0.326365 -2.708785 0
M  V30 25 C -0.436269 -0.062532 -1.745810 0
M  V30 26 C 0.569258 -1.003790 -1.572109 0
M  V30 27 O 0.632522 -2.069518 -2.257380 0
M  V30 28 C 0.929720 -5.220638 1.737010 0
M  V30 29 N 0.321796 -6.014537 2.626988 0
M  V30 30 H -1.499062 -5.090406 5.169565 0
M  V30 31 H -1.364112 -6.739768 4.466708 0
M  V30 32 H -0.089287 -6.094222 5.624852 0
M  V30 33 H 0.028551 -3.149338 4.141779 0
M  V30 34 H 2.119878 -3.770462 -0.051144 0
M  V30 35 H 3.368055 -1.241863 0.336810 0
M  V30 36 H 3.177392 -2.039885 -1.251112 0
M  V30 37 H 2.176903 0.588241 0.845073 0
M  V30 38 H 0.881752 3.769793 -0.992964 0
M  V30 39 H 0.990980 5.829851 0.237003 0
M  V30 40 H 0.686451 5.893857 2.654980 0
M  V30 41 H 0.254888 3.796927 3.876519 0
M  V30 42 H -1.529443 2.928536 -0.572449 0
M  V30 43 H -3.181609 0.439403 -3.646561 0
M  V30 44 H -1.420173 -1.208848 -3.342274 0
M  V30 45 H 1.381274 -5.491224 0.786855 0
M  V30 END ATOM
M  V30 BEGIN BOND
M  V30 1 1 1 2
M  V30 2 1 2 3
M  V30 3 2 3 4
M  V30 4 1 4 5
M  V30 5 2 5 6
M  V30 6 1 5 7
M  V30 7 1 7 8
M  V30 8 1 8 9
M  V30 9 2 9 10
M  V30 10 1 10 11
M  V30 11 1 11 12
M  V30 12 2 12 13
M  V30 13 1 13 14
M  V30 14 2 14 15
M  V30 15 1 15 16
M  V30 16 2 16 17
M  V30 17 1 17 18
M  V30 18 1 11 19
M  V30 19 2 19 20
M  V30 20 1 20 21
M  V30 21 1 21 22
M  V30 22 2 21 23
M  V30 23 1 23 24
M  V30 24 2 24 25
M  V30 25 1 25 26
M  V30 26 2 26 27
M  V30 27 1 4 28
M  V30 28 2 28 29
M  V30 29 1 29 2
M  V30 30 1 26 9
M  V30 31 1 17 12
M  V30 32 1 25 19
M  V30 33 1 1 30
M  V30 34 1 1 31
M  V30 35 1 1 32
M  V30 36 1 3 33
M  V30 37 1 7 34
M  V30 38 1 8 35
M  V30 39 1 8 36
M  V30 40 1 10 37
M  V30 41 1 13 38
M  V30 42 1 14 39
M  V30 43 1 15 40
M  V30 44 1 16 41
M  V30 45 1 20 42
M  V30 46 1 23 43
M  V30 47 1 24 44
M  V30 48 1 28 45
M  V30 END BOND
M  V30 END CTAB
M  END
>  <Dataset>  (739) 
ChEMBL_Kinases

>  <Ligand_Instance>  (739) 
nan

>  <PDB_ID>  (739) 
nan

>  <Standardized_SMILES>  (739) 
Cn1cc(C(=O)NCc2cn(-c3ccccc3F)c3cc(F)ccc3c2=O)cn1

>  <Name>  (739) 
nan

>  <Pocket>  (739) 
nan

>  <ATP_Site>  (739) 
nan

>  <Peripheral>  (739) 
nan

>  <Num_H_Atoms_ProtBoundConf>  (739) 
nan

>  <Num_Resolved_Atoms>  (739) 
nan

>  <Num_Not_Resolved_Atoms>  (739) 
nan

$$$$
CHEMBL3679524
     RDKit          3D

  0  0  0  0  0  0  0  0  0  0999 V3000
M  V30 BEGIN CTAB
M  V30 COUNTS 44 47 0 0 0
M  V30 BEGIN ATOM
M  V30 1 O -3.618235 -2.456779 -0.150051 0
M  V30 2 C -2.464129 -2.904168 -0.208431 0
M  V30 3 N -1.464870 -2.029035 0.308623 0
M  V30 4 C -1.902926 -0.728846 0.837137 0
M  V30 5 C -0.675345 -0.011651 1.309186 0
M  V30 6 C -0.092823 1.017864 0.598836 0
M  V30 7 N 1.006695 1.568951 1.141454 0
M  V30 8 C 1.678279 2.633900 0.477287 0
M  V30 9 C 2.522014 2.108690 -0.506103 0
M  V30 10 C 3.309326 2.919593 -1.318059 0
M  V30 11 C 3.223993 4.292974 -1.111264 0
M  V30 12 C 2.392720 4.813817 -0.142366 0
M  V30 13 C 1.618481 3.999708 0.654855 0
M  V30 14 F 0.763241 4.347436 1.636877 0
M  V30 15 C 1.543689 1.171505 2.308883 0
M  V30 16 C 2.673196 1.768294 2.826334 0
M  V30 17 C 3.239411 1.371015 4.028647 0
M  V30 18 F 4.357994 1.959805 4.544262 0
M  V30 19 C 2.637835 0.326191 4.737201 0
M  V30 20 C 1.502257 -0.300192 4.252768 0
M  V30 21 C 0.984689 0.138188 3.052025 0
M  V30 22 C -0.154429 -0.460743 2.527394 0
M  V30 23 O -0.665320 -1.395265 3.192978 0
M  V30 24 C -2.175481 -4.205466 -0.757984 0
M  V30 25 C -3.215536 -4.973193 -1.221738 0
M  V30 26 C -3.003890 -6.226629 -1.761025 0
M  V30 27 C -1.703046 -6.697279 -1.824106 0
M  V30 28 Cl -1.297415 -8.273933 -2.487257 0
M  V30 29 N -0.691242 -5.926727 -1.362279 0
M  V30 30 C -0.885359 -4.696028 -0.831207 0
M  V30 31 H -0.462780 -2.315981 0.304897 0
M  V30 32 H -2.565153 -0.936297 1.680963 0
M  V30 33 H -2.350240 -0.120220 0.042174 0
M  V30 34 H -0.520258 1.338625 -0.336435 0
M  V30 35 H 2.671209 1.048720 -0.758334 0
M  V30 36 H 3.970252 2.562804 -2.084101 0
M  V30 37 H 3.820706 4.969966 -1.721385 0
M  V30 38 H 2.284205 5.869823 0.064338 0
M  V30 39 H 3.158635 2.587428 2.287440 0
M  V30 40 H 3.045759 -0.018472 5.682319 0
M  V30 41 H 1.027263 -1.117190 4.801630 0
M  V30 42 H -4.263917 -4.691046 -1.213925 0
M  V30 43 H -3.820729 -6.858570 -2.139285 0
M  V30 44 H -0.040841 -4.142406 -0.485584 0
M  V30 END ATOM
M  V30 BEGIN BOND
M  V30 1 2 1 2
M  V30 2 1 2 3
M  V30 3 1 3 4
M  V30 4 1 4 5
M  V30 5 2 5 6
M  V30 6 1 6 7
M  V30 7 1 7 8
M  V30 8 2 8 9
M  V30 9 1 9 10
M  V30 10 2 10 11
M  V30 11 1 11 12
M  V30 12 2 12 13
M  V30 13 1 13 14
M  V30 14 1 7 15
M  V30 15 2 15 16
M  V30 16 1 16 17
M  V30 17 1 17 18
M  V30 18 2 17 19
M  V30 19 1 19 20
M  V30 20 2 20 21
M  V30 21 1 21 22
M  V30 22 2 22 23
M  V30 23 1 2 24
M  V30 24 2 24 25
M  V30 25 1 25 26
M  V30 26 2 26 27
M  V30 27 1 27 28
M  V30 28 1 27 29
M  V30 29 2 29 30
M  V30 30 1 22 5
M  V30 31 1 30 24
M  V30 32 1 13 8
M  V30 33 1 21 15
M  V30 34 1 3 31
M  V30 35 1 4 32
M  V30 36 1 4 33
M  V30 37 1 6 34
M  V30 38 1 9 35
M  V30 39 1 10 36
M  V30 40 1 11 37
M  V30 41 1 12 38
M  V30 42 1 16 39
M  V30 43 1 19 40
M  V30 44 1 20 41
M  V30 45 1 25 42
M  V30 46 1 26 43
M  V30 47 1 30 44
M  V30 END BOND
M  V30 END CTAB
M  END
>  <Dataset>  (740) 
ChEMBL_Kinases

>  <Ligand_Instance>  (740) 
nan

>  <PDB_ID>  (740) 
nan

>  <Standardized_SMILES>  (740) 
O=C(NCc1cn(-c2ccccc2F)c2cc(F)ccc2c1=O)c1ccc(Cl)nc1

>  <Name>  (740) 
nan

>  <Pocket>  (740) 
nan

>  <ATP_Site>  (740) 
nan

>  <Peripheral>  (740) 
nan

>  <Num_H_Atoms_ProtBoundConf>  (740) 
nan

>  <Num_Resolved_Atoms>  (740) 
nan

>  <Num_Not_Resolved_Atoms>  (740) 
nan

$$$$
CHEMBL3679525
     RDKit          3D

  0  0  0  0  0  0  0  0  0  0999 V3000
M  V30 BEGIN CTAB
M  V30 COUNTS 63 67 0 0 0
M  V30 BEGIN ATOM
M  V30 1 O 2.309865 -3.055339 1.996929 0
M  V30 2 C 1.285585 -2.368279 1.692880 0
M  V30 3 N 1.268368 -0.966491 1.912056 0
M  V30 4 C 2.419343 -0.269080 2.493299 0
M  V30 5 C 2.082715 1.189418 2.564031 0
M  V30 6 C 2.675178 2.028419 1.612770 0
M  V30 7 N 2.424131 3.349128 1.609237 0
M  V30 8 C 3.073826 4.135681 0.600941 0
M  V30 9 C 2.631576 4.022921 -0.724032 0
M  V30 10 C 3.297575 4.807036 -1.663892 0
M  V30 11 C 4.337230 5.658318 -1.351687 0
M  V30 12 C 4.758248 5.753512 -0.031380 0
M  V30 13 C 4.113539 4.986548 0.916314 0
M  V30 14 F 4.472218 5.031608 2.216789 0
M  V30 15 C 1.596650 3.896775 2.520093 0
M  V30 16 C 1.349368 5.252852 2.501793 0
M  V30 17 C 0.494440 5.762310 3.455137 0
M  V30 18 F 0.259236 7.109491 3.427038 0
M  V30 19 C -0.126576 4.981102 4.428163 0
M  V30 20 C 0.133553 3.616392 4.432586 0
M  V30 21 C 0.993742 3.085609 3.477084 0
M  V30 22 C 1.214864 1.703431 3.534111 0
M  V30 23 O 0.701264 0.940553 4.367855 0
M  V30 24 C 0.178679 -3.115370 1.124250 0
M  V30 25 C 0.346863 -4.478192 0.887206 0
M  V30 26 C -0.712002 -5.209015 0.343322 0
M  V30 27 C -1.924284 -4.634860 0.029271 0
M  V30 28 N -3.026375 -5.331114 -0.533128 0
M  V30 29 C -3.034413 -6.677158 -1.016183 0
M  V30 30 C -3.499490 -6.795925 -2.456861 0
M  V30 31 C -4.543334 -5.757766 -2.792633 0
M  V30 32 C -3.826599 -4.554044 -3.387417 0
M  V30 33 O -3.166967 -5.007168 -4.531597 0
M  V30 34 C -5.272610 -5.408354 -1.516005 0
M  V30 35 C -4.298682 -4.653148 -0.640345 0
M  V30 36 N -2.020227 -3.321726 0.281798 0
M  V30 37 C -1.044337 -2.562444 0.801995 0
M  V30 38 H 0.406370 -0.442104 1.645779 0
M  V30 39 H 3.340822 -0.399550 1.930636 0
M  V30 40 H 2.464109 -0.609032 3.550054 0
M  V30 41 H 3.340317 1.607919 0.876280 0
M  V30 42 H 1.826769 3.354260 -0.927103 0
M  V30 43 H 2.954744 4.716937 -2.674898 0
M  V30 44 H 4.844027 6.258589 -2.090855 0
M  V30 45 H 5.566092 6.394733 0.307564 0
M  V30 46 H 1.816833 5.902353 1.758608 0
M  V30 47 H -0.775675 5.504555 5.120793 0
M  V30 48 H -0.354394 3.023021 5.194551 0
M  V30 49 H 1.253131 -5.008368 1.099529 0
M  V30 50 H -0.573954 -6.274309 0.161419 0
M  V30 51 H -3.744425 -7.300584 -0.399664 0
M  V30 52 H -2.013215 -7.119252 -0.978837 0
M  V30 53 H -3.955513 -7.809804 -2.633759 0
M  V30 54 H -2.657903 -6.679096 -3.164399 0
M  V30 55 H -5.277943 -6.178235 -3.495969 0
M  V30 56 H -3.016831 -4.204914 -2.706086 0
M  V30 57 H -4.523099 -3.740199 -3.647778 0
M  V30 58 H -2.771252 -4.251091 -5.054447 0
M  V30 59 H -5.541298 -6.357397 -1.015879 0
M  V30 60 H -6.176786 -4.790147 -1.696158 0
M  V30 61 H -4.117333 -3.655495 -1.086335 0
M  V30 62 H -4.691996 -4.514594 0.388423 0
M  V30 63 H -1.199221 -1.506393 0.977040 0
M  V30 END ATOM
M  V30 BEGIN BOND
M  V30 1 2 1 2
M  V30 2 1 2 3
M  V30 3 1 3 4
M  V30 4 1 4 5
M  V30 5 2 5 6
M  V30 6 1 6 7
M  V30 7 1 7 8
M  V30 8 2 8 9
M  V30 9 1 9 10
M  V30 10 2 10 11
M  V30 11 1 11 12
M  V30 12 2 12 13
M  V30 13 1 13 14
M  V30 14 1 7 15
M  V30 15 2 15 16
M  V30 16 1 16 17
M  V30 17 1 17 18
M  V30 18 2 17 19
M  V30 19 1 19 20
M  V30 20 2 20 21
M  V30 21 1 21 22
M  V30 22 2 22 23
M  V30 23 1 2 24
M  V30 24 2 24 25
M  V30 25 1 25 26
M  V30 26 2 26 27
M  V30 27 1 27 28
M  V30 28 1 28 29
M  V30 29 1 29 30
M  V30 30 1 30 31
M  V30 31 1 31 32
M  V30 32 1 32 33
M  V30 33 1 31 34
M  V30 34 1 34 35
M  V30 35 1 27 36
M  V30 36 2 36 37
M  V30 37 1 22 5
M  V30 38 1 37 24
M  V30 39 1 13 8
M  V30 40 1 21 15
M  V30 41 1 35 28
M  V30 42 1 3 38
M  V30 43 1 4 39
M  V30 44 1 4 40
M  V30 45 1 6 41
M  V30 46 1 9 42
M  V30 47 1 10 43
M  V30 48 1 11 44
M  V30 49 1 12 45
M  V30 50 1 16 46
M  V30 51 1 19 47
M  V30 52 1 20 48
M  V30 53 1 25 49
M  V30 54 1 26 50
M  V30 55 1 29 51
M  V30 56 1 29 52
M  V30 57 1 30 53
M  V30 58 1 30 54
M  V30 59 1 31 55
M  V30 60 1 32 56
M  V30 61 1 32 57
M  V30 62 1 33 58
M  V30 63 1 34 59
M  V30 64 1 34 60
M  V30 65 1 35 61
M  V30 66 1 35 62
M  V30 67 1 37 63
M  V30 END BOND
M  V30 END CTAB
M  END
>  <Dataset>  (741) 
ChEMBL_Kinases

>  <Ligand_Instance>  (741) 
nan

>  <PDB_ID>  (741) 
nan

>  <Standardized_SMILES>  (741) 
O=C(NCc1cn(-c2ccccc2F)c2cc(F)ccc2c1=O)c1ccc(N2CCC(CO)CC2)nc1

>  <Name>  (741) 
nan

>  <Pocket>  (741) 
nan

>  <ATP_Site>  (741) 
nan

>  <Peripheral>  (741) 
nan

>  <Num_H_Atoms_ProtBoundConf>  (741) 
nan

>  <Num_Resolved_Atoms>  (741) 
nan

>  <Num_Not_Resolved_Atoms>  (741) 
nan

$$$$
CHEMBL3679526
     RDKit          3D

  0  0  0  0  0  0  0  0  0  0999 V3000
M  V30 BEGIN CTAB
M  V30 COUNTS 59 63 0 0 0
M  V30 BEGIN ATOM
M  V30 1 O 1.992175 -3.071654 2.451192 0
M  V30 2 C 1.232295 -2.615495 1.588632 0
M  V30 3 N 0.859654 -1.246569 1.653137 0
M  V30 4 C 1.478153 -0.577128 2.785604 0
M  V30 5 C 1.034543 0.840673 2.779433 0
M  V30 6 C 1.767738 1.938764 2.380924 0
M  V30 7 N 1.219216 3.164378 2.436310 0
M  V30 8 C 1.999715 4.275956 2.018313 0
M  V30 9 C 2.033865 4.717314 0.710515 0
M  V30 10 C 2.825279 5.805804 0.406549 0
M  V30 11 C 3.570636 6.451868 1.366487 0
M  V30 12 C 3.535187 6.009424 2.674936 0
M  V30 13 C 2.740637 4.907387 3.008340 0
M  V30 14 F 2.705707 4.470256 4.294807 0
M  V30 15 C -0.035500 3.396408 2.868274 0
M  V30 16 C -0.517512 4.695924 2.890197 0
M  V30 17 C -1.816026 4.825008 3.349790 0
M  V30 18 F -2.336299 6.073446 3.392498 0
M  V30 19 C -2.605604 3.776370 3.763533 0
M  V30 20 C -2.081706 2.495411 3.724415 0
M  V30 21 C -0.784363 2.306719 3.271803 0
M  V30 22 C -0.271167 1.002350 3.238234 0
M  V30 23 O -1.026326 0.084679 3.623353 0
M  V30 24 C 0.719127 -3.457911 0.516827 0
M  V30 25 C 0.927535 -4.819305 0.447402 0
M  V30 26 C 0.472709 -5.652772 -0.551799 0
M  V30 27 C -0.255037 -5.094081 -1.579250 0
M  V30 28 N -0.795988 -5.826187 -2.671280 0
M  V30 29 C -0.880515 -7.264161 -2.777328 0
M  V30 30 C -2.110314 -7.738834 -3.515138 0
M  V30 31 S -3.449077 -6.588684 -3.380746 0
M  V30 32 O -3.973937 -6.499100 -1.988928 0
M  V30 33 O -4.521923 -6.978514 -4.365329 0
M  V30 34 C -2.808300 -4.989150 -3.847102 0
M  V30 35 C -1.321275 -5.110650 -3.830806 0
M  V30 36 N -0.481794 -3.751843 -1.545360 0
M  V30 37 C -0.016823 -2.982828 -0.548159 0
M  V30 38 H 0.221378 -0.773682 0.976426 0
M  V30 39 H 1.176992 -1.053543 3.738903 0
M  V30 40 H 2.576100 -0.620689 2.736743 0
M  V30 41 H 2.764245 1.720167 2.043416 0
M  V30 42 H 1.444655 4.206448 -0.039381 0
M  V30 43 H 2.885324 6.190452 -0.605053 0
M  V30 44 H 4.213013 7.304222 1.218386 0
M  V30 45 H 4.099286 6.468325 3.499817 0
M  V30 46 H 0.102949 5.523206 2.564406 0
M  V30 47 H -3.626910 3.984315 4.112654 0
M  V30 48 H -2.713739 1.677582 4.054521 0
M  V30 49 H 1.499968 -5.309615 1.241287 0
M  V30 50 H 0.657763 -6.713750 -0.569143 0
M  V30 51 H -0.813462 -7.762713 -1.785999 0
M  V30 52 H -0.006397 -7.629161 -3.361359 0
M  V30 53 H -2.458176 -8.674262 -2.994382 0
M  V30 54 H -1.903985 -8.038349 -4.547344 0
M  V30 55 H -3.115816 -4.769992 -4.868233 0
M  V30 56 H -3.197002 -4.183765 -3.191010 0
M  V30 57 H -0.903947 -4.060160 -3.844235 0
M  V30 58 H -1.005895 -5.539073 -4.793573 0
M  V30 59 H -0.252156 -1.934170 -0.617580 0
M  V30 END ATOM
M  V30 BEGIN BOND
M  V30 1 2 1 2
M  V30 2 1 2 3
M  V30 3 1 3 4
M  V30 4 1 4 5
M  V30 5 2 5 6
M  V30 6 1 6 7
M  V30 7 1 7 8
M  V30 8 2 8 9
M  V30 9 1 9 10
M  V30 10 2 10 11
M  V30 11 1 11 12
M  V30 12 2 12 13
M  V30 13 1 13 14
M  V30 14 1 7 15
M  V30 15 2 15 16
M  V30 16 1 16 17
M  V30 17 1 17 18
M  V30 18 2 17 19
M  V30 19 1 19 20
M  V30 20 2 20 21
M  V30 21 1 21 22
M  V30 22 2 22 23
M  V30 23 1 2 24
M  V30 24 2 24 25
M  V30 25 1 25 26
M  V30 26 2 26 27
M  V30 27 1 27 28
M  V30 28 1 28 29
M  V30 29 1 29 30
M  V30 30 1 30 31
M  V30 31 2 31 32
M  V30 32 2 31 33
M  V30 33 1 31 34
M  V30 34 1 34 35
M  V30 35 1 27 36
M  V30 36 2 36 37
M  V30 37 1 22 5
M  V30 38 1 37 24
M  V30 39 1 13 8
M  V30 40 1 21 15
M  V30 41 1 35 28
M  V30 42 1 3 38
M  V30 43 1 4 39
M  V30 44 1 4 40
M  V30 45 1 6 41
M  V30 46 1 9 42
M  V30 47 1 10 43
M  V30 48 1 11 44
M  V30 49 1 12 45
M  V30 50 1 16 46
M  V30 51 1 19 47
M  V30 52 1 20 48
M  V30 53 1 25 49
M  V30 54 1 26 50
M  V30 55 1 29 51
M  V30 56 1 29 52
M  V30 57 1 30 53
M  V30 58 1 30 54
M  V30 59 1 34 55
M  V30 60 1 34 56
M  V30 61 1 35 57
M  V30 62 1 35 58
M  V30 63 1 37 59
M  V30 END BOND
M  V30 END CTAB
M  END
>  <Dataset>  (742) 
ChEMBL_Kinases

>  <Ligand_Instance>  (742) 
nan

>  <PDB_ID>  (742) 
nan

>  <Standardized_SMILES>  (742) 
O=C(NCc1cn(-c2ccccc2F)c2cc(F)ccc2c1=O)c1ccc(N2CCS(=O)(=O)CC2)nc1

>  <Name>  (742) 
nan

>  <Pocket>  (742) 
nan

>  <ATP_Site>  (742) 
nan

>  <Peripheral>  (742) 
nan

>  <Num_H_Atoms_ProtBoundConf>  (742) 
nan

>  <Num_Resolved_Atoms>  (742) 
nan

>  <Num_Not_Resolved_Atoms>  (742) 
nan

$$$$
CHEMBL3679536
     RDKit          3D

  0  0  0  0  0  0  0  0  0  0999 V3000
M  V30 BEGIN CTAB
M  V30 COUNTS 55 58 0 0 0
M  V30 BEGIN ATOM
M  V30 1 C 3.344376 -0.463002 -0.613120 0
M  V30 2 O 2.350379 -1.008816 0.197153 0
M  V30 3 C 1.330307 -1.829819 -0.263697 0
M  V30 4 O 1.539643 -1.929971 -1.499276 0
M  V30 5 C 0.247923 -2.450034 0.489837 0
M  V30 6 C 0.030034 -2.333703 1.844581 0
M  V30 7 C 1.006149 -1.486957 2.615930 0
M  V30 8 N 0.670717 -0.105156 2.319200 0
M  V30 9 C 1.402294 0.974703 2.884415 0
M  V30 10 O 2.364315 0.735253 3.660967 0
M  V30 11 C 1.112948 2.379416 2.624170 0
M  V30 12 C 1.906843 3.332363 3.224473 0
M  V30 13 C 1.669975 4.693369 3.006505 0
M  V30 14 C 0.642677 5.107796 2.190822 0
M  V30 15 C 0.396646 6.526244 1.963532 0
M  V30 16 N -0.669166 6.941311 1.121120 0
M  V30 17 O 1.115691 7.404119 2.503099 0
M  V30 18 C -0.160842 4.168415 1.582617 0
M  V30 19 C 0.096447 2.834784 1.816056 0
M  V30 20 C -1.035972 -2.970511 2.446721 0
M  V30 21 O -1.145429 -2.799640 3.688461 0
M  V30 22 C -1.889269 -3.735712 1.653289 0
M  V30 23 C -2.937302 -4.349797 2.304508 0
M  V30 24 C -3.810382 -5.123748 1.535651 0
M  V30 25 C -3.588770 -5.240123 0.167345 0
M  V30 26 Cl -4.674380 -6.206736 -0.810908 0
M  V30 27 C -2.519585 -4.600102 -0.429451 0
M  V30 28 C -1.631131 -3.822976 0.300967 0
M  V30 29 N -0.583170 -3.193295 -0.273306 0
M  V30 30 C -0.471311 -3.393868 -1.676130 0
M  V30 31 C -1.028484 -2.348438 -2.422685 0
M  V30 32 C -1.029226 -2.339018 -3.801521 0
M  V30 33 C -0.454999 -3.408179 -4.438400 0
M  V30 34 C 0.098806 -4.447110 -3.721216 0
M  V30 35 C 0.094782 -4.447726 -2.330527 0
M  V30 36 H 3.049047 0.493467 -1.099710 0
M  V30 37 H 4.218518 -0.228445 0.034026 0
M  V30 38 H 3.714064 -1.122018 -1.416918 0
M  V30 39 H 0.789119 -1.592989 3.720294 0
M  V30 40 H 2.050445 -1.727528 2.393089 0
M  V30 41 H -0.112271 0.169285 1.685677 0
M  V30 42 H 2.737354 3.119199 3.881008 0
M  V30 43 H 2.267346 5.470967 3.456573 0
M  V30 44 H -0.871179 7.130100 0.111488 0
M  V30 45 H -1.673896 7.230288 1.116018 0
M  V30 46 H -0.973471 4.456332 0.938387 0
M  V30 47 H -0.534362 2.129381 1.338150 0
M  V30 48 H -3.110130 -4.261116 3.361329 0
M  V30 49 H -4.656998 -5.635940 1.980338 0
M  V30 50 H -2.384873 -4.718890 -1.502098 0
M  V30 51 H -1.501145 -1.467621 -1.968953 0
M  V30 52 H -1.466144 -1.519179 -4.369992 0
M  V30 53 H -0.445188 -3.420277 -5.521201 0
M  V30 54 H 0.561686 -5.308627 -4.196116 0
M  V30 55 H 0.495621 -5.200662 -1.695327 0
M  V30 END ATOM
M  V30 BEGIN BOND
M  V30 1 1 1 2
M  V30 2 1 2 3
M  V30 3 2 3 4
M  V30 4 1 3 5
M  V30 5 2 5 6
M  V30 6 1 6 7
M  V30 7 1 7 8
M  V30 8 1 8 9
M  V30 9 2 9 10
M  V30 10 1 9 11
M  V30 11 2 11 12
M  V30 12 1 12 13
M  V30 13 2 13 14
M  V30 14 1 14 15
M  V30 15 1 15 16
M  V30 16 2 15 17
M  V30 17 1 14 18
M  V30 18 2 18 19
M  V30 19 1 6 20
M  V30 20 2 20 21
M  V30 21 1 20 22
M  V30 22 2 22 23
M  V30 23 1 23 24
M  V30 24 2 24 25
M  V30 25 1 25 26
M  V30 26 1 25 27
M  V30 27 2 27 28
M  V30 28 1 28 29
M  V30 29 1 29 30
M  V30 30 2 30 31
M  V30 31 1 31 32
M  V30 32 2 32 33
M  V30 33 1 33 34
M  V30 34 2 34 35
M  V30 35 1 29 5
M  V30 36 1 35 30
M  V30 37 1 19 11
M  V30 38 1 28 22
M  V30 39 1 1 36
M  V30 40 1 1 37
M  V30 41 1 1 38
M  V30 42 1 7 39
M  V30 43 1 7 40
M  V30 44 1 8 41
M  V30 45 1 12 42
M  V30 46 1 13 43
M  V30 47 1 16 44
M  V30 48 1 16 45
M  V30 49 1 18 46
M  V30 50 1 19 47
M  V30 51 1 23 48
M  V30 52 1 24 49
M  V30 53 1 27 50
M  V30 54 1 31 51
M  V30 55 1 32 52
M  V30 56 1 33 53
M  V30 57 1 34 54
M  V30 58 1 35 55
M  V30 END BOND
M  V30 END CTAB
M  END
>  <Dataset>  (743) 
ChEMBL_Kinases

>  <Ligand_Instance>  (743) 
nan

>  <PDB_ID>  (743) 
nan

>  <Standardized_SMILES>  (743) 
COC(=O)c1c(CNC(=O)c2ccc(C(N)=O)cc2)c(=O)c2ccc(Cl)cc2n1-c1ccccc1

>  <Name>  (743) 
nan

>  <Pocket>  (743) 
nan

>  <ATP_Site>  (743) 
nan

>  <Peripheral>  (743) 
nan

>  <Num_H_Atoms_ProtBoundConf>  (743) 
nan

>  <Num_Resolved_Atoms>  (743) 
nan

>  <Num_Not_Resolved_Atoms>  (743) 
nan

$$$$
CHEMBL3679528
     RDKit          3D

  0  0  0  0  0  0  0  0  0  0999 V3000
M  V30 BEGIN CTAB
M  V30 COUNTS 57 60 0 0 0
M  V30 BEGIN ATOM
M  V30 1 C 2.324129 0.415247 -2.147695 0
M  V30 2 O 2.066965 -0.326986 -0.996639 0
M  V30 3 C 1.529372 -1.604173 -0.985328 0
M  V30 4 O 1.349058 -1.893616 -2.193897 0
M  V30 5 C 1.232873 -2.440002 0.169168 0
M  V30 6 C 1.451537 -2.068100 1.475951 0
M  V30 7 C 2.043928 -0.736323 1.767695 0
M  V30 8 N 1.021189 0.258961 1.535897 0
M  V30 9 C 1.108700 1.652044 1.693173 0
M  V30 10 O 2.226513 2.100102 2.085293 0
M  V30 11 C 0.040939 2.607390 1.445793 0
M  V30 12 C 0.351042 3.956180 1.547500 0
M  V30 13 C -0.642315 4.885284 1.326137 0
M  V30 14 C -1.948603 4.588439 1.004947 0
M  V30 15 S -3.155785 5.827496 0.729354 0
M  V30 16 C -3.889397 6.387388 2.247720 0
M  V30 17 O -4.242609 5.228897 -0.122516 0
M  V30 18 O -2.571452 6.992935 0.008849 0
M  V30 19 C -2.228798 3.226122 0.910395 0
M  V30 20 C -1.256976 2.273786 1.125882 0
M  V30 21 C 1.123693 -2.941393 2.489692 0
M  V30 22 O 1.341366 -2.557428 3.661731 0
M  V30 23 C 0.574239 -4.202497 2.263272 0
M  V30 24 C 0.252270 -5.062998 3.290213 0
M  V30 25 C -0.293032 -6.300742 2.975792 0
M  V30 26 C -0.489638 -6.617323 1.648997 0
M  V30 27 Cl -1.182780 -8.191401 1.320211 0
M  V30 28 C -0.157218 -5.736245 0.648011 0
M  V30 29 C 0.388206 -4.491532 0.908560 0
M  V30 30 N 0.702519 -3.650095 -0.091174 0
M  V30 31 C 0.424017 -4.145559 -1.419296 0
M  V30 32 C -0.947597 -4.066332 -1.694931 0
M  V30 33 C -1.374661 -4.506537 -2.924339 0
M  V30 34 C -0.556485 -5.013485 -3.891838 0
M  V30 35 C 0.784996 -5.069084 -3.570248 0
M  V30 36 C 1.299472 -4.646889 -2.354314 0
M  V30 37 H 3.412259 0.709994 -2.147394 0
M  V30 38 H 2.095533 -0.096930 -3.086279 0
M  V30 39 H 1.785837 1.393563 -2.187064 0
M  V30 40 H 2.431058 -0.701886 2.809911 0
M  V30 41 H 2.957561 -0.530931 1.141175 0
M  V30 42 H 0.050897 -0.030959 1.202918 0
M  V30 43 H 1.354752 4.302443 1.797187 0
M  V30 44 H -0.363244 5.942742 1.413079 0
M  V30 45 H -3.294385 6.012919 3.104902 0
M  V30 46 H -4.939687 6.061692 2.353464 0
M  V30 47 H -3.868979 7.513249 2.305624 0
M  V30 48 H -3.251306 2.899196 0.657991 0
M  V30 49 H -1.522429 1.232200 1.039672 0
M  V30 50 H 0.442268 -4.727827 4.282787 0
M  V30 51 H -0.515644 -6.911661 3.839576 0
M  V30 52 H -0.347132 -6.074694 -0.363076 0
M  V30 53 H -1.716290 -3.689223 -1.028160 0
M  V30 54 H -2.440257 -4.467850 -3.200829 0
M  V30 55 H -0.792948 -5.380863 -4.872815 0
M  V30 56 H 1.573666 -5.445646 -4.228288 0
M  V30 57 H 2.310809 -4.654810 -2.031304 0
M  V30 END ATOM
M  V30 BEGIN BOND
M  V30 1 1 1 2
M  V30 2 1 2 3
M  V30 3 2 3 4
M  V30 4 1 3 5
M  V30 5 2 5 6
M  V30 6 1 6 7
M  V30 7 1 7 8
M  V30 8 1 8 9
M  V30 9 2 9 10
M  V30 10 1 9 11
M  V30 11 2 11 12
M  V30 12 1 12 13
M  V30 13 2 13 14
M  V30 14 1 14 15
M  V30 15 1 15 16
M  V30 16 2 15 17
M  V30 17 2 15 18
M  V30 18 1 14 19
M  V30 19 2 19 20
M  V30 20 1 6 21
M  V30 21 2 21 22
M  V30 22 1 21 23
M  V30 23 2 23 24
M  V30 24 1 24 25
M  V30 25 2 25 26
M  V30 26 1 26 27
M  V30 27 1 26 28
M  V30 28 2 28 29
M  V30 29 1 29 30
M  V30 30 1 30 31
M  V30 31 2 31 32
M  V30 32 1 32 33
M  V30 33 2 33 34
M  V30 34 1 34 35
M  V30 35 2 35 36
M  V30 36 1 30 5
M  V30 37 1 36 31
M  V30 38 1 20 11
M  V30 39 1 29 23
M  V30 40 1 1 37
M  V30 41 1 1 38
M  V30 42 1 1 39
M  V30 43 1 7 40
M  V30 44 1 7 41
M  V30 45 1 8 42
M  V30 46 1 12 43
M  V30 47 1 13 44
M  V30 48 1 16 45
M  V30 49 1 16 46
M  V30 50 1 16 47
M  V30 51 1 19 48
M  V30 52 1 20 49
M  V30 53 1 24 50
M  V30 54 1 25 51
M  V30 55 1 28 52
M  V30 56 1 32 53
M  V30 57 1 33 54
M  V30 58 1 34 55
M  V30 59 1 35 56
M  V30 60 1 36 57
M  V30 END BOND
M  V30 END CTAB
M  END
>  <Dataset>  (744) 
ChEMBL_Kinases

>  <Ligand_Instance>  (744) 
nan

>  <PDB_ID>  (744) 
nan

>  <Standardized_SMILES>  (744) 
COC(=O)c1c(CNC(=O)c2ccc(S(C)(=O)=O)cc2)c(=O)c2ccc(Cl)cc2n1-c1ccccc1

>  <Name>  (744) 
nan

>  <Pocket>  (744) 
nan

>  <ATP_Site>  (744) 
nan

>  <Peripheral>  (744) 
nan

>  <Num_H_Atoms_ProtBoundConf>  (744) 
nan

>  <Num_Resolved_Atoms>  (744) 
nan

>  <Num_Not_Resolved_Atoms>  (744) 
nan

$$$$
CHEMBL3679529
     RDKit          3D

  0  0  0  0  0  0  0  0  0  0999 V3000
M  V30 BEGIN CTAB
M  V30 COUNTS 57 61 0 0 0
M  V30 BEGIN ATOM
M  V30 1 C -3.419995 -2.397779 1.907091 0
M  V30 2 O -2.040142 -2.434563 1.751919 0
M  V30 3 C -1.340094 -2.811480 0.624494 0
M  V30 4 O -2.304899 -3.082098 -0.132353 0
M  V30 5 C 0.058515 -2.906752 0.298343 0
M  V30 6 C 1.085646 -2.592735 1.153130 0
M  V30 7 C 0.802309 -2.093844 2.517968 0
M  V30 8 N 0.375316 -0.737578 2.583554 0
M  V30 9 C 1.014128 0.451966 2.161429 0
M  V30 10 O 2.155412 0.309270 1.635753 0
M  V30 11 C 0.435395 1.783523 2.300932 0
M  V30 12 C -0.789685 2.090672 2.855346 0
M  V30 13 C -1.226981 3.405226 2.926951 0
M  V30 14 C -0.475814 4.459850 2.456698 0
M  V30 15 C -0.918922 5.847397 2.521743 0
M  V30 16 C -2.096560 6.353578 3.029201 0
M  V30 17 N -2.124914 7.683883 2.902744 0
M  V30 18 C -0.940252 7.992275 2.306234 0
M  V30 19 O -0.252592 6.919313 2.091755 0
M  V30 20 C 0.753781 4.182617 1.897087 0
M  V30 21 C 1.156948 2.865977 1.842066 0
M  V30 22 C 2.366358 -2.759023 0.680243 0
M  V30 23 O 3.377247 -2.493875 1.406041 0
M  V30 24 C 2.668676 -3.218170 -0.592496 0
M  V30 25 C 3.979125 -3.375560 -1.042720 0
M  V30 26 C 4.215258 -3.832009 -2.308042 0
M  V30 27 C 3.145936 -4.123298 -3.101760 0
M  V30 28 Cl 3.413667 -4.716930 -4.747450 0
M  V30 29 C 1.847518 -3.969765 -2.662322 0
M  V30 30 C 1.567460 -3.506220 -1.376771 0
M  V30 31 N 0.302133 -3.357077 -0.949743 0
M  V30 32 C -0.708577 -3.701097 -1.888755 0
M  V30 33 C -1.191132 -4.972959 -1.886734 0
M  V30 34 C -2.181777 -5.450790 -2.750961 0
M  V30 35 C -2.651655 -4.494307 -3.642464 0
M  V30 36 C -2.201006 -3.192909 -3.690656 0
M  V30 37 C -1.218643 -2.798871 -2.801212 0
M  V30 38 H -3.987128 -3.002340 1.176785 0
M  V30 39 H -3.644856 -2.738345 2.958883 0
M  V30 40 H -3.766059 -1.335036 1.866711 0
M  V30 41 H 1.782836 -2.146221 3.080006 0
M  V30 42 H 0.115609 -2.792177 3.024297 0
M  V30 43 H -0.569195 -0.548987 3.019956 0
M  V30 44 H -1.386176 1.279701 3.226081 0
M  V30 45 H -2.199255 3.621869 3.370077 0
M  V30 46 H -2.896189 5.748376 3.473438 0
M  V30 47 H -0.475078 8.926956 1.986389 0
M  V30 48 H 1.384554 4.983604 1.511172 0
M  V30 49 H 2.145143 2.711142 1.385356 0
M  V30 50 H 4.781611 -3.128922 -0.369212 0
M  V30 51 H 5.248420 -3.940232 -2.618885 0
M  V30 52 H 1.033590 -4.205214 -3.304800 0
M  V30 53 H -0.810996 -5.719957 -1.176034 0
M  V30 54 H -2.548949 -6.467671 -2.729795 0
M  V30 55 H -3.419183 -4.824843 -4.328291 0
M  V30 56 H -2.576792 -2.465219 -4.388733 0
M  V30 57 H -0.787082 -1.796093 -2.748594 0
M  V30 END ATOM
M  V30 BEGIN BOND
M  V30 1 1 1 2
M  V30 2 1 2 3
M  V30 3 2 3 4
M  V30 4 1 3 5
M  V30 5 2 5 6
M  V30 6 1 6 7
M  V30 7 1 7 8
M  V30 8 1 8 9
M  V30 9 2 9 10
M  V30 10 1 9 11
M  V30 11 2 11 12
M  V30 12 1 12 13
M  V30 13 2 13 14
M  V30 14 1 14 15
M  V30 15 2 15 16
M  V30 16 1 16 17
M  V30 17 2 17 18
M  V30 18 1 18 19
M  V30 19 1 14 20
M  V30 20 2 20 21
M  V30 21 1 6 22
M  V30 22 2 22 23
M  V30 23 1 22 24
M  V30 24 2 24 25
M  V30 25 1 25 26
M  V30 26 2 26 27
M  V30 27 1 27 28
M  V30 28 1 27 29
M  V30 29 2 29 30
M  V30 30 1 30 31
M  V30 31 1 31 32
M  V30 32 2 32 33
M  V30 33 1 33 34
M  V30 34 2 34 35
M  V30 35 1 35 36
M  V30 36 2 36 37
M  V30 37 1 31 5
M  V30 38 1 37 32
M  V30 39 1 21 11
M  V30 40 1 30 24
M  V30 41 1 19 15
M  V30 42 1 1 38
M  V30 43 1 1 39
M  V30 44 1 1 40
M  V30 45 1 7 41
M  V30 46 1 7 42
M  V30 47 1 8 43
M  V30 48 1 12 44
M  V30 49 1 13 45
M  V30 50 1 16 46
M  V30 51 1 18 47
M  V30 52 1 20 48
M  V30 53 1 21 49
M  V30 54 1 25 50
M  V30 55 1 26 51
M  V30 56 1 29 52
M  V30 57 1 33 53
M  V30 58 1 34 54
M  V30 59 1 35 55
M  V30 60 1 36 56
M  V30 61 1 37 57
M  V30 END BOND
M  V30 END CTAB
M  END
>  <Dataset>  (745) 
ChEMBL_Kinases

>  <Ligand_Instance>  (745) 
nan

>  <PDB_ID>  (745) 
nan

>  <Standardized_SMILES>  (745) 
COC(=O)c1c(CNC(=O)c2ccc(-c3cnco3)cc2)c(=O)c2ccc(Cl)cc2n1-c1ccccc1

>  <Name>  (745) 
nan

>  <Pocket>  (745) 
nan

>  <ATP_Site>  (745) 
nan

>  <Peripheral>  (745) 
nan

>  <Num_H_Atoms_ProtBoundConf>  (745) 
nan

>  <Num_Resolved_Atoms>  (745) 
nan

>  <Num_Not_Resolved_Atoms>  (745) 
nan

$$$$
CHEMBL3679530
     RDKit          3D

  0  0  0  0  0  0  0  0  0  0999 V3000
M  V30 BEGIN CTAB
M  V30 COUNTS 57 61 0 0 0
M  V30 BEGIN ATOM
M  V30 1 C -2.516978 -1.382393 3.586040 0
M  V30 2 O -1.219969 -1.546925 3.006560 0
M  V30 3 C -0.989036 -2.437775 1.978326 0
M  V30 4 O -2.197084 -2.770551 1.994914 0
M  V30 5 C 0.221974 -2.762527 1.256053 0
M  V30 6 C 1.408401 -2.159418 1.523086 0
M  V30 7 C 1.601358 -1.109601 2.535004 0
M  V30 8 N 1.118965 0.173122 2.138629 0
M  V30 9 C 1.469192 0.999357 1.046298 0
M  V30 10 O 2.359612 0.549357 0.272025 0
M  V30 11 C 0.872446 2.301415 0.779708 0
M  V30 12 C -0.109035 2.925517 1.521660 0
M  V30 13 C -0.606854 4.165968 1.180579 0
M  V30 14 C -0.148034 4.849940 0.075896 0
M  V30 15 C -0.651589 6.161032 -0.312920 0
M  V30 16 N -1.608366 6.872753 0.329929 0
M  V30 17 N -1.828847 8.023680 -0.288203 0
M  V30 18 C -0.996242 8.043458 -1.343894 0
M  V30 19 N -0.267104 6.900290 -1.367325 0
M  V30 20 C 0.832928 4.259073 -0.691381 0
M  V30 21 C 1.306645 3.019567 -0.320769 0
M  V30 22 C 2.439788 -2.641806 0.723326 0
M  V30 23 O 3.604686 -2.188054 0.846715 0
M  V30 24 C 2.294139 -3.620285 -0.238021 0
M  V30 25 C 3.367242 -4.052080 -0.998941 0
M  V30 26 C 3.162488 -5.034313 -1.946918 0
M  V30 27 C 1.925518 -5.600892 -2.162770 0
M  V30 28 Cl 1.701170 -6.842523 -3.371778 0
M  V30 29 C 0.874682 -5.150475 -1.389216 0
M  V30 30 C 1.044673 -4.171366 -0.434094 0
M  V30 31 N 0.018148 -3.732677 0.320319 0
M  V30 32 C -1.233102 -4.345538 0.061129 0
M  V30 33 C -1.800997 -5.395659 0.734334 0
M  V30 34 C -3.042559 -5.883691 0.354625 0
M  V30 35 C -3.706695 -5.307389 -0.706116 0
M  V30 36 C -3.149852 -4.238982 -1.405891 0
M  V30 37 C -1.911842 -3.770012 -1.009158 0
M  V30 38 H -2.850417 -2.376113 4.003874 0
M  V30 39 H -2.456057 -0.729387 4.485084 0
M  V30 40 H -3.252053 -1.034342 2.833871 0
M  V30 41 H 2.720337 -1.002155 2.665056 0
M  V30 42 H 1.170984 -1.456037 3.480668 0
M  V30 43 H 0.372178 0.622510 2.745662 0
M  V30 44 H -0.480274 2.412560 2.383831 0
M  V30 45 H -1.380455 4.621784 1.793206 0
M  V30 46 H -0.896951 8.827715 -2.077170 0
M  V30 47 H 0.455371 6.653858 -2.078737 0
M  V30 48 H 1.226714 4.756989 -1.570664 0
M  V30 49 H 2.076523 2.597505 -0.955184 0
M  V30 50 H 4.344323 -3.604723 -0.829228 0
M  V30 51 H 3.999946 -5.393002 -2.563166 0
M  V30 52 H -0.095751 -5.589582 -1.552316 0
M  V30 53 H -1.188608 -5.755550 1.536503 0
M  V30 54 H -3.432931 -6.721836 0.936460 0
M  V30 55 H -4.683060 -5.702913 -0.992548 0
M  V30 56 H -3.700113 -3.811364 -2.233826 0
M  V30 57 H -1.527560 -2.929269 -1.598044 0
M  V30 END ATOM
M  V30 BEGIN BOND
M  V30 1 1 1 2
M  V30 2 1 2 3
M  V30 3 2 3 4
M  V30 4 1 3 5
M  V30 5 2 5 6
M  V30 6 1 6 7
M  V30 7 1 7 8
M  V30 8 1 8 9
M  V30 9 2 9 10
M  V30 10 1 9 11
M  V30 11 2 11 12
M  V30 12 1 12 13
M  V30 13 2 13 14
M  V30 14 1 14 15
M  V30 15 2 15 16
M  V30 16 1 16 17
M  V30 17 2 17 18
M  V30 18 1 18 19
M  V30 19 1 14 20
M  V30 20 2 20 21
M  V30 21 1 6 22
M  V30 22 2 22 23
M  V30 23 1 22 24
M  V30 24 2 24 25
M  V30 25 1 25 26
M  V30 26 2 26 27
M  V30 27 1 27 28
M  V30 28 1 27 29
M  V30 29 2 29 30
M  V30 30 1 30 31
M  V30 31 1 31 32
M  V30 32 2 32 33
M  V30 33 1 33 34
M  V30 34 2 34 35
M  V30 35 1 35 36
M  V30 36 2 36 37
M  V30 37 1 31 5
M  V30 38 1 37 32
M  V30 39 1 21 11
M  V30 40 1 30 24
M  V30 41 1 19 15
M  V30 42 1 1 38
M  V30 43 1 1 39
M  V30 44 1 1 40
M  V30 45 1 7 41
M  V30 46 1 7 42
M  V30 47 1 8 43
M  V30 48 1 12 44
M  V30 49 1 13 45
M  V30 50 1 18 46
M  V30 51 1 19 47
M  V30 52 1 20 48
M  V30 53 1 21 49
M  V30 54 1 25 50
M  V30 55 1 26 51
M  V30 56 1 29 52
M  V30 57 1 33 53
M  V30 58 1 34 54
M  V30 59 1 35 55
M  V30 60 1 36 56
M  V30 61 1 37 57
M  V30 END BOND
M  V30 END CTAB
M  END
>  <Dataset>  (746) 
ChEMBL_Kinases

>  <Ligand_Instance>  (746) 
nan

>  <PDB_ID>  (746) 
nan

>  <Standardized_SMILES>  (746) 
COC(=O)c1c(CNC(=O)c2ccc(-c3nnc[nH]3)cc2)c(=O)c2ccc(Cl)cc2n1-c1ccccc1

>  <Name>  (746) 
nan

>  <Pocket>  (746) 
nan

>  <ATP_Site>  (746) 
nan

>  <Peripheral>  (746) 
nan

>  <Num_H_Atoms_ProtBoundConf>  (746) 
nan

>  <Num_Resolved_Atoms>  (746) 
nan

>  <Num_Not_Resolved_Atoms>  (746) 
nan

$$$$
CHEMBL3679531
     RDKit          3D

  0  0  0  0  0  0  0  0  0  0999 V3000
M  V30 BEGIN CTAB
M  V30 COUNTS 63 67 0 0 0
M  V30 BEGIN ATOM
M  V30 1 C 1.057794 1.532675 4.141677 0
M  V30 2 O 1.459631 0.229276 3.763514 0
M  V30 3 C 1.746091 -0.128648 2.454406 0
M  V30 4 O 1.565281 0.917807 1.783805 0
M  V30 5 C 2.158794 -1.444894 2.028254 0
M  V30 6 C 2.413441 -1.667826 0.696991 0
M  V30 7 C 2.291864 -0.643452 -0.371414 0
M  V30 8 N 0.860033 -0.476678 -0.649286 0
M  V30 9 C 0.681398 0.482768 -1.683638 0
M  V30 10 O 1.694975 1.013410 -2.176151 0
M  V30 11 C -0.627879 0.871840 -2.193129 0
M  V30 12 C -0.642240 1.800429 -3.237258 0
M  V30 13 C -1.845758 2.240831 -3.803435 0
M  V30 14 C -2.969547 1.679980 -3.239646 0
M  V30 15 N -4.254050 2.038245 -3.724921 0
M  V30 16 C -4.659025 2.910208 -4.807253 0
M  V30 17 C -5.501361 2.203818 -5.830560 0
M  V30 18 O -5.608860 0.860979 -5.430533 0
M  V30 19 C -6.353667 0.880599 -4.228471 0
M  V30 20 C -5.509683 1.562237 -3.185036 0
M  V30 21 N -2.984501 0.786367 -2.236236 0
M  V30 22 C -1.811520 0.368093 -1.697023 0
M  V30 23 C 2.806608 -2.968132 0.389117 0
M  V30 24 O 3.054515 -3.232625 -0.818740 0
M  V30 25 C 2.920344 -3.925919 1.361013 0
M  V30 26 C 3.316053 -5.186549 0.956287 0
M  V30 27 C 3.448850 -6.205469 1.904472 0
M  V30 28 C 3.169055 -5.871902 3.204835 0
M  V30 29 Cl 3.343360 -7.164340 4.365234 0
M  V30 30 C 2.772994 -4.626961 3.640001 0
M  V30 31 C 2.648377 -3.636928 2.688775 0
M  V30 32 N 2.268505 -2.379108 2.985125 0
M  V30 33 C 2.007800 -2.159567 4.364831 0
M  V30 34 C 2.830849 -1.596314 5.311248 0
M  V30 35 C 2.371464 -1.476244 6.627372 0
M  V30 36 C 1.108412 -1.915133 6.981352 0
M  V30 37 C 0.282154 -2.482488 6.022968 0
M  V30 38 C 0.747162 -2.598922 4.712113 0
M  V30 39 H 1.167860 1.609649 5.256940 0
M  V30 40 H 0.015243 1.744124 3.805666 0
M  V30 41 H 1.741084 2.300698 3.711577 0
M  V30 42 H 2.818533 -1.038488 -1.276253 0
M  V30 43 H 2.786636 0.308479 -0.112639 0
M  V30 44 H 0.031303 -0.938940 -0.215014 0
M  V30 45 H 0.264015 2.218441 -3.653297 0
M  V30 46 H -1.858500 2.951733 -4.602961 0
M  V30 47 H -3.740646 3.277243 -5.307231 0
M  V30 48 H -5.191298 3.823886 -4.433879 0
M  V30 49 H -5.052149 2.284550 -6.829498 0
M  V30 50 H -6.502873 2.681053 -5.872598 0
M  V30 51 H -6.637817 -0.154980 -3.928275 0
M  V30 52 H -7.244148 1.492054 -4.465787 0
M  V30 53 H -5.375981 0.844297 -2.347231 0
M  V30 54 H -6.111116 2.394753 -2.744530 0
M  V30 55 H -1.796766 -0.350273 -0.888459 0
M  V30 56 H 3.521741 -5.383628 -0.086222 0
M  V30 57 H 3.758015 -7.188424 1.583064 0
M  V30 58 H 2.560008 -4.403151 4.683722 0
M  V30 59 H 3.787169 -1.287243 4.943763 0
M  V30 60 H 3.065265 -1.020156 7.345050 0
M  V30 61 H 0.779650 -1.811527 7.998128 0
M  V30 62 H -0.706460 -2.815743 6.343548 0
M  V30 63 H 0.008053 -3.062440 4.042045 0
M  V30 END ATOM
M  V30 BEGIN BOND
M  V30 1 1 1 2
M  V30 2 1 2 3
M  V30 3 2 3 4
M  V30 4 1 3 5
M  V30 5 2 5 6
M  V30 6 1 6 7
M  V30 7 1 7 8
M  V30 8 1 8 9
M  V30 9 2 9 10
M  V30 10 1 9 11
M  V30 11 2 11 12
M  V30 12 1 12 13
M  V30 13 2 13 14
M  V30 14 1 14 15
M  V30 15 1 15 16
M  V30 16 1 16 17
M  V30 17 1 17 18
M  V30 18 1 18 19
M  V30 19 1 19 20
M  V30 20 1 14 21
M  V30 21 2 21 22
M  V30 22 1 6 23
M  V30 23 2 23 24
M  V30 24 1 23 25
M  V30 25 2 25 26
M  V30 26 1 26 27
M  V30 27 2 27 28
M  V30 28 1 28 29
M  V30 29 1 28 30
M  V30 30 2 30 31
M  V30 31 1 31 32
M  V30 32 1 32 33
M  V30 33 2 33 34
M  V30 34 1 34 35
M  V30 35 2 35 36
M  V30 36 1 36 37
M  V30 37 2 37 38
M  V30 38 1 32 5
M  V30 39 1 38 33
M  V30 40 1 22 11
M  V30 41 1 31 25
M  V30 42 1 20 15
M  V30 43 1 1 39
M  V30 44 1 1 40
M  V30 45 1 1 41
M  V30 46 1 7 42
M  V30 47 1 7 43
M  V30 48 1 8 44
M  V30 49 1 12 45
M  V30 50 1 13 46
M  V30 51 1 16 47
M  V30 52 1 16 48
M  V30 53 1 17 49
M  V30 54 1 17 50
M  V30 55 1 19 51
M  V30 56 1 19 52
M  V30 57 1 20 53
M  V30 58 1 20 54
M  V30 59 1 22 55
M  V30 60 1 26 56
M  V30 61 1 27 57
M  V30 62 1 30 58
M  V30 63 1 34 59
M  V30 64 1 35 60
M  V30 65 1 36 61
M  V30 66 1 37 62
M  V30 67 1 38 63
M  V30 END BOND
M  V30 END CTAB
M  END
>  <Dataset>  (747) 
ChEMBL_Kinases

>  <Ligand_Instance>  (747) 
nan

>  <PDB_ID>  (747) 
nan

>  <Standardized_SMILES>  (747) 
COC(=O)c1c(CNC(=O)c2ccc(N3CCOCC3)nc2)c(=O)c2ccc(Cl)cc2n1-c1ccccc1

>  <Name>  (747) 
nan

>  <Pocket>  (747) 
nan

>  <ATP_Site>  (747) 
nan

>  <Peripheral>  (747) 
nan

>  <Num_H_Atoms_ProtBoundConf>  (747) 
nan

>  <Num_Resolved_Atoms>  (747) 
nan

>  <Num_Not_Resolved_Atoms>  (747) 
nan

$$$$
CHEMBL3679532
     RDKit          3D

  0  0  0  0  0  0  0  0  0  0999 V3000
M  V30 BEGIN CTAB
M  V30 COUNTS 53 57 0 0 0
M  V30 BEGIN ATOM
M  V30 1 C 3.060272 -1.272661 -0.810085 0
M  V30 2 O 2.145576 -1.198737 0.268369 0
M  V30 3 C 1.006158 -1.946579 0.248399 0
M  V30 4 O 1.214028 -2.499602 -0.866882 0
M  V30 5 C -0.047415 -2.023624 1.226988 0
M  V30 6 C -0.036668 -1.293574 2.400682 0
M  V30 7 C 1.108480 -0.385255 2.675986 0
M  V30 8 N 0.904906 0.778714 1.831346 0
M  V30 9 C 1.889937 1.799349 1.925980 0
M  V30 10 O 2.797721 1.548225 2.729062 0
M  V30 11 C 1.866441 3.059805 1.151767 0
M  V30 12 C 2.965939 3.873226 1.454792 0
M  V30 13 C 3.029258 5.091377 0.767631 0
M  V30 14 C 2.007597 5.373794 -0.138686 0
M  V30 15 S 1.745132 6.813685 -1.194432 0
M  V30 16 C 0.127086 6.058782 -1.906677 0
M  V30 17 N 0.086725 5.049942 -1.328648 0
M  V30 18 C 0.923935 4.567568 -0.434792 0
M  V30 19 C 0.878185 3.355858 0.261321 0
M  V30 20 C -1.126148 -1.489667 3.223988 0
M  V30 21 O -1.130029 -0.824437 4.307611 0
M  V30 22 C -2.147735 -2.354689 2.890393 0
M  V30 23 C -3.212769 -2.519643 3.739743 0
M  V30 24 C -4.248037 -3.394674 3.405321 0
M  V30 25 C -4.226362 -4.110784 2.220125 0
M  V30 26 Cl -5.456264 -5.217293 1.715343 0
M  V30 27 C -3.144978 -3.930686 1.378237 0
M  V30 28 C -2.112196 -3.061764 1.705488 0
M  V30 29 N -1.049495 -2.870306 0.902666 0
M  V30 30 C -1.070106 -3.627998 -0.307286 0
M  V30 31 C -0.754298 -4.944231 -0.496195 0
M  V30 32 C -0.838310 -5.493528 -1.749161 0
M  V30 33 C -1.243803 -4.705845 -2.813776 0
M  V30 34 C -1.571477 -3.368534 -2.658461 0
M  V30 35 C -1.478574 -2.838067 -1.384509 0
M  V30 36 H 2.609885 -0.900377 -1.768220 0
M  V30 37 H 3.982662 -0.673212 -0.587935 0
M  V30 38 H 3.371382 -2.319396 -1.008556 0
M  V30 39 H 2.090583 -0.850918 2.579426 0
M  V30 40 H 0.957372 -0.015626 3.730287 0
M  V30 41 H 0.102563 0.909158 1.177018 0
M  V30 42 H 3.740525 3.657492 2.142748 0
M  V30 43 H 3.811065 5.814715 0.895588 0
M  V30 44 H -0.607926 6.421573 -2.654934 0
M  V30 45 H 0.077923 2.633311 0.119348 0
M  V30 46 H -3.257887 -1.975204 4.670286 0
M  V30 47 H -5.103891 -3.554904 4.043147 0
M  V30 48 H -3.080363 -4.462411 0.447144 0
M  V30 49 H -0.459707 -5.406103 0.436678 0
M  V30 50 H -0.574202 -6.531436 -1.816235 0
M  V30 51 H -1.306452 -5.149792 -3.796273 0
M  V30 52 H -1.879168 -2.821394 -3.539850 0
M  V30 53 H -1.751011 -1.787606 -1.343711 0
M  V30 END ATOM
M  V30 BEGIN BOND
M  V30 1 1 1 2
M  V30 2 1 2 3
M  V30 3 2 3 4
M  V30 4 1 3 5
M  V30 5 2 5 6
M  V30 6 1 6 7
M  V30 7 1 7 8
M  V30 8 1 8 9
M  V30 9 2 9 10
M  V30 10 1 9 11
M  V30 11 2 11 12
M  V30 12 1 12 13
M  V30 13 2 13 14
M  V30 14 1 14 15
M  V30 15 1 15 16
M  V30 16 2 16 17
M  V30 17 1 17 18
M  V30 18 2 18 19
M  V30 19 1 6 20
M  V30 20 2 20 21
M  V30 21 1 20 22
M  V30 22 2 22 23
M  V30 23 1 23 24
M  V30 24 2 24 25
M  V30 25 1 25 26
M  V30 26 1 25 27
M  V30 27 2 27 28
M  V30 28 1 28 29
M  V30 29 1 29 30
M  V30 30 2 30 31
M  V30 31 1 31 32
M  V30 32 2 32 33
M  V30 33 1 33 34
M  V30 34 2 34 35
M  V30 35 1 29 5
M  V30 36 1 35 30
M  V30 37 1 19 11
M  V30 38 1 28 22
M  V30 39 1 18 14
M  V30 40 1 1 36
M  V30 41 1 1 37
M  V30 42 1 1 38
M  V30 43 1 7 39
M  V30 44 1 7 40
M  V30 45 1 8 41
M  V30 46 1 12 42
M  V30 47 1 13 43
M  V30 48 1 16 44
M  V30 49 1 19 45
M  V30 50 1 23 46
M  V30 51 1 24 47
M  V30 52 1 27 48
M  V30 53 1 31 49
M  V30 54 1 32 50
M  V30 55 1 33 51
M  V30 56 1 34 52
M  V30 57 1 35 53
M  V30 END BOND
M  V30 END CTAB
M  END
>  <Dataset>  (748) 
ChEMBL_Kinases

>  <Ligand_Instance>  (748) 
nan

>  <PDB_ID>  (748) 
nan

>  <Standardized_SMILES>  (748) 
COC(=O)c1c(CNC(=O)c2ccc3scnc3c2)c(=O)c2ccc(Cl)cc2n1-c1ccccc1

>  <Name>  (748) 
nan

>  <Pocket>  (748) 
nan

>  <ATP_Site>  (748) 
nan

>  <Peripheral>  (748) 
nan

>  <Num_H_Atoms_ProtBoundConf>  (748) 
nan

>  <Num_Resolved_Atoms>  (748) 
nan

>  <Num_Not_Resolved_Atoms>  (748) 
nan

$$$$
CHEMBL3679533
     RDKit          3D

  0  0  0  0  0  0  0  0  0  0999 V3000
M  V30 BEGIN CTAB
M  V30 COUNTS 58 62 0 0 0
M  V30 BEGIN ATOM
M  V30 1 C -3.539827 -0.730626 2.454234 0
M  V30 2 O -2.172679 -1.092234 2.470900 0
M  V30 3 C -1.690279 -2.134664 1.701383 0
M  V30 4 O -2.802736 -2.416128 1.199767 0
M  V30 5 C -0.379848 -2.727767 1.509395 0
M  V30 6 C 0.733513 -2.265022 2.157225 0
M  V30 7 C 0.709541 -1.129229 3.082345 0
M  V30 8 N 0.617177 0.145767 2.451930 0
M  V30 9 C 1.485470 0.774587 1.524847 0
M  V30 10 O 2.513817 0.121003 1.185752 0
M  V30 11 C 1.272847 2.097554 0.950613 0
M  V30 12 C 0.212868 2.939539 1.218134 0
M  V30 13 C 0.115416 4.185866 0.606762 0
M  V30 14 C 1.060237 4.639642 -0.286986 0
M  V30 15 C 0.947538 5.947294 -0.921429 0
M  V30 16 N -0.060623 6.814407 -0.704401 0
M  V30 17 C 0.095417 7.940315 -1.423528 0
M  V30 18 C 1.283659 7.759988 -2.137217 0
M  V30 19 N 1.761451 6.548533 -1.804569 0
M  V30 20 C 2.129925 3.818310 -0.572450 0
M  V30 21 C 2.193662 2.592203 0.051069 0
M  V30 22 C 1.889270 -2.967677 1.857939 0
M  V30 23 O 2.983247 -2.669705 2.367784 0
M  V30 24 C 1.885500 -4.032393 0.981429 0
M  V30 25 C 3.053549 -4.714876 0.701098 0
M  V30 26 C 3.076604 -5.784196 -0.172923 0
M  V30 27 C 1.911595 -6.193960 -0.790250 0
M  V30 28 Cl 1.829675 -7.537348 -1.914632 0
M  V30 29 C 0.739005 -5.508569 -0.508675 0
M  V30 30 C 0.718253 -4.436779 0.367908 0
M  V30 31 N -0.424136 -3.773850 0.638382 0
M  V30 32 C -1.571251 -4.235441 -0.017297 0
M  V30 33 C -2.360098 -5.149447 0.614860 0
M  V30 34 C -3.526527 -5.713242 0.120368 0
M  V30 35 C -3.910062 -5.295377 -1.136721 0
M  V30 36 C -3.148119 -4.365817 -1.832060 0
M  V30 37 C -1.990483 -3.835208 -1.288826 0
M  V30 38 H -4.205828 -1.495613 2.892018 0
M  V30 39 H -3.614128 0.231531 3.032103 0
M  V30 40 H -3.839955 -0.543444 1.386886 0
M  V30 41 H 1.676323 -1.169098 3.668316 0
M  V30 42 H -0.072767 -1.208296 3.859506 0
M  V30 43 H -0.210049 0.778484 2.672096 0
M  V30 44 H -0.537918 2.606735 1.913617 0
M  V30 45 H -0.723456 4.832437 0.829354 0
M  V30 46 H -0.601632 8.793040 -1.410980 0
M  V30 47 H 1.652548 8.526085 -2.805749 0
M  V30 48 H 2.629986 6.146471 -2.179314 0
M  V30 49 H 2.873647 4.162138 -1.268280 0
M  V30 50 H 3.064467 2.007673 -0.227363 0
M  V30 51 H 3.986668 -4.431813 1.158301 0
M  V30 52 H 4.003704 -6.330769 -0.399596 0
M  V30 53 H -0.179848 -5.817048 -0.983657 0
M  V30 54 H -2.086333 -5.506026 1.618353 0
M  V30 55 H -4.110286 -6.436494 0.672925 0
M  V30 56 H -4.812048 -5.677924 -1.616207 0
M  V30 57 H -3.426834 -4.015336 -2.830056 0
M  V30 58 H -1.364223 -3.106038 -1.797173 0
M  V30 END ATOM
M  V30 BEGIN BOND
M  V30 1 1 1 2
M  V30 2 1 2 3
M  V30 3 2 3 4
M  V30 4 1 3 5
M  V30 5 2 5 6
M  V30 6 1 6 7
M  V30 7 1 7 8
M  V30 8 1 8 9
M  V30 9 2 9 10
M  V30 10 1 9 11
M  V30 11 2 11 12
M  V30 12 1 12 13
M  V30 13 2 13 14
M  V30 14 1 14 15
M  V30 15 2 15 16
M  V30 16 1 16 17
M  V30 17 2 17 18
M  V30 18 1 18 19
M  V30 19 1 14 20
M  V30 20 2 20 21
M  V30 21 1 6 22
M  V30 22 2 22 23
M  V30 23 1 22 24
M  V30 24 2 24 25
M  V30 25 1 25 26
M  V30 26 2 26 27
M  V30 27 1 27 28
M  V30 28 1 27 29
M  V30 29 2 29 30
M  V30 30 1 30 31
M  V30 31 1 31 32
M  V30 32 2 32 33
M  V30 33 1 33 34
M  V30 34 2 34 35
M  V30 35 1 35 36
M  V30 36 2 36 37
M  V30 37 1 31 5
M  V30 38 1 37 32
M  V30 39 1 21 11
M  V30 40 1 30 24
M  V30 41 1 19 15
M  V30 42 1 1 38
M  V30 43 1 1 39
M  V30 44 1 1 40
M  V30 45 1 7 41
M  V30 46 1 7 42
M  V30 47 1 8 43
M  V30 48 1 12 44
M  V30 49 1 13 45
M  V30 50 1 17 46
M  V30 51 1 18 47
M  V30 52 1 19 48
M  V30 53 1 20 49
M  V30 54 1 21 50
M  V30 55 1 25 51
M  V30 56 1 26 52
M  V30 57 1 29 53
M  V30 58 1 33 54
M  V30 59 1 34 55
M  V30 60 1 35 56
M  V30 61 1 36 57
M  V30 62 1 37 58
M  V30 END BOND
M  V30 END CTAB
M  END
>  <Dataset>  (749) 
ChEMBL_Kinases

>  <Ligand_Instance>  (749) 
nan

>  <PDB_ID>  (749) 
nan

>  <Standardized_SMILES>  (749) 
COC(=O)c1c(CNC(=O)c2ccc(-c3ncc[nH]3)cc2)c(=O)c2ccc(Cl)cc2n1-c1ccccc1

>  <Name>  (749) 
nan

>  <Pocket>  (749) 
nan

>  <ATP_Site>  (749) 
nan

>  <Peripheral>  (749) 
nan

>  <Num_H_Atoms_ProtBoundConf>  (749) 
nan

>  <Num_Resolved_Atoms>  (749) 
nan

>  <Num_Not_Resolved_Atoms>  (749) 
nan

$$$$
CHEMBL3679534
     RDKit          3D

  0  0  0  0  0  0  0  0  0  0999 V3000
M  V30 BEGIN CTAB
M  V30 COUNTS 56 59 0 0 0
M  V30 BEGIN ATOM
M  V30 1 C -2.102021 -2.063025 3.293050 0
M  V30 2 O -1.246235 -2.520682 2.286983 0
M  V30 3 C -0.133022 -1.849837 1.808297 0
M  V30 4 O -0.441324 -0.979163 2.633052 0
M  V30 5 C 0.742472 -2.345581 0.761168 0
M  V30 6 C 1.821278 -1.593426 0.366120 0
M  V30 7 C 2.133811 -0.274127 0.976569 0
M  V30 8 N 1.213870 0.698173 0.444225 0
M  V30 9 C 1.442826 1.998992 0.970709 0
M  V30 10 O 2.357515 2.194160 1.796558 0
M  V30 11 C 0.635834 3.150219 0.579898 0
M  V30 12 C 0.933825 4.385566 1.120468 0
M  V30 13 C 0.218455 5.534550 0.804658 0
M  V30 14 C -0.832367 5.434192 -0.085905 0
M  V30 15 S -1.750440 6.876142 -0.502329 0
M  V30 16 N -3.067507 7.147915 0.571983 0
M  V30 17 O -2.303528 6.669670 -1.900287 0
M  V30 18 O -0.901683 8.105189 -0.544654 0
M  V30 19 C -1.171503 4.206893 -0.658365 0
M  V30 20 C -0.422213 3.103723 -0.303725 0
M  V30 21 C 2.638788 -2.082938 -0.630783 0
M  V30 22 O 3.641896 -1.452399 -1.043356 0
M  V30 23 C 2.303013 -3.293310 -1.150669 0
M  V30 24 C 3.112193 -3.802807 -2.154501 0
M  V30 25 C 2.822272 -5.013906 -2.713379 0
M  V30 26 C 1.730336 -5.737496 -2.288849 0
M  V30 27 Cl 1.339030 -7.291505 -2.990274 0
M  V30 28 C 0.912644 -5.240506 -1.286218 0
M  V30 29 C 1.205583 -4.004251 -0.713212 0
M  V30 30 N 0.400095 -3.541078 0.256482 0
M  V30 31 C -0.726956 -4.290573 0.693210 0
M  V30 32 C -0.654785 -5.249488 1.684326 0
M  V30 33 C -1.768928 -5.974877 2.099630 0
M  V30 34 C -2.965131 -5.694530 1.473521 0
M  V30 35 C -3.064651 -4.741806 0.480877 0
M  V30 36 C -1.949392 -4.040277 0.090082 0
M  V30 37 H -2.917411 -2.815819 3.479951 0
M  V30 38 H -1.492004 -1.954482 4.230676 0
M  V30 39 H -2.560256 -1.113566 2.957584 0
M  V30 40 H 2.029416 -0.419624 2.068893 0
M  V30 41 H 3.175710 0.040351 0.770183 0
M  V30 42 H 0.451344 0.524288 -0.247247 0
M  V30 43 H 1.756499 4.501483 1.826770 0
M  V30 44 H 0.509123 6.472622 1.268076 0
M  V30 45 H -3.252125 6.282602 1.157511 0
M  V30 46 H -2.759831 7.861314 1.269777 0
M  V30 47 H -2.000840 4.133418 -1.359699 0
M  V30 48 H -0.675066 2.150050 -0.740115 0
M  V30 49 H 3.999952 -3.281380 -2.543635 0
M  V30 50 H 3.420550 -5.454469 -3.497951 0
M  V30 51 H 0.060750 -5.831221 -0.972114 0
M  V30 52 H 0.315258 -5.418806 2.133379 0
M  V30 53 H -1.577155 -6.692030 2.880352 0
M  V30 54 H -3.788892 -6.291982 1.842563 0
M  V30 55 H -4.066317 -4.628988 0.079778 0
M  V30 56 H -2.109253 -3.297421 -0.707246 0
M  V30 END ATOM
M  V30 BEGIN BOND
M  V30 1 1 1 2
M  V30 2 1 2 3
M  V30 3 2 3 4
M  V30 4 1 3 5
M  V30 5 2 5 6
M  V30 6 1 6 7
M  V30 7 1 7 8
M  V30 8 1 8 9
M  V30 9 2 9 10
M  V30 10 1 9 11
M  V30 11 2 11 12
M  V30 12 1 12 13
M  V30 13 2 13 14
M  V30 14 1 14 15
M  V30 15 1 15 16
M  V30 16 2 15 17
M  V30 17 2 15 18
M  V30 18 1 14 19
M  V30 19 2 19 20
M  V30 20 1 6 21
M  V30 21 2 21 22
M  V30 22 1 21 23
M  V30 23 2 23 24
M  V30 24 1 24 25
M  V30 25 2 25 26
M  V30 26 1 26 27
M  V30 27 1 26 28
M  V30 28 2 28 29
M  V30 29 1 29 30
M  V30 30 1 30 31
M  V30 31 2 31 32
M  V30 32 1 32 33
M  V30 33 2 33 34
M  V30 34 1 34 35
M  V30 35 2 35 36
M  V30 36 1 30 5
M  V30 37 1 36 31
M  V30 38 1 20 11
M  V30 39 1 29 23
M  V30 40 1 1 37
M  V30 41 1 1 38
M  V30 42 1 1 39
M  V30 43 1 7 40
M  V30 44 1 7 41
M  V30 45 1 8 42
M  V30 46 1 12 43
M  V30 47 1 13 44
M  V30 48 1 16 45
M  V30 49 1 16 46
M  V30 50 1 19 47
M  V30 51 1 20 48
M  V30 52 1 24 49
M  V30 53 1 25 50
M  V30 54 1 28 51
M  V30 55 1 32 52
M  V30 56 1 33 53
M  V30 57 1 34 54
M  V30 58 1 35 55
M  V30 59 1 36 56
M  V30 END BOND
M  V30 END CTAB
M  END
>  <Dataset>  (750) 
ChEMBL_Kinases

>  <Ligand_Instance>  (750) 
nan

>  <PDB_ID>  (750) 
nan

>  <Standardized_SMILES>  (750) 
COC(=O)c1c(CNC(=O)c2ccc(S(N)(=O)=O)cc2)c(=O)c2ccc(Cl)cc2n1-c1ccccc1

>  <Name>  (750) 
nan

>  <Pocket>  (750) 
nan

>  <ATP_Site>  (750) 
nan

>  <Peripheral>  (750) 
nan

>  <Num_H_Atoms_ProtBoundConf>  (750) 
nan

>  <Num_Resolved_Atoms>  (750) 
nan

>  <Num_Not_Resolved_Atoms>  (750) 
nan

$$$$
CHEMBL3679535
     RDKit          3D

  0  0  0  0  0  0  0  0  0  0999 V3000
M  V30 BEGIN CTAB
M  V30 COUNTS 60 64 0 0 0
M  V30 BEGIN ATOM
M  V30 1 C -3.293578 -2.234423 0.005291 0
M  V30 2 O -2.108346 -2.385547 0.763354 0
M  V30 3 C -0.986843 -2.907175 0.150944 0
M  V30 4 O -1.601865 -3.022304 -0.921340 0
M  V30 5 C 0.383811 -3.233763 0.495560 0
M  V30 6 C 0.900255 -3.032360 1.755100 0
M  V30 7 C 0.102359 -2.468892 2.852994 0
M  V30 8 N -0.091655 -1.046174 2.686207 0
M  V30 9 C 0.921988 -0.058588 2.610216 0
M  V30 10 O 2.125333 -0.327819 2.681293 0
M  V30 11 C 0.527060 1.343375 2.440478 0
M  V30 12 C 1.301198 2.472370 2.342301 0
M  V30 13 N 0.686053 3.631755 2.192776 0
M  V30 14 C -0.481626 3.801905 2.133715 0
M  V30 15 N -1.431763 4.851302 1.985258 0
M  V30 16 C -1.818725 5.185603 0.611677 0
M  V30 17 C -3.332629 4.970631 0.561879 0
M  V30 18 O -3.978914 5.737624 1.524821 0
M  V30 19 C -3.603104 5.334785 2.804252 0
M  V30 20 C -2.112376 5.675387 2.941720 0
M  V30 21 S -1.173033 2.021980 2.306732 0
M  V30 22 C 2.220311 -3.413102 1.897987 0
M  V30 23 O 2.814753 -3.290380 2.980041 0
M  V30 24 C 2.971238 -3.950880 0.872795 0
M  V30 25 C 4.304807 -4.322397 1.065173 0
M  V30 26 C 5.032255 -4.860947 0.015986 0
M  V30 27 C 4.417073 -5.019985 -1.208533 0
M  V30 28 Cl 5.279009 -5.696186 -2.580303 0
M  V30 29 C 3.096175 -4.653690 -1.404902 0
M  V30 30 C 2.347545 -4.109915 -0.360833 0
M  V30 31 N 1.054210 -3.751515 -0.549294 0
M  V30 32 C 0.543494 -3.962039 -1.837674 0
M  V30 33 C 0.061664 -5.141025 -2.362076 0
M  V30 34 C -0.418740 -5.225837 -3.652589 0
M  V30 35 C -0.426175 -4.091196 -4.472241 0
M  V30 36 C 0.054093 -2.904542 -3.957460 0
M  V30 37 C 0.539050 -2.823358 -2.651656 0
M  V30 38 H -3.151375 -1.534495 -0.848603 0
M  V30 39 H -3.670564 -3.206659 -0.332652 0
M  V30 40 H -4.040446 -1.801289 0.700966 0
M  V30 41 H 0.631334 -2.637229 3.839725 0
M  V30 42 H -0.871543 -2.953399 2.981924 0
M  V30 43 H -1.084212 -0.675099 2.614585 0
M  V30 44 H 2.390118 2.364087 2.391823 0
M  V30 45 H -1.361479 4.544164 -0.138756 0
M  V30 46 H -1.600550 6.260041 0.379104 0
M  V30 47 H -3.765254 5.252053 -0.419874 0
M  V30 48 H -3.520703 3.885330 0.699718 0
M  V30 49 H -3.766795 4.237905 2.953544 0
M  V30 50 H -4.167093 5.919624 3.532194 0
M  V30 51 H -1.769127 5.525285 3.984191 0
M  V30 52 H -2.014453 6.733970 2.627469 0
M  V30 53 H 4.759996 -4.190849 2.019867 0
M  V30 54 H 6.067743 -5.165572 0.112485 0
M  V30 55 H 2.642058 -4.793277 -2.385519 0
M  V30 56 H 0.088192 -5.992467 -1.687922 0
M  V30 57 H -0.794856 -6.174847 -4.040274 0
M  V30 58 H -0.800875 -4.121559 -5.504033 0
M  V30 59 H 0.032888 -2.056809 -4.612910 0
M  V30 60 H 0.899310 -1.856551 -2.321828 0
M  V30 END ATOM
M  V30 BEGIN BOND
M  V30 1 1 1 2
M  V30 2 1 2 3
M  V30 3 2 3 4
M  V30 4 1 3 5
M  V30 5 2 5 6
M  V30 6 1 6 7
M  V30 7 1 7 8
M  V30 8 1 8 9
M  V30 9 2 9 10
M  V30 10 1 9 11
M  V30 11 2 11 12
M  V30 12 1 12 13
M  V30 13 2 13 14
M  V30 14 1 14 15
M  V30 15 1 15 16
M  V30 16 1 16 17
M  V30 17 1 17 18
M  V30 18 1 18 19
M  V30 19 1 19 20
M  V30 20 1 14 21
M  V30 21 1 6 22
M  V30 22 2 22 23
M  V30 23 1 22 24
M  V30 24 2 24 25
M  V30 25 1 25 26
M  V30 26 2 26 27
M  V30 27 1 27 28
M  V30 28 1 27 29
M  V30 29 2 29 30
M  V30 30 1 30 31
M  V30 31 1 31 32
M  V30 32 2 32 33
M  V30 33 1 33 34
M  V30 34 2 34 35
M  V30 35 1 35 36
M  V30 36 2 36 37
M  V30 37 1 31 5
M  V30 38 1 37 32
M  V30 39 1 21 11
M  V30 40 1 30 24
M  V30 41 1 20 15
M  V30 42 1 1 38
M  V30 43 1 1 39
M  V30 44 1 1 40
M  V30 45 1 7 41
M  V30 46 1 7 42
M  V30 47 1 8 43
M  V30 48 1 12 44
M  V30 49 1 16 45
M  V30 50 1 16 46
M  V30 51 1 17 47
M  V30 52 1 17 48
M  V30 53 1 19 49
M  V30 54 1 19 50
M  V30 55 1 20 51
M  V30 56 1 20 52
M  V30 57 1 25 53
M  V30 58 1 26 54
M  V30 59 1 29 55
M  V30 60 1 33 56
M  V30 61 1 34 57
M  V30 62 1 35 58
M  V30 63 1 36 59
M  V30 64 1 37 60
M  V30 END BOND
M  V30 END CTAB
M  END
>  <Dataset>  (751) 
ChEMBL_Kinases

>  <Ligand_Instance>  (751) 
nan

>  <PDB_ID>  (751) 
nan

>  <Standardized_SMILES>  (751) 
COC(=O)c1c(CNC(=O)c2cnc(N3CCOCC3)s2)c(=O)c2ccc(Cl)cc2n1-c1ccccc1

>  <Name>  (751) 
nan

>  <Pocket>  (751) 
nan

>  <ATP_Site>  (751) 
nan

>  <Peripheral>  (751) 
nan

>  <Num_H_Atoms_ProtBoundConf>  (751) 
nan

>  <Num_Resolved_Atoms>  (751) 
nan

>  <Num_Not_Resolved_Atoms>  (751) 
nan

$$$$
CHEMBL3679527
     RDKit          3D

  0  0  0  0  0  0  0  0  0  0999 V3000
M  V30 BEGIN CTAB
M  V30 COUNTS 57 61 0 0 0
M  V30 BEGIN ATOM
M  V30 1 O -0.160967 -4.090185 2.270006 0
M  V30 2 C -0.271046 -3.197912 1.389974 0
M  V30 3 N -0.046647 -1.847409 1.738792 0
M  V30 4 C 0.310968 -1.400667 3.072241 0
M  V30 5 C 0.454670 0.080648 3.030046 0
M  V30 6 C 1.608955 0.835803 3.022106 0
M  V30 7 N 1.524894 2.179855 2.980554 0
M  V30 8 C 2.754898 2.899825 2.974840 0
M  V30 9 C 3.412813 3.132207 1.772041 0
M  V30 10 C 4.584560 3.829911 1.859591 0
M  V30 11 C 5.145134 4.308012 3.035191 0
M  V30 12 C 4.468931 4.061017 4.207196 0
M  V30 13 C 3.274482 3.358316 4.184991 0
M  V30 14 F 2.605375 3.111695 5.328460 0
M  V30 15 C 0.352272 2.837110 2.945658 0
M  V30 16 C 0.354510 4.229693 2.903406 0
M  V30 17 C -0.885902 4.871258 2.867885 0
M  V30 18 F -0.914249 6.223614 2.826386 0
M  V30 19 C -2.096779 4.205290 2.872457 0
M  V30 20 C -2.032422 2.816644 2.915443 0
M  V30 21 C -0.832760 2.136477 2.951582 0
M  V30 22 C -0.778095 0.742109 2.994318 0
M  V30 23 O -1.897686 0.150889 2.997788 0
M  V30 24 C -0.630215 -3.652282 0.053361 0
M  V30 25 C -0.837474 -4.998385 -0.156893 0
M  V30 26 C -1.184049 -5.524028 -1.401026 0
M  V30 27 C -1.324706 -4.639242 -2.474254 0
M  V30 28 N -1.672505 -4.967918 -3.814552 0
M  V30 29 C -1.781614 -3.992985 -4.910749 0
M  V30 30 C -3.255925 -3.978001 -5.262831 0
M  V30 31 O -3.502577 -5.189557 -5.892153 0
M  V30 32 C -3.244529 -6.306046 -5.147227 0
M  V30 33 C -1.976541 -6.274155 -4.337352 0
M  V30 34 N -1.119385 -3.311046 -2.263561 0
M  V30 35 C -0.785984 -2.839349 -1.048956 0
M  V30 36 H -0.159144 -1.182111 0.952288 0
M  V30 37 H -0.436680 -1.668557 3.819830 0
M  V30 38 H 1.322750 -1.824583 3.294597 0
M  V30 39 H 2.499548 0.253029 3.051045 0
M  V30 40 H 3.020266 2.780902 0.817703 0
M  V30 41 H 5.129886 4.032082 0.936958 0
M  V30 42 H 6.085456 4.855373 3.007671 0
M  V30 43 H 4.897325 4.429810 5.133513 0
M  V30 44 H 1.268283 4.805782 2.897535 0
M  V30 45 H -3.030985 4.745273 2.844013 0
M  V30 46 H -2.974196 2.246870 2.920723 0
M  V30 47 H -0.753204 -5.755936 0.603611 0
M  V30 48 H -1.358778 -6.542622 -1.638757 0
M  V30 49 H -1.414592 -3.003446 -4.559819 0
M  V30 50 H -1.236159 -4.328361 -5.816164 0
M  V30 51 H -3.508709 -3.185219 -6.003286 0
M  V30 52 H -3.816576 -3.842878 -4.327001 0
M  V30 53 H -3.154870 -7.168887 -5.848375 0
M  V30 54 H -4.126952 -6.553246 -4.492691 0
M  V30 55 H -1.081202 -6.602424 -4.933185 0
M  V30 56 H -2.096508 -7.021475 -3.526304 0
M  V30 57 H -0.633350 -1.784335 -0.927577 0
M  V30 END ATOM
M  V30 BEGIN BOND
M  V30 1 2 1 2
M  V30 2 1 2 3
M  V30 3 1 3 4
M  V30 4 1 4 5
M  V30 5 2 5 6
M  V30 6 1 6 7
M  V30 7 1 7 8
M  V30 8 2 8 9
M  V30 9 1 9 10
M  V30 10 2 10 11
M  V30 11 1 11 12
M  V30 12 2 12 13
M  V30 13 1 13 14
M  V30 14 1 7 15
M  V30 15 2 15 16
M  V30 16 1 16 17
M  V30 17 1 17 18
M  V30 18 2 17 19
M  V30 19 1 19 20
M  V30 20 2 20 21
M  V30 21 1 21 22
M  V30 22 2 22 23
M  V30 23 1 2 24
M  V30 24 2 24 25
M  V30 25 1 25 26
M  V30 26 2 26 27
M  V30 27 1 27 28
M  V30 28 1 28 29
M  V30 29 1 29 30
M  V30 30 1 30 31
M  V30 31 1 31 32
M  V30 32 1 32 33
M  V30 33 1 27 34
M  V30 34 2 34 35
M  V30 35 1 22 5
M  V30 36 1 35 24
M  V30 37 1 13 8
M  V30 38 1 21 15
M  V30 39 1 33 28
M  V30 40 1 3 36
M  V30 41 1 4 37
M  V30 42 1 4 38
M  V30 43 1 6 39
M  V30 44 1 9 40
M  V30 45 1 10 41
M  V30 46 1 11 42
M  V30 47 1 12 43
M  V30 48 1 16 44
M  V30 49 1 19 45
M  V30 50 1 20 46
M  V30 51 1 25 47
M  V30 52 1 26 48
M  V30 53 1 29 49
M  V30 54 1 29 50
M  V30 55 1 30 51
M  V30 56 1 30 52
M  V30 57 1 32 53
M  V30 58 1 32 54
M  V30 59 1 33 55
M  V30 60 1 33 56
M  V30 61 1 35 57
M  V30 END BOND
M  V30 END CTAB
M  END
>  <Dataset>  (752) 
ChEMBL_Kinases

>  <Ligand_Instance>  (752) 
nan

>  <PDB_ID>  (752) 
nan

>  <Standardized_SMILES>  (752) 
O=C(NCc1cn(-c2ccccc2F)c2cc(F)ccc2c1=O)c1ccc(N2CCOCC2)nc1

>  <Name>  (752) 
nan

>  <Pocket>  (752) 
nan

>  <ATP_Site>  (752) 
nan

>  <Peripheral>  (752) 
nan

>  <Num_H_Atoms_ProtBoundConf>  (752) 
nan

>  <Num_Resolved_Atoms>  (752) 
nan

>  <Num_Not_Resolved_Atoms>  (752) 
nan

$$$$
CHEMBL3673583
     RDKit          3D

  0  0  0  0  0  0  0  0  0  0999 V3000
M  V30 BEGIN CTAB
M  V30 COUNTS 39 42 0 0 0
M  V30 BEGIN ATOM
M  V30 1 C 4.754959 -3.279645 -4.071086 0
M  V30 2 C 3.871150 -2.118523 -3.795368 0
M  V30 3 C 2.868374 -2.052228 -2.816459 0
M  V30 4 C 2.220302 -0.805953 -2.820737 0
M  V30 5 N 1.187182 -0.643739 -1.854356 0
M  V30 6 C -0.208316 -0.887712 -1.908134 0
M  V30 7 O -0.465220 -1.312404 -3.051983 0
M  V30 8 C -1.040711 -0.631857 -0.742382 0
M  V30 9 C -2.390667 -0.849154 -0.907525 0
M  V30 10 C -3.243012 -0.632423 0.172080 0
M  V30 11 C -2.654926 -0.205518 1.354140 0
M  V30 12 N -3.234049 0.076959 2.534501 0
M  V30 13 C -2.282193 0.467236 3.437520 0
M  V30 14 N -1.100562 0.409930 2.758228 0
M  V30 15 C -1.299518 0.004203 1.489644 0
M  V30 16 C -0.459732 -0.211876 0.418449 0
M  V30 17 C 0.229348 0.729044 3.312601 0
M  V30 18 C 0.218875 0.182055 4.731801 0
M  V30 19 C -0.233643 1.234708 5.720305 0
M  V30 20 N -1.678155 1.226430 5.875684 0
M  V30 21 C -2.561421 0.856040 4.827111 0
M  V30 22 O -3.804918 0.831833 5.042077 0
M  V30 23 N 2.891818 -0.179907 -3.832877 0
M  V30 24 O 3.791412 -0.943914 -4.338127 0
M  V30 25 H 5.534310 -2.961538 -4.794769 0
M  V30 26 H 5.312561 -3.443756 -3.109742 0
M  V30 27 H 4.218313 -4.200060 -4.344325 0
M  V30 28 H 2.703994 -2.935387 -2.182296 0
M  V30 29 H 1.719237 -0.268766 -1.017022 0
M  V30 30 H -2.790921 -1.183090 -1.857551 0
M  V30 31 H -4.314722 -0.790051 0.094102 0
M  V30 32 H 0.569388 -0.024530 0.599458 0
M  V30 33 H 0.328022 1.835009 3.394862 0
M  V30 34 H 1.042811 0.285565 2.713492 0
M  V30 35 H 1.178016 -0.217276 5.058777 0
M  V30 36 H -0.532409 -0.641105 4.813533 0
M  V30 37 H 0.166352 2.194207 5.381940 0
M  V30 38 H 0.197961 0.957468 6.701307 0
M  V30 39 H -2.122326 1.488921 6.759242 0
M  V30 END ATOM
M  V30 BEGIN BOND
M  V30 1 1 1 2
M  V30 2 2 2 3
M  V30 3 1 3 4
M  V30 4 1 4 5
M  V30 5 1 5 6
M  V30 6 2 6 7
M  V30 7 1 6 8
M  V30 8 2 8 9
M  V30 9 1 9 10
M  V30 10 2 10 11
M  V30 11 1 11 12
M  V30 12 2 12 13
M  V30 13 1 13 14
M  V30 14 1 14 15
M  V30 15 2 15 16
M  V30 16 1 14 17
M  V30 17 1 17 18
M  V30 18 1 18 19
M  V30 19 1 19 20
M  V30 20 1 20 21
M  V30 21 2 21 22
M  V30 22 2 4 23
M  V30 23 1 23 24
M  V30 24 1 24 2
M  V30 25 1 16 8
M  V30 26 1 15 11
M  V30 27 1 21 13
M  V30 28 1 1 25
M  V30 29 1 1 26
M  V30 30 1 1 27
M  V30 31 1 3 28
M  V30 32 1 5 29
M  V30 33 1 9 30
M  V30 34 1 10 31
M  V30 35 1 16 32
M  V30 36 1 17 33
M  V30 37 1 17 34
M  V30 38 1 18 35
M  V30 39 1 18 36
M  V30 40 1 19 37
M  V30 41 1 19 38
M  V30 42 1 20 39
M  V30 END BOND
M  V30 END CTAB
M  END
>  <Dataset>  (753) 
ChEMBL_Kinases

>  <Ligand_Instance>  (753) 
nan

>  <PDB_ID>  (753) 
nan

>  <Standardized_SMILES>  (753) 
Cc1cc(NC(=O)c2ccc3nc4n(c3c2)CCCNC4=O)no1

>  <Name>  (753) 
nan

>  <Pocket>  (753) 
nan

>  <ATP_Site>  (753) 
nan

>  <Peripheral>  (753) 
nan

>  <Num_H_Atoms_ProtBoundConf>  (753) 
nan

>  <Num_Resolved_Atoms>  (753) 
nan

>  <Num_Not_Resolved_Atoms>  (753) 
nan

$$$$
CHEMBL3673582
     RDKit          3D

  0  0  0  0  0  0  0  0  0  0999 V3000
M  V30 BEGIN CTAB
M  V30 COUNTS 46 50 0 0 0
M  V30 BEGIN ATOM
M  V30 1 O 1.414167 -0.124952 1.237137 0
M  V30 2 C 0.476004 0.671455 1.556800 0
M  V30 3 N 0.873022 2.034786 1.477530 0
M  V30 4 C 2.238276 2.161807 1.055023 0
M  V30 5 C 2.639278 2.267275 -0.284607 0
M  V30 6 C 4.021192 2.370790 -0.267657 0
M  V30 7 C 4.843275 2.500045 -1.465968 0
M  V30 8 C 4.323946 2.532575 -2.743914 0
M  V30 9 C 5.167554 2.656264 -3.818294 0
M  V30 10 C 6.534647 2.753453 -3.716854 0
M  V30 11 C 7.047676 2.720789 -2.444463 0
M  V30 12 C 6.200402 2.595473 -1.346137 0
M  V30 13 N 4.380799 2.324629 1.040182 0
M  V30 14 O 3.330668 2.203056 1.792363 0
M  V30 15 C -0.863769 0.243732 1.961858 0
M  V30 16 C -1.871157 1.122682 2.306839 0
M  V30 17 C -3.120934 0.651896 2.682383 0
M  V30 18 C -3.349635 -0.714837 2.708061 0
M  V30 19 N -4.436662 -1.450782 3.023675 0
M  V30 20 C -4.090955 -2.755362 2.871590 0
M  V30 21 N -2.794706 -2.811362 2.463759 0
M  V30 22 C -2.323461 -1.551083 2.358591 0
M  V30 23 C -1.061915 -1.137917 1.977428 0
M  V30 24 C -2.132066 -4.073457 2.214096 0
M  V30 25 C -2.791759 -4.994729 1.286879 0
M  V30 26 C -4.016219 -5.702466 1.621941 0
M  V30 27 N -4.873312 -5.164349 2.641220 0
M  V30 28 C -5.077176 -3.825766 3.144722 0
M  V30 29 O -6.096439 -3.551600 3.822640 0
M  V30 30 H 0.187878 2.783573 1.716145 0
M  V30 31 H 1.959835 2.262089 -1.108667 0
M  V30 32 H 3.242864 2.456006 -2.829871 0
M  V30 33 H 4.718480 2.678404 -4.813890 0
M  V30 34 H 7.196934 2.850565 -4.559907 0
M  V30 35 H 8.122644 2.795931 -2.338494 0
M  V30 36 H 6.648103 2.573513 -0.352039 0
M  V30 37 H -1.676620 2.186074 2.281584 0
M  V30 38 H -3.897453 1.350949 2.949236 0
M  V30 39 H -0.290396 -1.850383 1.711795 0
M  V30 40 H -1.127983 -3.839406 1.804327 0
M  V30 41 H -1.943284 -4.569842 3.209460 0
M  V30 42 H -2.927815 -4.435994 0.312717 0
M  V30 43 H -2.003191 -5.753822 0.999493 0
M  V30 44 H -3.790506 -6.768496 1.924272 0
M  V30 45 H -4.636286 -5.856226 0.688695 0
M  V30 46 H -5.485652 -5.861450 3.136222 0
M  V30 END ATOM
M  V30 BEGIN BOND
M  V30 1 2 1 2
M  V30 2 1 2 3
M  V30 3 1 3 4
M  V30 4 2 4 5
M  V30 5 1 5 6
M  V30 6 1 6 7
M  V30 7 2 7 8
M  V30 8 1 8 9
M  V30 9 2 9 10
M  V30 10 1 10 11
M  V30 11 2 11 12
M  V30 12 2 6 13
M  V30 13 1 13 14
M  V30 14 1 2 15
M  V30 15 2 15 16
M  V30 16 1 16 17
M  V30 17 2 17 18
M  V30 18 1 18 19
M  V30 19 2 19 20
M  V30 20 1 20 21
M  V30 21 1 21 22
M  V30 22 2 22 23
M  V30 23 1 21 24
M  V30 24 1 24 25
M  V30 25 1 25 26
M  V30 26 1 26 27
M  V30 27 1 27 28
M  V30 28 2 28 29
M  V30 29 1 14 4
M  V30 30 1 23 15
M  V30 31 1 12 7
M  V30 32 1 22 18
M  V30 33 1 28 20
M  V30 34 1 3 30
M  V30 35 1 5 31
M  V30 36 1 8 32
M  V30 37 1 9 33
M  V30 38 1 10 34
M  V30 39 1 11 35
M  V30 40 1 12 36
M  V30 41 1 16 37
M  V30 42 1 17 38
M  V30 43 1 23 39
M  V30 44 1 24 40
M  V30 45 1 24 41
M  V30 46 1 25 42
M  V30 47 1 25 43
M  V30 48 1 26 44
M  V30 49 1 26 45
M  V30 50 1 27 46
M  V30 END BOND
M  V30 END CTAB
M  END
>  <Dataset>  (754) 
ChEMBL_Kinases

>  <Ligand_Instance>  (754) 
nan

>  <PDB_ID>  (754) 
nan

>  <Standardized_SMILES>  (754) 
O=C(Nc1cc(-c2ccccc2)no1)c1ccc2nc3n(c2c1)CCCNC3=O

>  <Name>  (754) 
nan

>  <Pocket>  (754) 
nan

>  <ATP_Site>  (754) 
nan

>  <Peripheral>  (754) 
nan

>  <Num_H_Atoms_ProtBoundConf>  (754) 
nan

>  <Num_Resolved_Atoms>  (754) 
nan

>  <Num_Not_Resolved_Atoms>  (754) 
nan

$$$$
CHEMBL3673581
     RDKit          3D

  0  0  0  0  0  0  0  0  0  0999 V3000
M  V30 BEGIN CTAB
M  V30 COUNTS 58 62 0 0 0
M  V30 BEGIN ATOM
M  V30 1 C 1.303132 -0.829270 4.440629 0
M  V30 2 C 2.608275 -1.108212 3.736911 0
M  V30 3 C 3.708679 -1.093802 4.773059 0
M  V30 4 N 2.588189 -2.401225 3.066820 0
M  V30 5 C 2.582326 -2.553801 1.728157 0
M  V30 6 N 2.593291 -1.583450 0.679956 0
M  V30 7 C 1.288534 -1.218117 0.310595 0
M  V30 8 O 0.376756 -1.812386 0.970172 0
M  V30 9 C 0.956379 -0.249224 -0.729495 0
M  V30 10 C 1.941764 0.394232 -1.448613 0
M  V30 11 C 1.606212 1.307102 -2.427743 0
M  V30 12 C 0.260066 1.523158 -2.629352 0
M  V30 13 N -0.306464 2.356541 -3.519198 0
M  V30 14 C -1.659519 2.281353 -3.406854 0
M  V30 15 N -1.974757 1.382703 -2.425796 0
M  V30 16 C -0.786622 0.922298 -1.954644 0
M  V30 17 C -0.369317 0.016190 -0.984963 0
M  V30 18 C -3.232980 0.906053 -1.876929 0
M  V30 19 C -3.455296 -0.516974 -2.362054 0
M  V30 20 C -3.239938 0.955692 -0.350379 0
M  V30 21 C -4.389238 1.730161 -2.335735 0
M  V30 22 C -4.724526 1.625305 -3.786893 0
M  V30 23 N -3.972512 2.626389 -4.529958 0
M  V30 24 C -2.633536 3.044266 -4.217493 0
M  V30 25 O -2.151324 4.155041 -4.630240 0
M  V30 26 N 2.562665 -3.891225 1.459392 0
M  V30 27 C 2.556430 -4.563895 2.644098 0
M  V30 28 C 2.538081 -5.915769 2.948632 0
M  V30 29 C 2.535628 -6.340724 4.267978 0
M  V30 30 C 2.551698 -5.403193 5.284903 0
M  V30 31 C 2.569968 -4.053156 4.958716 0
M  V30 32 C 2.572828 -3.603205 3.662088 0
M  V30 33 H 1.424209 0.106077 5.024796 0
M  V30 34 H 0.476023 -0.611229 3.723209 0
M  V30 35 H 1.036580 -1.605753 5.170722 0
M  V30 36 H 2.835559 -0.288281 3.024445 0
M  V30 37 H 4.307663 -2.038452 4.712969 0
M  V30 38 H 3.276692 -1.053082 5.788288 0
M  V30 39 H 4.358201 -0.203037 4.665129 0
M  V30 40 H 3.401190 -1.141961 0.187604 0
M  V30 41 H 2.989083 0.212701 -1.277190 0
M  V30 42 H 2.352011 1.822584 -3.002927 0
M  V30 43 H -1.107863 -0.500920 -0.410866 0
M  V30 44 H -2.912544 -0.633364 -3.303842 0
M  V30 45 H -4.535761 -0.686052 -2.412190 0
M  V30 46 H -3.050166 -1.260998 -1.648268 0
M  V30 47 H -4.104948 1.568324 0.040903 0
M  V30 48 H -2.350324 1.501435 -0.003724 0
M  V30 49 H -3.395049 -0.037056 0.109838 0
M  V30 50 H -4.221693 2.799205 -2.093157 0
M  V30 51 H -5.300413 1.418955 -1.766991 0
M  V30 52 H -5.801670 1.880778 -3.915580 0
M  V30 53 H -4.605317 0.616942 -4.198797 0
M  V30 54 H -4.309596 3.158778 -5.372668 0
M  V30 55 H 2.526416 -6.580636 2.105623 0
M  V30 56 H 2.520619 -7.421715 4.393076 0
M  V30 57 H 2.548747 -5.804563 6.284218 0
M  V30 58 H 2.582084 -3.345392 5.746881 0
M  V30 END ATOM
M  V30 BEGIN BOND
M  V30 1 1 1 2
M  V30 2 1 2 3
M  V30 3 1 2 4
M  V30 4 1 4 5
M  V30 5 1 5 6
M  V30 6 1 6 7
M  V30 7 2 7 8
M  V30 8 1 7 9
M  V30 9 2 9 10
M  V30 10 1 10 11
M  V30 11 2 11 12
M  V30 12 1 12 13
M  V30 13 2 13 14
M  V30 14 1 14 15
M  V30 15 1 15 16
M  V30 16 2 16 17
M  V30 17 1 15 18
M  V30 18 1 18 19
M  V30 19 1 18 20
M  V30 20 1 18 21
M  V30 21 1 21 22
M  V30 22 1 22 23
M  V30 23 1 23 24
M  V30 24 2 24 25
M  V30 25 2 5 26
M  V30 26 1 26 27
M  V30 27 2 27 28
M  V30 28 1 28 29
M  V30 29 2 29 30
M  V30 30 1 30 31
M  V30 31 2 31 32
M  V30 32 1 32 4
M  V30 33 1 17 9
M  V30 34 1 32 27
M  V30 35 1 16 12
M  V30 36 1 24 14
M  V30 37 1 1 33
M  V30 38 1 1 34
M  V30 39 1 1 35
M  V30 40 1 2 36
M  V30 41 1 3 37
M  V30 42 1 3 38
M  V30 43 1 3 39
M  V30 44 1 6 40
M  V30 45 1 10 41
M  V30 46 1 11 42
M  V30 47 1 17 43
M  V30 48 1 19 44
M  V30 49 1 19 45
M  V30 50 1 19 46
M  V30 51 1 20 47
M  V30 52 1 20 48
M  V30 53 1 20 49
M  V30 54 1 21 50
M  V30 55 1 21 51
M  V30 56 1 22 52
M  V30 57 1 22 53
M  V30 58 1 23 54
M  V30 59 1 28 55
M  V30 60 1 29 56
M  V30 61 1 30 57
M  V30 62 1 31 58
M  V30 END BOND
M  V30 END CTAB
M  END
>  <Dataset>  (755) 
ChEMBL_Kinases

>  <Ligand_Instance>  (755) 
nan

>  <PDB_ID>  (755) 
nan

>  <Standardized_SMILES>  (755) 
CC(C)n1c(NC(=O)c2ccc3nc4n(c3c2)C(C)(C)CCNC4=O)nc2ccccc21

>  <Name>  (755) 
nan

>  <Pocket>  (755) 
nan

>  <ATP_Site>  (755) 
nan

>  <Peripheral>  (755) 
nan

>  <Num_H_Atoms_ProtBoundConf>  (755) 
nan

>  <Num_Resolved_Atoms>  (755) 
nan

>  <Num_Not_Resolved_Atoms>  (755) 
nan

$$$$
CHEMBL3673580
     RDKit          3D

  0  0  0  0  0  0  0  0  0  0999 V3000
M  V30 BEGIN CTAB
M  V30 COUNTS 48 52 0 0 0
M  V30 BEGIN ATOM
M  V30 1 C 2.899721 -2.814510 2.585880 0
M  V30 2 C 2.869487 -3.818851 1.467459 0
M  V30 3 N 1.540497 -4.391795 1.312783 0
M  V30 4 C 0.528695 -3.954185 0.543370 0
M  V30 5 N 0.543008 -2.810465 -0.303320 0
M  V30 6 C 0.135739 -1.582945 0.254804 0
M  V30 7 O -0.201148 -1.654496 1.473905 0
M  V30 8 C 0.107223 -0.339471 -0.512729 0
M  V30 9 C 0.470239 -0.241208 -1.841594 0
M  V30 10 C 0.426957 0.956829 -2.526015 0
M  V30 11 C 0.015091 2.116546 -1.903989 0
M  V30 12 N -0.149227 3.411624 -2.235706 0
M  V30 13 C -0.600755 4.096300 -1.144973 0
M  V30 14 N -0.716808 3.206495 -0.122138 0
M  V30 15 C -0.340118 1.981031 -0.576282 0
M  V30 16 C -0.315831 0.809196 0.155830 0
M  V30 17 C -1.184299 3.629665 1.206193 0
M  V30 18 C -2.531926 4.247695 1.008390 0
M  V30 19 C -2.511027 5.740519 0.823084 0
M  V30 20 N -1.651587 6.196158 -0.221599 0
M  V30 21 C -0.870100 5.538108 -1.214203 0
M  V30 22 O -0.399745 6.204543 -2.171326 0
M  V30 23 N -0.523646 -4.784098 0.701493 0
M  V30 24 C -0.220924 -5.774366 1.572573 0
M  V30 25 C -0.914070 -6.860367 2.078988 0
M  V30 26 C -0.304735 -7.712151 2.981065 0
M  V30 27 C 1.005710 -7.426369 3.341759 0
M  V30 28 N 1.650116 -6.360710 2.829173 0
M  V30 29 C 1.091554 -5.511077 1.950934 0
M  V30 30 H 2.741090 -1.777591 2.231837 0
M  V30 31 H 2.135488 -3.087129 3.361110 0
M  V30 32 H 3.883749 -2.865449 3.088230 0
M  V30 33 H 3.570132 -4.651889 1.747300 0
M  V30 34 H 3.239632 -3.398535 0.514049 0
M  V30 35 H 0.843621 -2.876855 -1.300401 0
M  V30 36 H 0.796365 -1.130819 -2.354163 0
M  V30 37 H 0.714486 1.004636 -3.557679 0
M  V30 38 H -0.608054 0.780298 1.190572 0
M  V30 39 H -0.479378 4.435694 1.513049 0
M  V30 40 H -1.162298 2.785518 1.918705 0
M  V30 41 H -3.083309 4.080286 1.973369 0
M  V30 42 H -3.104535 3.703351 0.239733 0
M  V30 43 H -2.192929 6.187587 1.794211 0
M  V30 44 H -3.580052 6.028118 0.626785 0
M  V30 45 H -1.595541 7.238278 -0.249445 0
M  V30 46 H -1.931930 -7.048768 1.773792 0
M  V30 47 H -0.793056 -8.578492 3.413344 0
M  V30 48 H 1.502453 -8.093100 4.056517 0
M  V30 END ATOM
M  V30 BEGIN BOND
M  V30 1 1 1 2
M  V30 2 1 2 3
M  V30 3 1 3 4
M  V30 4 1 4 5
M  V30 5 1 5 6
M  V30 6 2 6 7
M  V30 7 1 6 8
M  V30 8 2 8 9
M  V30 9 1 9 10
M  V30 10 2 10 11
M  V30 11 1 11 12
M  V30 12 2 12 13
M  V30 13 1 13 14
M  V30 14 1 14 15
M  V30 15 2 15 16
M  V30 16 1 14 17
M  V30 17 1 17 18
M  V30 18 1 18 19
M  V30 19 1 19 20
M  V30 20 1 20 21
M  V30 21 2 21 22
M  V30 22 2 4 23
M  V30 23 1 23 24
M  V30 24 2 24 25
M  V30 25 1 25 26
M  V30 26 2 26 27
M  V30 27 1 27 28
M  V30 28 2 28 29
M  V30 29 1 29 3
M  V30 30 1 16 8
M  V30 31 1 29 24
M  V30 32 1 15 11
M  V30 33 1 21 13
M  V30 34 1 1 30
M  V30 35 1 1 31
M  V30 36 1 1 32
M  V30 37 1 2 33
M  V30 38 1 2 34
M  V30 39 1 5 35
M  V30 40 1 9 36
M  V30 41 1 10 37
M  V30 42 1 16 38
M  V30 43 1 17 39
M  V30 44 1 17 40
M  V30 45 1 18 41
M  V30 46 1 18 42
M  V30 47 1 19 43
M  V30 48 1 19 44
M  V30 49 1 20 45
M  V30 50 1 25 46
M  V30 51 1 26 47
M  V30 52 1 27 48
M  V30 END BOND
M  V30 END CTAB
M  END
>  <Dataset>  (756) 
ChEMBL_Kinases

>  <Ligand_Instance>  (756) 
nan

>  <PDB_ID>  (756) 
nan

>  <Standardized_SMILES>  (756) 
CCn1c(NC(=O)c2ccc3nc4n(c3c2)CCCNC4=O)nc2cccnc21

>  <Name>  (756) 
nan

>  <Pocket>  (756) 
nan

>  <ATP_Site>  (756) 
nan

>  <Peripheral>  (756) 
nan

>  <Num_H_Atoms_ProtBoundConf>  (756) 
nan

>  <Num_Resolved_Atoms>  (756) 
nan

>  <Num_Not_Resolved_Atoms>  (756) 
nan

$$$$
CHEMBL3673579
     RDKit          3D

  0  0  0  0  0  0  0  0  0  0999 V3000
M  V30 BEGIN CTAB
M  V30 COUNTS 60 64 0 0 0
M  V30 BEGIN ATOM
M  V30 1 C 4.035707 -0.966606 5.009974 0
M  V30 2 N 4.498115 -1.181411 3.657171 0
M  V30 3 C 5.891317 -1.504293 3.693156 0
M  V30 4 C 4.235429 -0.065424 2.807352 0
M  V30 5 C 2.800658 0.183387 2.514647 0
M  V30 6 C 2.055202 -0.901892 1.825296 0
M  V30 7 N 2.538219 -1.278980 0.536463 0
M  V30 8 C 2.062223 -0.603984 -0.552966 0
M  V30 9 N 1.116757 0.483712 -0.647599 0
M  V30 10 C -0.177948 -0.100311 -0.772674 0
M  V30 11 O -0.117193 -1.370131 -0.763150 0
M  V30 12 C -1.423853 0.679675 -0.896291 0
M  V30 13 C -1.511208 2.069834 -0.928624 0
M  V30 14 C -2.772187 2.636824 -1.046705 0
M  V30 15 C -3.912972 1.865690 -1.130499 0
M  V30 16 N -5.220902 2.242707 -1.247991 0
M  V30 17 C -5.930011 1.078162 -1.287145 0
M  V30 18 N -5.100928 0.006223 -1.197750 0
M  V30 19 C -3.829826 0.468665 -1.098354 0
M  V30 20 C -2.570847 -0.084781 -0.980924 0
M  V30 21 C -5.303748 -1.409995 -1.188854 0
M  V30 22 C -6.699341 -1.855845 -1.480823 0
M  V30 23 C -7.733836 -1.406569 -0.494503 0
M  V30 24 N -8.215771 -0.095990 -0.961572 0
M  V30 25 C -7.382479 0.976888 -1.407976 0
M  V30 26 O -7.918782 1.967845 -1.975243 0
M  V30 27 N 2.606792 -1.083655 -1.677310 0
M  V30 28 C 3.464884 -2.097913 -1.359055 0
M  V30 29 C 4.314021 -2.986152 -2.014398 0
M  V30 30 C 5.039398 -3.905242 -1.285026 0
M  V30 31 C 4.953148 -3.976196 0.076760 0
M  V30 32 C 4.110985 -3.094819 0.724854 0
M  V30 33 C 3.381826 -2.172140 0.006988 0
M  V30 34 H 4.384298 -1.818724 5.645115 0
M  V30 35 H 4.406710 -0.022254 5.417678 0
M  V30 36 H 2.915887 -0.965142 4.955203 0
M  V30 37 H 6.399101 -1.488613 2.714316 0
M  V30 38 H 6.025862 -2.520156 4.148690 0
M  V30 39 H 6.372706 -0.774687 4.392959 0
M  V30 40 H 4.787758 -0.174007 1.855857 0
M  V30 41 H 4.647058 0.871576 3.264923 0
M  V30 42 H 2.302895 0.469025 3.483238 0
M  V30 43 H 2.739372 1.087998 1.863921 0
M  V30 44 H 2.082220 -1.804222 2.473014 0
M  V30 45 H 0.979128 -0.597585 1.815682 0
M  V30 46 H 1.181932 1.545203 -0.643910 0
M  V30 47 H -0.573954 2.599828 -0.857709 0
M  V30 48 H -2.760071 3.716069 -1.065074 0
M  V30 49 H -2.542604 -1.183911 -0.959322 0
M  V30 50 H -4.667114 -1.836108 -1.998488 0
M  V30 51 H -4.950570 -1.899352 -0.257229 0
M  V30 52 H -6.992852 -1.624744 -2.543168 0
M  V30 53 H -6.679657 -2.976315 -1.437525 0
M  V30 54 H -8.549984 -2.096225 -0.306726 0
M  V30 55 H -7.185185 -1.188852 0.466776 0
M  V30 56 H -9.238075 0.109424 -0.985393 0
M  V30 57 H 4.313307 -2.850874 -3.096391 0
M  V30 58 H 5.661219 -4.536785 -1.917490 0
M  V30 59 H 5.553267 -4.724214 0.579487 0
M  V30 60 H 4.061169 -3.178600 1.799209 0
M  V30 END ATOM
M  V30 BEGIN BOND
M  V30 1 1 1 2
M  V30 2 1 2 3
M  V30 3 1 2 4
M  V30 4 1 4 5
M  V30 5 1 5 6
M  V30 6 1 6 7
M  V30 7 1 7 8
M  V30 8 1 8 9
M  V30 9 1 9 10
M  V30 10 2 10 11
M  V30 11 1 10 12
M  V30 12 2 12 13
M  V30 13 1 13 14
M  V30 14 2 14 15
M  V30 15 1 15 16
M  V30 16 2 16 17
M  V30 17 1 17 18
M  V30 18 1 18 19
M  V30 19 2 19 20
M  V30 20 1 18 21
M  V30 21 1 21 22
M  V30 22 1 22 23
M  V30 23 1 23 24
M  V30 24 1 24 25
M  V30 25 2 25 26
M  V30 26 2 8 27
M  V30 27 1 27 28
M  V30 28 2 28 29
M  V30 29 1 29 30
M  V30 30 2 30 31
M  V30 31 1 31 32
M  V30 32 2 32 33
M  V30 33 1 33 7
M  V30 34 1 20 12
M  V30 35 1 33 28
M  V30 36 1 19 15
M  V30 37 1 25 17
M  V30 38 1 1 34
M  V30 39 1 1 35
M  V30 40 1 1 36
M  V30 41 1 3 37
M  V30 42 1 3 38
M  V30 43 1 3 39
M  V30 44 1 4 40
M  V30 45 1 4 41
M  V30 46 1 5 42
M  V30 47 1 5 43
M  V30 48 1 6 44
M  V30 49 1 6 45
M  V30 50 1 9 46
M  V30 51 1 13 47
M  V30 52 1 14 48
M  V30 53 1 20 49
M  V30 54 1 21 50
M  V30 55 1 21 51
M  V30 56 1 22 52
M  V30 57 1 22 53
M  V30 58 1 23 54
M  V30 59 1 23 55
M  V30 60 1 24 56
M  V30 61 1 29 57
M  V30 62 1 30 58
M  V30 63 1 31 59
M  V30 64 1 32 60
M  V30 END BOND
M  V30 END CTAB
M  END
>  <Dataset>  (757) 
ChEMBL_Kinases

>  <Ligand_Instance>  (757) 
nan

>  <PDB_ID>  (757) 
nan

>  <Standardized_SMILES>  (757) 
CN(C)CCCn1c(NC(=O)c2ccc3nc4n(c3c2)CCCNC4=O)nc2ccccc21

>  <Name>  (757) 
nan

>  <Pocket>  (757) 
nan

>  <ATP_Site>  (757) 
nan

>  <Peripheral>  (757) 
nan

>  <Num_H_Atoms_ProtBoundConf>  (757) 
nan

>  <Num_Resolved_Atoms>  (757) 
nan

>  <Num_Not_Resolved_Atoms>  (757) 
nan

$$$$
CHEMBL3673578
     RDKit          3D

  0  0  0  0  0  0  0  0  0  0999 V3000
M  V30 BEGIN CTAB
M  V30 COUNTS 48 52 0 0 0
M  V30 BEGIN ATOM
M  V30 1 C -1.553503 -4.312171 1.752128 0
M  V30 2 C -0.151794 -4.108099 2.288592 0
M  V30 3 N 0.838592 -4.257527 1.220016 0
M  V30 4 C 1.298745 -3.270131 0.428712 0
M  V30 5 N 0.948649 -1.890867 0.436538 0
M  V30 6 C 1.516912 -0.973461 -0.456452 0
M  V30 7 O 2.361811 -1.440866 -1.273363 0
M  V30 8 C 1.219313 0.454118 -0.520947 0
M  V30 9 C 1.887535 1.193951 -1.476219 0
M  V30 10 C 1.666899 2.563132 -1.610551 0
M  V30 11 C 0.757731 3.178608 -0.762978 0
M  V30 12 N 0.307622 4.448003 -0.612223 0
M  V30 13 C -0.601974 4.459823 0.404119 0
M  V30 14 N -0.722492 3.206181 0.888628 0
M  V30 15 C 0.113533 2.399785 0.176227 0
M  V30 16 C 0.308695 1.030674 0.339091 0
M  V30 17 C -1.608323 2.884330 1.971271 0
M  V30 18 C -3.016902 3.290946 1.820458 0
M  V30 19 C -3.409332 4.690125 1.936662 0
M  V30 20 N -2.468703 5.712001 1.568340 0
M  V30 21 C -1.257908 5.728145 0.785967 0
M  V30 22 O -0.761855 6.822383 0.429666 0
M  V30 23 N 2.187209 -3.841396 -0.408007 0
M  V30 24 C 2.298038 -5.165159 -0.163002 0
M  V30 25 C 3.079284 -6.120110 -0.772461 0
M  V30 26 C 2.925458 -7.402249 -0.242333 0
M  V30 27 C 2.054033 -7.673301 0.810236 0
M  V30 28 Cl 1.961777 -9.345275 1.380061 0
M  V30 29 N 1.310461 -6.677882 1.366166 0
M  V30 30 C 1.434445 -5.430724 0.879253 0
M  V30 31 H -1.711326 -5.395253 1.556470 0
M  V30 32 H -1.711089 -3.705523 0.834504 0
M  V30 33 H -2.249427 -4.051011 2.574565 0
M  V30 34 H -0.001629 -4.893647 3.066269 0
M  V30 35 H -0.040831 -3.113926 2.762704 0
M  V30 36 H 0.246357 -1.533451 1.124237 0
M  V30 37 H 2.611721 0.769257 -2.169602 0
M  V30 38 H 2.183976 3.154340 -2.354979 0
M  V30 39 H -0.206639 0.462218 1.075216 0
M  V30 40 H -1.182984 3.341453 2.888874 0
M  V30 41 H -1.578780 1.785006 2.122022 0
M  V30 42 H -3.624324 2.685963 2.532164 0
M  V30 43 H -3.345251 2.912634 0.805785 0
M  V30 44 H -3.717166 4.888379 3.004752 0
M  V30 45 H -4.382459 4.829858 1.381038 0
M  V30 46 H -2.720760 6.652376 1.955113 0
M  V30 47 H 3.735972 -5.885079 -1.574228 0
M  V30 48 H 3.514709 -8.223795 -0.673773 0
M  V30 END ATOM
M  V30 BEGIN BOND
M  V30 1 1 1 2
M  V30 2 1 2 3
M  V30 3 1 3 4
M  V30 4 1 4 5
M  V30 5 1 5 6
M  V30 6 2 6 7
M  V30 7 1 6 8
M  V30 8 2 8 9
M  V30 9 1 9 10
M  V30 10 2 10 11
M  V30 11 1 11 12
M  V30 12 2 12 13
M  V30 13 1 13 14
M  V30 14 1 14 15
M  V30 15 2 15 16
M  V30 16 1 14 17
M  V30 17 1 17 18
M  V30 18 1 18 19
M  V30 19 1 19 20
M  V30 20 1 20 21
M  V30 21 2 21 22
M  V30 22 2 4 23
M  V30 23 1 23 24
M  V30 24 2 24 25
M  V30 25 1 25 26
M  V30 26 2 26 27
M  V30 27 1 27 28
M  V30 28 1 27 29
M  V30 29 2 29 30
M  V30 30 1 30 3
M  V30 31 1 16 8
M  V30 32 1 30 24
M  V30 33 1 15 11
M  V30 34 1 21 13
M  V30 35 1 1 31
M  V30 36 1 1 32
M  V30 37 1 1 33
M  V30 38 1 2 34
M  V30 39 1 2 35
M  V30 40 1 5 36
M  V30 41 1 9 37
M  V30 42 1 10 38
M  V30 43 1 16 39
M  V30 44 1 17 40
M  V30 45 1 17 41
M  V30 46 1 18 42
M  V30 47 1 18 43
M  V30 48 1 19 44
M  V30 49 1 19 45
M  V30 50 1 20 46
M  V30 51 1 25 47
M  V30 52 1 26 48
M  V30 END BOND
M  V30 END CTAB
M  END
>  <Dataset>  (758) 
ChEMBL_Kinases

>  <Ligand_Instance>  (758) 
nan

>  <PDB_ID>  (758) 
nan

>  <Standardized_SMILES>  (758) 
CCn1c(NC(=O)c2ccc3nc4n(c3c2)CCCNC4=O)nc2ccc(Cl)nc21

>  <Name>  (758) 
nan

>  <Pocket>  (758) 
nan

>  <ATP_Site>  (758) 
nan

>  <Peripheral>  (758) 
nan

>  <Num_H_Atoms_ProtBoundConf>  (758) 
nan

>  <Num_Resolved_Atoms>  (758) 
nan

>  <Num_Not_Resolved_Atoms>  (758) 
nan

$$$$
CHEMBL3673577
     RDKit          3D

  0  0  0  0  0  0  0  0  0  0999 V3000
M  V30 BEGIN CTAB
M  V30 COUNTS 46 49 0 0 0
M  V30 BEGIN ATOM
M  V30 1 C 4.167624 -7.187884 0.798638 0
M  V30 2 N 3.004935 -6.390251 0.439749 0
M  V30 3 C 3.002009 -5.060504 0.652093 0
M  V30 4 C 1.788629 -4.549654 0.225918 0
M  V30 5 N 1.295359 -3.213940 0.233862 0
M  V30 6 C 1.508177 -2.353560 -0.871386 0
M  V30 7 O 2.147960 -2.842297 -1.835490 0
M  V30 8 C 1.063148 -0.967959 -1.002703 0
M  V30 9 C 1.382270 -0.313288 -2.172045 0
M  V30 10 C 0.974152 1.015206 -2.336904 0
M  V30 11 C 0.263754 1.684035 -1.363741 0
M  V30 12 N -0.295881 2.874021 -1.108355 0
M  V30 13 C -0.887713 2.916290 0.095645 0
M  V30 14 N -0.729023 1.697369 0.701330 0
M  V30 15 C -0.036639 1.000993 -0.211577 0
M  V30 16 C 0.353192 -0.302239 -0.028079 0
M  V30 17 C -1.284342 1.535933 2.002711 0
M  V30 18 C -1.106844 0.209521 2.668704 0
M  V30 19 C -0.587442 2.525613 2.963460 0
M  V30 20 C -2.745698 1.937358 1.933129 0
M  V30 21 C -3.032937 3.315605 2.397508 0
M  V30 22 N -2.364284 4.349054 1.631785 0
M  V30 23 C -1.538008 4.198218 0.455143 0
M  V30 24 O -1.366803 5.184240 -0.283975 0
M  V30 25 C 1.060557 -5.644052 -0.254804 0
M  V30 26 N 1.838814 -6.732628 -0.103668 0
M  V30 27 H 5.069124 -6.650803 0.402803 0
M  V30 28 H 4.097852 -8.226062 0.443318 0
M  V30 29 H 4.334145 -7.169160 1.915553 0
M  V30 30 H 3.796714 -4.438597 1.084826 0
M  V30 31 H 0.765136 -2.816901 1.039045 0
M  V30 32 H 1.940887 -0.738541 -3.014397 0
M  V30 33 H 1.185697 1.597412 -3.225757 0
M  V30 34 H 0.152865 -0.893890 0.840569 0
M  V30 35 H -0.053616 0.006993 2.938515 0
M  V30 36 H -1.661553 -0.627558 2.209809 0
M  V30 37 H -1.592250 0.241760 3.714407 0
M  V30 38 H -0.316507 3.420075 2.406459 0
M  V30 39 H 0.385470 2.009346 3.226476 0
M  V30 40 H -1.127645 2.671100 3.892779 0
M  V30 41 H -3.357531 1.250588 2.553800 0
M  V30 42 H -3.108274 1.823279 0.898419 0
M  V30 43 H -2.947867 3.471802 3.483192 0
M  V30 44 H -4.129859 3.486161 2.181034 0
M  V30 45 H -2.479069 5.317583 1.947714 0
M  V30 46 H 0.059612 -5.666255 -0.677612 0
M  V30 END ATOM
M  V30 BEGIN BOND
M  V30 1 1 1 2
M  V30 2 1 2 3
M  V30 3 2 3 4
M  V30 4 1 4 5
M  V30 5 1 5 6
M  V30 6 2 6 7
M  V30 7 1 6 8
M  V30 8 2 8 9
M  V30 9 1 9 10
M  V30 10 2 10 11
M  V30 11 1 11 12
M  V30 12 2 12 13
M  V30 13 1 13 14
M  V30 14 1 14 15
M  V30 15 2 15 16
M  V30 16 1 14 17
M  V30 17 1 17 18
M  V30 18 1 17 19
M  V30 19 1 17 20
M  V30 20 1 20 21
M  V30 21 1 21 22
M  V30 22 1 22 23
M  V30 23 2 23 24
M  V30 24 1 4 25
M  V30 25 2 25 26
M  V30 26 1 26 2
M  V30 27 1 16 8
M  V30 28 1 15 11
M  V30 29 1 23 13
M  V30 30 1 1 27
M  V30 31 1 1 28
M  V30 32 1 1 29
M  V30 33 1 3 30
M  V30 34 1 5 31
M  V30 35 1 9 32
M  V30 36 1 10 33
M  V30 37 1 16 34
M  V30 38 1 18 35
M  V30 39 1 18 36
M  V30 40 1 18 37
M  V30 41 1 19 38
M  V30 42 1 19 39
M  V30 43 1 19 40
M  V30 44 1 20 41
M  V30 45 1 20 42
M  V30 46 1 21 43
M  V30 47 1 21 44
M  V30 48 1 22 45
M  V30 49 1 25 46
M  V30 END BOND
M  V30 END CTAB
M  END
>  <Dataset>  (759) 
ChEMBL_Kinases

>  <Ligand_Instance>  (759) 
nan

>  <PDB_ID>  (759) 
nan

>  <Standardized_SMILES>  (759) 
Cn1cc(NC(=O)c2ccc3nc4n(c3c2)C(C)(C)CCNC4=O)cn1

>  <Name>  (759) 
nan

>  <Pocket>  (759) 
nan

>  <ATP_Site>  (759) 
nan

>  <Peripheral>  (759) 
nan

>  <Num_H_Atoms_ProtBoundConf>  (759) 
nan

>  <Num_Resolved_Atoms>  (759) 
nan

>  <Num_Not_Resolved_Atoms>  (759) 
nan

$$$$
CHEMBL3673576
     RDKit          3D

  0  0  0  0  0  0  0  0  0  0999 V3000
M  V30 BEGIN CTAB
M  V30 COUNTS 40 43 0 0 0
M  V30 BEGIN ATOM
M  V30 1 C 3.137406 -7.147299 0.397279 0
M  V30 2 N 3.156385 -5.678383 0.459182 0
M  V30 3 C 2.201301 -4.738236 0.282075 0
M  V30 4 C 2.835496 -3.508595 0.472424 0
M  V30 5 N 2.067636 -2.315903 0.347167 0
M  V30 6 C 1.866575 -1.574651 -0.833716 0
M  V30 7 O 2.381013 -1.935349 -1.923083 0
M  V30 8 C 1.059931 -0.358190 -0.867662 0
M  V30 9 C 0.916795 0.304584 -2.069423 0
M  V30 10 C 0.168511 1.476583 -2.217375 0
M  V30 11 C -0.465840 2.010871 -1.114021 0
M  V30 12 N -1.250424 3.085801 -0.857202 0
M  V30 13 C -1.579186 3.081425 0.467242 0
M  V30 14 N -0.991391 1.992356 1.034015 0
M  V30 15 C -0.308497 1.331002 0.076752 0
M  V30 16 C 0.427521 0.172739 0.236917 0
M  V30 17 C -1.141437 1.683414 2.459607 0
M  V30 18 C -2.599993 1.633650 2.776362 0
M  V30 19 C -3.200445 2.922522 3.236618 0
M  V30 20 N -2.976131 4.040574 2.372559 0
M  V30 21 C -2.422444 4.124787 1.042849 0
M  V30 22 O -2.695252 5.142297 0.387836 0
M  V30 23 C 4.159502 -3.739966 0.760007 0
M  V30 24 N 4.325931 -5.094995 0.744127 0
M  V30 25 H 3.473106 -7.511663 1.405882 0
M  V30 26 H 2.056535 -7.451783 0.338943 0
M  V30 27 H 3.748355 -7.533014 -0.419516 0
M  V30 28 H 1.199391 -5.085786 0.043949 0
M  V30 29 H 1.643569 -2.021272 1.252371 0
M  V30 30 H 1.374069 -0.025214 -3.012915 0
M  V30 31 H 0.067447 1.982711 -3.167972 0
M  V30 32 H 0.520815 -0.319570 1.181488 0
M  V30 33 H -0.606096 2.419327 3.087305 0
M  V30 34 H -0.652225 0.700173 2.616333 0
M  V30 35 H -2.823898 0.884374 3.575103 0
M  V30 36 H -3.144485 1.279709 1.873821 0
M  V30 37 H -2.946538 3.142888 4.300155 0
M  V30 38 H -4.316819 2.753901 3.223535 0
M  V30 39 H -3.271874 4.941396 2.798901 0
M  V30 40 H 4.809165 -2.915659 0.937911 0
M  V30 END ATOM
M  V30 BEGIN BOND
M  V30 1 1 1 2
M  V30 2 1 2 3
M  V30 3 2 3 4
M  V30 4 1 4 5
M  V30 5 1 5 6
M  V30 6 2 6 7
M  V30 7 1 6 8
M  V30 8 2 8 9
M  V30 9 1 9 10
M  V30 10 2 10 11
M  V30 11 1 11 12
M  V30 12 2 12 13
M  V30 13 1 13 14
M  V30 14 1 14 15
M  V30 15 2 15 16
M  V30 16 1 14 17
M  V30 17 1 17 18
M  V30 18 1 18 19
M  V30 19 1 19 20
M  V30 20 1 20 21
M  V30 21 2 21 22
M  V30 22 1 4 23
M  V30 23 2 23 24
M  V30 24 1 24 2
M  V30 25 1 16 8
M  V30 26 1 15 11
M  V30 27 1 21 13
M  V30 28 1 1 25
M  V30 29 1 1 26
M  V30 30 1 1 27
M  V30 31 1 3 28
M  V30 32 1 5 29
M  V30 33 1 9 30
M  V30 34 1 10 31
M  V30 35 1 16 32
M  V30 36 1 17 33
M  V30 37 1 17 34
M  V30 38 1 18 35
M  V30 39 1 18 36
M  V30 40 1 19 37
M  V30 41 1 19 38
M  V30 42 1 20 39
M  V30 43 1 23 40
M  V30 END BOND
M  V30 END CTAB
M  END
>  <Dataset>  (760) 
ChEMBL_Kinases

>  <Ligand_Instance>  (760) 
nan

>  <PDB_ID>  (760) 
nan

>  <Standardized_SMILES>  (760) 
Cn1cc(NC(=O)c2ccc3nc4n(c3c2)CCCNC4=O)cn1

>  <Name>  (760) 
nan

>  <Pocket>  (760) 
nan

>  <ATP_Site>  (760) 
nan

>  <Peripheral>  (760) 
nan

>  <Num_H_Atoms_ProtBoundConf>  (760) 
nan

>  <Num_Resolved_Atoms>  (760) 
nan

>  <Num_Not_Resolved_Atoms>  (760) 
nan

$$$$
CHEMBL3673575
     RDKit          3D

  0  0  0  0  0  0  0  0  0  0999 V3000
M  V30 BEGIN CTAB
M  V30 COUNTS 45 49 0 0 0
M  V30 BEGIN ATOM
M  V30 1 O 0.634733 0.946515 0.436778 0
M  V30 2 C 1.324611 0.461783 1.396990 0
M  V30 3 N 2.447889 1.306154 1.689291 0
M  V30 4 C 2.375114 2.416081 0.764109 0
M  V30 5 C 1.637781 3.496825 1.246926 0
M  V30 6 N 1.543168 4.554392 0.417847 0
M  V30 7 C 2.110951 4.597150 -0.802407 0
M  V30 8 C 1.986192 5.714162 -1.626502 0
M  V30 9 C 2.570262 5.758077 -2.881647 0
M  V30 10 C 3.295670 4.666916 -3.329604 0
M  V30 11 C 3.447181 3.538963 -2.550439 0
M  V30 12 C 2.855016 3.520763 -1.303422 0
M  V30 13 C 2.976559 2.413726 -0.482286 0
M  V30 14 C 1.028395 -0.793452 2.123350 0
M  V30 15 C 1.758197 -1.334746 3.161406 0
M  V30 16 C 1.325392 -2.519524 3.717397 0
M  V30 17 C 0.195250 -3.173128 3.270652 0
M  V30 18 N -0.415340 -4.314335 3.642429 0
M  V30 19 C -1.489727 -4.442849 2.834242 0
M  V30 20 N -1.582966 -3.422297 1.961392 0
M  V30 21 C -0.527199 -2.622077 2.231220 0
M  V30 22 C -0.110713 -1.434612 1.659344 0
M  V30 23 C -2.579767 -3.181332 0.931331 0
M  V30 24 C -2.890762 -4.465865 0.175446 0
M  V30 25 C -3.998795 -5.240835 0.857754 0
M  V30 26 N -3.474644 -5.952964 2.014705 0
M  V30 27 C -2.437255 -5.567050 2.907949 0
M  V30 28 O -2.338324 -6.333374 3.918918 0
M  V30 29 H 3.094110 0.997907 2.475305 0
M  V30 30 H 1.168256 3.495365 2.223116 0
M  V30 31 H 1.401832 6.554529 -1.228188 0
M  V30 32 H 2.412272 6.676118 -3.443823 0
M  V30 33 H 3.732588 4.748338 -4.315620 0
M  V30 34 H 4.013627 2.692125 -2.905264 0
M  V30 35 H 3.531192 1.534794 -0.781531 0
M  V30 36 H 2.625110 -0.761142 3.447881 0
M  V30 37 H 1.913315 -2.916821 4.523485 0
M  V30 38 H -0.727393 -1.049773 0.838650 0
M  V30 39 H -3.542594 -2.851292 1.371052 0
M  V30 40 H -2.201735 -2.438717 0.201416 0
M  V30 41 H -3.076122 -4.265040 -0.885536 0
M  V30 42 H -1.985493 -5.105724 0.244571 0
M  V30 43 H -4.729069 -4.481813 1.242920 0
M  V30 44 H -4.504994 -5.925218 0.162451 0
M  V30 45 H -3.962935 -6.869707 2.166092 0
M  V30 END ATOM
M  V30 BEGIN BOND
M  V30 1 2 1 2
M  V30 2 1 2 3
M  V30 3 1 3 4
M  V30 4 2 4 5
M  V30 5 1 5 6
M  V30 6 2 6 7
M  V30 7 1 7 8
M  V30 8 2 8 9
M  V30 9 1 9 10
M  V30 10 2 10 11
M  V30 11 1 11 12
M  V30 12 2 12 13
M  V30 13 1 2 14
M  V30 14 2 14 15
M  V30 15 1 15 16
M  V30 16 2 16 17
M  V30 17 1 17 18
M  V30 18 2 18 19
M  V30 19 1 19 20
M  V30 20 1 20 21
M  V30 21 2 21 22
M  V30 22 1 20 23
M  V30 23 1 23 24
M  V30 24 1 24 25
M  V30 25 1 25 26
M  V30 26 1 26 27
M  V30 27 2 27 28
M  V30 28 1 13 4
M  V30 29 1 22 14
M  V30 30 1 12 7
M  V30 31 1 21 17
M  V30 32 1 27 19
M  V30 33 1 3 29
M  V30 34 1 5 30
M  V30 35 1 8 31
M  V30 36 1 9 32
M  V30 37 1 10 33
M  V30 38 1 11 34
M  V30 39 1 13 35
M  V30 40 1 15 36
M  V30 41 1 16 37
M  V30 42 1 22 38
M  V30 43 1 23 39
M  V30 44 1 23 40
M  V30 45 1 24 41
M  V30 46 1 24 42
M  V30 47 1 25 43
M  V30 48 1 25 44
M  V30 49 1 26 45
M  V30 END BOND
M  V30 END CTAB
M  END
>  <Dataset>  (761) 
ChEMBL_Kinases

>  <Ligand_Instance>  (761) 
nan

>  <PDB_ID>  (761) 
nan

>  <Standardized_SMILES>  (761) 
O=C(Nc1cnc2ccccc2c1)c1ccc2nc3n(c2c1)CCCNC3=O

>  <Name>  (761) 
nan

>  <Pocket>  (761) 
nan

>  <ATP_Site>  (761) 
nan

>  <Peripheral>  (761) 
nan

>  <Num_H_Atoms_ProtBoundConf>  (761) 
nan

>  <Num_Resolved_Atoms>  (761) 
nan

>  <Num_Not_Resolved_Atoms>  (761) 
nan

$$$$
CHEMBL3673574
     RDKit          3D

  0  0  0  0  0  0  0  0  0  0999 V3000
M  V30 BEGIN CTAB
M  V30 COUNTS 51 55 0 0 0
M  V30 BEGIN ATOM
M  V30 1 C 0.669034 -3.945131 6.805146 0
M  V30 2 C 1.657737 -2.894063 7.230515 0
M  V30 3 C 2.880778 -3.569111 7.804361 0
M  V30 4 N 2.063040 -2.039441 6.111046 0
M  V30 5 N 3.252350 -1.465775 6.018446 0
M  V30 6 C 3.327707 -0.738251 4.871467 0
M  V30 7 C 2.098896 -0.903084 4.260745 0
M  V30 8 C 1.556816 -0.424883 3.081772 0
M  V30 9 C 0.257521 -0.750362 2.685441 0
M  V30 10 N -0.157857 -0.182273 1.449428 0
M  V30 11 C -0.801268 1.045886 1.204035 0
M  V30 12 O -1.076292 1.794758 2.166778 0
M  V30 13 C -1.161550 1.480370 -0.139463 0
M  V30 14 C -1.786781 2.715890 -0.256468 0
M  V30 15 C -2.136887 3.144285 -1.528329 0
M  V30 16 C -1.877733 2.377615 -2.645010 0
M  V30 17 N -2.137401 2.615553 -3.948999 0
M  V30 18 C -1.685678 1.548276 -4.661150 0
M  V30 19 N -1.144190 0.644113 -3.801367 0
M  V30 20 C -1.253754 1.138509 -2.554919 0
M  V30 21 C -0.919599 0.743525 -1.277504 0
M  V30 22 C -0.514631 -0.655363 -3.915547 0
M  V30 23 C -0.132177 -1.005717 -5.320757 0
M  V30 24 C -1.293765 -1.155926 -6.263635 0
M  V30 25 N -1.670941 0.120119 -6.857576 0
M  V30 26 C -1.745619 1.349137 -6.116396 0
M  V30 27 O -1.881669 2.446999 -6.736329 0
M  V30 28 C -0.495356 -1.573174 3.503086 0
M  V30 29 N 0.043121 -2.041750 4.663688 0
M  V30 30 C 1.297143 -1.721680 5.036209 0
M  V30 31 H 0.835905 -4.908964 7.334106 0
M  V30 32 H 0.682032 -4.115053 5.696416 0
M  V30 33 H -0.342787 -3.577683 7.059774 0
M  V30 34 H 1.220145 -2.268869 8.021572 0
M  V30 35 H 2.702469 -3.931023 8.836477 0
M  V30 36 H 3.118800 -4.477217 7.192861 0
M  V30 37 H 3.777105 -2.895552 7.770795 0
M  V30 38 H 4.147189 -0.146585 4.483965 0
M  V30 39 H 2.195348 0.225405 2.466287 0
M  V30 40 H 0.093364 -0.842411 0.680410 0
M  V30 41 H -2.001335 3.334155 0.594918 0
M  V30 42 H -2.625785 4.101189 -1.663027 0
M  V30 43 H -0.436424 -0.209940 -1.176998 0
M  V30 44 H 0.397159 -0.739611 -3.299306 0
M  V30 45 H -1.259913 -1.415165 -3.576019 0
M  V30 46 H 0.635623 -0.319987 -5.740277 0
M  V30 47 H 0.373223 -2.011924 -5.309822 0
M  V30 48 H -0.988405 -1.819025 -7.092906 0
M  V30 49 H -2.115009 -1.646382 -5.727727 0
M  V30 50 H -1.912865 0.234164 -7.858284 0
M  V30 51 H -1.479128 -1.795282 3.162728 0
M  V30 END ATOM
M  V30 BEGIN BOND
M  V30 1 1 1 2
M  V30 2 1 2 3
M  V30 3 1 2 4
M  V30 4 1 4 5
M  V30 5 2 5 6
M  V30 6 1 6 7
M  V30 7 2 7 8
M  V30 8 1 8 9
M  V30 9 1 9 10
M  V30 10 1 10 11
M  V30 11 2 11 12
M  V30 12 1 11 13
M  V30 13 2 13 14
M  V30 14 1 14 15
M  V30 15 2 15 16
M  V30 16 1 16 17
M  V30 17 2 17 18
M  V30 18 1 18 19
M  V30 19 1 19 20
M  V30 20 2 20 21
M  V30 21 1 19 22
M  V30 22 1 22 23
M  V30 23 1 23 24
M  V30 24 1 24 25
M  V30 25 1 25 26
M  V30 26 2 26 27
M  V30 27 2 9 28
M  V30 28 1 28 29
M  V30 29 2 29 30
M  V30 30 1 30 4
M  V30 31 1 30 7
M  V30 32 1 21 13
M  V30 33 1 20 16
M  V30 34 1 26 18
M  V30 35 1 1 31
M  V30 36 1 1 32
M  V30 37 1 1 33
M  V30 38 1 2 34
M  V30 39 1 3 35
M  V30 40 1 3 36
M  V30 41 1 3 37
M  V30 42 1 6 38
M  V30 43 1 8 39
M  V30 44 1 10 40
M  V30 45 1 14 41
M  V30 46 1 15 42
M  V30 47 1 21 43
M  V30 48 1 22 44
M  V30 49 1 22 45
M  V30 50 1 23 46
M  V30 51 1 23 47
M  V30 52 1 24 48
M  V30 53 1 24 49
M  V30 54 1 25 50
M  V30 55 1 28 51
M  V30 END BOND
M  V30 END CTAB
M  END
>  <Dataset>  (762) 
ChEMBL_Kinases

>  <Ligand_Instance>  (762) 
nan

>  <PDB_ID>  (762) 
nan

>  <Standardized_SMILES>  (762) 
CC(C)n1ncc2cc(NC(=O)c3ccc4nc5n(c4c3)CCCNC5=O)cnc21

>  <Name>  (762) 
nan

>  <Pocket>  (762) 
nan

>  <ATP_Site>  (762) 
nan

>  <Peripheral>  (762) 
nan

>  <Num_H_Atoms_ProtBoundConf>  (762) 
nan

>  <Num_Resolved_Atoms>  (762) 
nan

>  <Num_Not_Resolved_Atoms>  (762) 
nan

$$$$
CHEMBL3673573
     RDKit          3D

  0  0  0  0  0  0  0  0  0  0999 V3000
M  V30 BEGIN CTAB
M  V30 COUNTS 57 61 0 0 0
M  V30 BEGIN ATOM
M  V30 1 C 2.300609 -6.015344 1.580649 0
M  V30 2 N 1.705727 -4.746434 1.202900 0
M  V30 3 C 1.787394 -3.623339 1.951426 0
M  V30 4 C 1.120485 -2.595434 1.315758 0
M  V30 5 N 0.849474 -1.221074 1.571316 0
M  V30 6 C 1.756744 -0.234215 1.111175 0
M  V30 7 O 2.777142 -0.623331 0.487800 0
M  V30 8 C 1.581379 1.200911 1.314814 0
M  V30 9 C 2.553657 2.030774 0.804988 0
M  V30 10 C 2.423771 3.409030 0.977562 0
M  V30 11 C 1.320525 3.888645 1.655746 0
M  V30 12 N 0.977715 5.169538 1.945577 0
M  V30 13 C -0.185108 5.150126 2.623526 0
M  V30 14 N -0.612802 3.864748 2.783435 0
M  V30 15 C 0.320633 3.078057 2.183136 0
M  V30 16 C 0.490911 1.714516 1.988024 0
M  V30 17 C -1.743979 3.245706 3.400971 0
M  V30 18 C -2.487905 4.201621 4.315674 0
M  V30 19 C -3.213151 5.290805 3.568523 0
M  V30 20 N -2.314848 6.440912 3.400561 0
M  V30 21 C -0.902550 6.340576 3.125806 0
M  V30 22 O -0.143454 7.322323 3.307931 0
M  V30 23 N 0.638471 -3.143984 0.162877 0
M  V30 24 C 0.995000 -4.439450 0.102140 0
M  V30 25 C 0.660865 -5.355572 -0.984413 0
M  V30 26 O 1.031953 -6.556475 -0.965117 0
M  V30 27 N -0.098516 -4.904053 -2.097718 0
M  V30 28 C -0.533395 -5.623222 -3.258098 0
M  V30 29 C -2.006206 -5.547290 -3.495472 0
M  V30 30 C -2.126079 -5.347809 -4.987466 0
M  V30 31 C -0.999839 -4.371970 -5.270678 0
M  V30 32 C 0.141694 -4.984717 -4.454742 0
M  V30 33 H 1.693208 -6.894936 1.249187 0
M  V30 34 H 3.335699 -6.087762 1.173281 0
M  V30 35 H 2.318903 -6.068168 2.683977 0
M  V30 36 H 2.255601 -3.419602 2.894351 0
M  V30 37 H 0.007219 -0.929477 2.083815 0
M  V30 38 H 3.423852 1.664034 0.270791 0
M  V30 39 H 3.167634 4.097612 0.591160 0
M  V30 40 H -0.275142 1.066550 2.390221 0
M  V30 41 H -2.430869 2.758906 2.673053 0
M  V30 42 H -1.430376 2.397957 4.077653 0
M  V30 43 H -3.119168 3.686550 5.045904 0
M  V30 44 H -1.682159 4.709064 4.922554 0
M  V30 45 H -3.514473 4.939145 2.562920 0
M  V30 46 H -4.080862 5.596521 4.205899 0
M  V30 47 H -2.570669 7.459405 3.455957 0
M  V30 48 H -0.398639 -3.904797 -2.098601 0
M  V30 49 H -0.200995 -6.697560 -3.231449 0
M  V30 50 H -2.558747 -6.474177 -3.238746 0
M  V30 51 H -2.454458 -4.650392 -2.998193 0
M  V30 52 H -1.953945 -6.259652 -5.569586 0
M  V30 53 H -3.115749 -4.913705 -5.249762 0
M  V30 54 H -1.206044 -3.344198 -4.946036 0
M  V30 55 H -0.718661 -4.357928 -6.343233 0
M  V30 56 H 0.683997 -5.740878 -5.087890 0
M  V30 57 H 0.820542 -4.160842 -4.194748 0
M  V30 END ATOM
M  V30 BEGIN BOND
M  V30 1 1 1 2
M  V30 2 1 2 3
M  V30 3 2 3 4
M  V30 4 1 4 5
M  V30 5 1 5 6
M  V30 6 2 6 7
M  V30 7 1 6 8
M  V30 8 2 8 9
M  V30 9 1 9 10
M  V30 10 2 10 11
M  V30 11 1 11 12
M  V30 12 2 12 13
M  V30 13 1 13 14
M  V30 14 1 14 15
M  V30 15 2 15 16
M  V30 16 1 14 17
M  V30 17 1 17 18
M  V30 18 1 18 19
M  V30 19 1 19 20
M  V30 20 1 20 21
M  V30 21 2 21 22
M  V30 22 1 4 23
M  V30 23 2 23 24
M  V30 24 1 24 25
M  V30 25 2 25 26
M  V30 26 1 25 27
M  V30 27 1 27 28
M  V30 28 1 28 29
M  V30 29 1 29 30
M  V30 30 1 30 31
M  V30 31 1 31 32
M  V30 32 1 24 2
M  V30 33 1 32 28
M  V30 34 1 16 8
M  V30 35 1 15 11
M  V30 36 1 21 13
M  V30 37 1 1 33
M  V30 38 1 1 34
M  V30 39 1 1 35
M  V30 40 1 3 36
M  V30 41 1 5 37
M  V30 42 1 9 38
M  V30 43 1 10 39
M  V30 44 1 16 40
M  V30 45 1 17 41
M  V30 46 1 17 42
M  V30 47 1 18 43
M  V30 48 1 18 44
M  V30 49 1 19 45
M  V30 50 1 19 46
M  V30 51 1 20 47
M  V30 52 1 27 48
M  V30 53 1 28 49
M  V30 54 1 29 50
M  V30 55 1 29 51
M  V30 56 1 30 52
M  V30 57 1 30 53
M  V30 58 1 31 54
M  V30 59 1 31 55
M  V30 60 1 32 56
M  V30 61 1 32 57
M  V30 END BOND
M  V30 END CTAB
M  END
>  <Dataset>  (763) 
ChEMBL_Kinases

>  <Ligand_Instance>  (763) 
nan

>  <PDB_ID>  (763) 
nan

>  <Standardized_SMILES>  (763) 
Cn1cc(NC(=O)c2ccc3nc4n(c3c2)CCCNC4=O)nc1C(=O)NC1CCCC1

>  <Name>  (763) 
nan

>  <Pocket>  (763) 
nan

>  <ATP_Site>  (763) 
nan

>  <Peripheral>  (763) 
nan

>  <Num_H_Atoms_ProtBoundConf>  (763) 
nan

>  <Num_Resolved_Atoms>  (763) 
nan

>  <Num_Not_Resolved_Atoms>  (763) 
nan

$$$$
CHEMBL3673572
     RDKit          3D

  0  0  0  0  0  0  0  0  0  0999 V3000
M  V30 BEGIN CTAB
M  V30 COUNTS 44 47 0 0 0
M  V30 BEGIN ATOM
M  V30 1 N 4.688703 -2.968493 -1.584194 0
M  V30 2 C 3.974647 -1.782198 -1.436506 0
M  V30 3 O 2.782985 -1.959241 -1.076846 0
M  V30 4 C 4.574583 -0.475186 -1.681628 0
M  V30 5 C 5.891099 -0.420425 -2.067593 0
M  V30 6 C 6.356002 0.869115 -2.271842 0
M  V30 7 C 5.577229 1.998683 -2.105687 0
M  V30 8 C 4.242191 1.851798 -1.709438 0
M  V30 9 C 3.723568 0.595228 -1.491347 0
M  V30 10 N 2.393492 0.385171 -1.093507 0
M  V30 11 C 1.651893 0.275492 0.115982 0
M  V30 12 O 2.347653 0.394842 1.163704 0
M  V30 13 C 0.220361 0.045506 0.028739 0
M  V30 14 C -0.555443 -0.089156 -1.104667 0
M  V30 15 C -1.902493 -0.303447 -0.995454 0
M  V30 16 C -2.568106 -0.398516 0.211579 0
M  V30 17 N -3.853536 -0.600420 0.587598 0
M  V30 18 C -3.872775 -0.590901 1.927962 0
M  V30 19 N -2.638139 -0.389082 2.403853 0
M  V30 20 C -1.780108 -0.261822 1.353921 0
M  V30 21 C -0.401289 -0.042333 1.255699 0
M  V30 22 C -2.238639 -0.312220 3.779471 0
M  V30 23 C -2.794627 -1.541996 4.470008 0
M  V30 24 C -4.144230 -1.270130 5.057302 0
M  V30 25 N -5.196928 -1.112248 4.088062 0
M  V30 26 C -5.102540 -0.780259 2.690536 0
M  V30 27 O -6.204544 -0.649371 2.106174 0
M  V30 28 H 5.291505 -2.969587 -0.715088 0
M  V30 29 H 5.169236 -3.862958 -1.779111 0
M  V30 30 H 6.492235 -1.306599 -2.195109 0
M  V30 31 H 7.386698 1.018993 -2.579623 0
M  V30 32 H 6.016098 2.985806 -2.286191 0
M  V30 33 H 3.638169 2.739849 -1.581210 0
M  V30 34 H 2.001157 0.315093 -2.059206 0
M  V30 35 H -0.011692 -0.010949 -2.029500 0
M  V30 36 H -2.461320 -0.401445 -1.919286 0
M  V30 37 H 0.105382 0.047766 2.219555 0
M  V30 38 H -2.707881 0.583451 4.255676 0
M  V30 39 H -1.158170 -0.241823 3.918341 0
M  V30 40 H -2.824389 -2.428731 3.797409 0
M  V30 41 H -2.114390 -1.774163 5.310206 0
M  V30 42 H -4.047104 -0.401008 5.740043 0
M  V30 43 H -4.394953 -2.169136 5.686431 0
M  V30 44 H -6.153703 -1.263767 4.472369 0
M  V30 END ATOM
M  V30 BEGIN BOND
M  V30 1 1 1 2
M  V30 2 2 2 3
M  V30 3 1 2 4
M  V30 4 2 4 5
M  V30 5 1 5 6
M  V30 6 2 6 7
M  V30 7 1 7 8
M  V30 8 2 8 9
M  V30 9 1 9 10
M  V30 10 1 10 11
M  V30 11 2 11 12
M  V30 12 1 11 13
M  V30 13 2 13 14
M  V30 14 1 14 15
M  V30 15 2 15 16
M  V30 16 1 16 17
M  V30 17 2 17 18
M  V30 18 1 18 19
M  V30 19 1 19 20
M  V30 20 2 20 21
M  V30 21 1 19 22
M  V30 22 1 22 23
M  V30 23 1 23 24
M  V30 24 1 24 25
M  V30 25 1 25 26
M  V30 26 2 26 27
M  V30 27 1 9 4
M  V30 28 1 21 13
M  V30 29 1 20 16
M  V30 30 1 26 18
M  V30 31 1 1 28
M  V30 32 1 1 29
M  V30 33 1 5 30
M  V30 34 1 6 31
M  V30 35 1 7 32
M  V30 36 1 8 33
M  V30 37 1 10 34
M  V30 38 1 14 35
M  V30 39 1 15 36
M  V30 40 1 21 37
M  V30 41 1 22 38
M  V30 42 1 22 39
M  V30 43 1 23 40
M  V30 44 1 23 41
M  V30 45 1 24 42
M  V30 46 1 24 43
M  V30 47 1 25 44
M  V30 END BOND
M  V30 END CTAB
M  END
>  <Dataset>  (764) 
ChEMBL_Kinases

>  <Ligand_Instance>  (764) 
nan

>  <PDB_ID>  (764) 
nan

>  <Standardized_SMILES>  (764) 
NC(=O)c1ccccc1NC(=O)c1ccc2nc3n(c2c1)CCCNC3=O

>  <Name>  (764) 
nan

>  <Pocket>  (764) 
nan

>  <ATP_Site>  (764) 
nan

>  <Peripheral>  (764) 
nan

>  <Num_H_Atoms_ProtBoundConf>  (764) 
nan

>  <Num_Resolved_Atoms>  (764) 
nan

>  <Num_Not_Resolved_Atoms>  (764) 
nan

$$$$
CHEMBL3673571
     RDKit          3D

  0  0  0  0  0  0  0  0  0  0999 V3000
M  V30 BEGIN CTAB
M  V30 COUNTS 40 43 0 0 0
M  V30 BEGIN ATOM
M  V30 1 O 1.941724 -1.997507 -0.144271 0
M  V30 2 C 0.829617 -1.865427 -0.758801 0
M  V30 3 N 0.708264 -2.696349 -1.883595 0
M  V30 4 C 1.807383 -3.573595 -2.210577 0
M  V30 5 C 1.770478 -4.828542 -1.638275 0
M  V30 6 C 2.848902 -5.655851 -1.973706 0
M  V30 7 C 3.845966 -5.200753 -2.817006 0
M  V30 8 C 3.825366 -3.920374 -3.363257 0
M  V30 9 F 4.778931 -3.445786 -4.186958 0
M  V30 10 C 2.767670 -3.055792 -3.057511 0
M  V30 11 C -0.204442 -0.934309 -0.318805 0
M  V30 12 C -1.422905 -0.759281 -0.954220 0
M  V30 13 C -2.365911 0.141654 -0.488137 0
M  V30 14 C -2.087225 0.890504 0.644334 0
M  V30 15 N -2.747573 1.817987 1.341847 0
M  V30 16 C -2.015100 2.249528 2.395474 0
M  V30 17 N -0.854039 1.562066 2.349421 0
M  V30 18 C -0.864263 0.718253 1.286378 0
M  V30 19 C 0.064745 -0.182002 0.811331 0
M  V30 20 C 0.252507 1.699745 3.297647 0
M  V30 21 C -0.298737 1.952657 4.703435 0
M  V30 22 C -0.405276 3.443760 4.925428 0
M  V30 23 N -1.667309 3.860267 4.359334 0
M  V30 24 C -2.473981 3.265620 3.345143 0
M  V30 25 O -3.678312 3.603375 3.212389 0
M  V30 26 H -0.174701 -2.664683 -2.463077 0
M  V30 27 H 0.961417 -5.112039 -0.991482 0
M  V30 28 H 2.876512 -6.650269 -1.556960 0
M  V30 29 H 4.685648 -5.860838 -3.071220 0
M  V30 30 H 2.679226 -2.054568 -3.437912 0
M  V30 31 H -1.609967 -1.357819 -1.834354 0
M  V30 32 H -3.301677 0.249157 -1.009811 0
M  V30 33 H 0.988043 -0.255182 1.367211 0
M  V30 34 H 0.870445 2.581183 3.019552 0
M  V30 35 H 0.889851 0.812491 3.311603 0
M  V30 36 H 0.313796 1.470360 5.479524 0
M  V30 37 H -1.332200 1.532438 4.815625 0
M  V30 38 H 0.439167 3.975322 4.451684 0
M  V30 39 H -0.348479 3.647739 6.011418 0
M  V30 40 H -2.090081 4.748413 4.736985 0
M  V30 END ATOM
M  V30 BEGIN BOND
M  V30 1 2 1 2
M  V30 2 1 2 3
M  V30 3 1 3 4
M  V30 4 2 4 5
M  V30 5 1 5 6
M  V30 6 2 6 7
M  V30 7 1 7 8
M  V30 8 1 8 9
M  V30 9 2 8 10
M  V30 10 1 2 11
M  V30 11 2 11 12
M  V30 12 1 12 13
M  V30 13 2 13 14
M  V30 14 1 14 15
M  V30 15 2 15 16
M  V30 16 1 16 17
M  V30 17 1 17 18
M  V30 18 2 18 19
M  V30 19 1 17 20
M  V30 20 1 20 21
M  V30 21 1 21 22
M  V30 22 1 22 23
M  V30 23 1 23 24
M  V30 24 2 24 25
M  V30 25 1 10 4
M  V30 26 1 19 11
M  V30 27 1 18 14
M  V30 28 1 24 16
M  V30 29 1 3 26
M  V30 30 1 5 27
M  V30 31 1 6 28
M  V30 32 1 7 29
M  V30 33 1 10 30
M  V30 34 1 12 31
M  V30 35 1 13 32
M  V30 36 1 19 33
M  V30 37 1 20 34
M  V30 38 1 20 35
M  V30 39 1 21 36
M  V30 40 1 21 37
M  V30 41 1 22 38
M  V30 42 1 22 39
M  V30 43 1 23 40
M  V30 END BOND
M  V30 END CTAB
M  END
>  <Dataset>  (765) 
ChEMBL_Kinases

>  <Ligand_Instance>  (765) 
nan

>  <PDB_ID>  (765) 
nan

>  <Standardized_SMILES>  (765) 
O=C(Nc1cccc(F)c1)c1ccc2nc3n(c2c1)CCCNC3=O

>  <Name>  (765) 
nan

>  <Pocket>  (765) 
nan

>  <ATP_Site>  (765) 
nan

>  <Peripheral>  (765) 
nan

>  <Num_H_Atoms_ProtBoundConf>  (765) 
nan

>  <Num_Resolved_Atoms>  (765) 
nan

>  <Num_Not_Resolved_Atoms>  (765) 
nan

$$$$
CHEMBL3673570
     RDKit          3D

  0  0  0  0  0  0  0  0  0  0999 V3000
M  V30 BEGIN CTAB
M  V30 COUNTS 49 53 0 0 0
M  V30 BEGIN ATOM
M  V30 1 C 1.771973 -4.978389 -4.702297 0
M  V30 2 C 2.839220 -4.661980 -3.701718 0
M  V30 3 N 2.933340 -3.648031 -2.931831 0
M  V30 4 C 3.960832 -3.549268 -2.110834 0
M  V30 5 C 4.039778 -2.369484 -1.237443 0
M  V30 6 C 5.083302 -2.195347 -0.352579 0
M  V30 7 C 5.235029 -1.122760 0.500006 0
M  V30 8 C 4.272915 -0.134712 0.478144 0
M  V30 9 C 3.198379 -0.238744 -0.380982 0
M  V30 10 N 2.160183 0.766186 -0.446905 0
M  V30 11 C 1.150594 0.413156 0.483081 0
M  V30 12 O 1.443349 -0.668849 1.098483 0
M  V30 13 C -0.076495 1.194229 0.709075 0
M  V30 14 C -0.378715 2.346764 0.047095 0
M  V30 15 C -1.584200 2.974644 0.373300 0
M  V30 16 C -2.433784 2.450376 1.325774 0
M  V30 17 N -3.635462 2.877659 1.799387 0
M  V30 18 C -4.053551 1.991862 2.737330 0
M  V30 19 N -3.126775 0.999456 2.867499 0
M  V30 20 C -2.124209 1.290242 1.988583 0
M  V30 21 C -0.929894 0.656654 1.674014 0
M  V30 22 C -3.034539 -0.186079 3.692734 0
M  V30 23 C -3.935565 -0.130577 4.897044 0
M  V30 24 C -5.360069 -0.350694 4.437466 0
M  V30 25 N -5.957723 0.963323 4.188633 0
M  V30 26 C -5.293554 2.046288 3.514893 0
M  V30 27 O -5.787857 3.217360 3.558977 0
M  V30 28 C 3.128884 -1.346036 -1.197309 0
M  V30 29 C 4.935152 -4.544648 -2.085166 0
M  V30 30 S 4.301286 -5.695214 -3.344904 0
M  V30 31 H 1.961451 -6.019499 -5.020920 0
M  V30 32 H 1.895705 -4.268057 -5.527927 0
M  V30 33 H 0.758985 -4.962995 -4.254116 0
M  V30 34 H 5.882590 -2.925911 -0.272027 0
M  V30 35 H 6.070055 -1.031686 1.174706 0
M  V30 36 H 4.291901 0.737905 1.095245 0
M  V30 37 H 2.022579 1.652472 -1.018416 0
M  V30 38 H 0.315655 2.721134 -0.690912 0
M  V30 39 H -1.837963 3.891812 -0.144745 0
M  V30 40 H -0.685027 -0.272714 2.207048 0
M  V30 41 H -3.326615 -1.051244 3.047813 0
M  V30 42 H -1.955830 -0.302233 3.992333 0
M  V30 43 H -3.803765 0.857605 5.384950 0
M  V30 44 H -3.624907 -0.965216 5.570079 0
M  V30 45 H -5.923620 -0.891396 5.212663 0
M  V30 46 H -5.334371 -0.906222 3.468306 0
M  V30 47 H -6.928700 1.239958 4.478668 0
M  V30 48 H 2.269018 -1.413657 -1.873982 0
M  V30 49 H 5.803934 -4.564892 -1.462715 0
M  V30 END ATOM
M  V30 BEGIN BOND
M  V30 1 1 1 2
M  V30 2 2 2 3
M  V30 3 1 3 4
M  V30 4 1 4 5
M  V30 5 2 5 6
M  V30 6 1 6 7
M  V30 7 2 7 8
M  V30 8 1 8 9
M  V30 9 1 9 10
M  V30 10 1 10 11
M  V30 11 2 11 12
M  V30 12 1 11 13
M  V30 13 2 13 14
M  V30 14 1 14 15
M  V30 15 2 15 16
M  V30 16 1 16 17
M  V30 17 2 17 18
M  V30 18 1 18 19
M  V30 19 1 19 20
M  V30 20 2 20 21
M  V30 21 1 19 22
M  V30 22 1 22 23
M  V30 23 1 23 24
M  V30 24 1 24 25
M  V30 25 1 25 26
M  V30 26 2 26 27
M  V30 27 2 9 28
M  V30 28 2 4 29
M  V30 29 1 29 30
M  V30 30 1 30 2
M  V30 31 1 28 5
M  V30 32 1 21 13
M  V30 33 1 20 16
M  V30 34 1 26 18
M  V30 35 1 1 31
M  V30 36 1 1 32
M  V30 37 1 1 33
M  V30 38 1 6 34
M  V30 39 1 7 35
M  V30 40 1 8 36
M  V30 41 1 10 37
M  V30 42 1 14 38
M  V30 43 1 15 39
M  V30 44 1 21 40
M  V30 45 1 22 41
M  V30 46 1 22 42
M  V30 47 1 23 43
M  V30 48 1 23 44
M  V30 49 1 24 45
M  V30 50 1 24 46
M  V30 51 1 25 47
M  V30 52 1 28 48
M  V30 53 1 29 49
M  V30 END BOND
M  V30 END CTAB
M  END
>  <Dataset>  (766) 
ChEMBL_Kinases

>  <Ligand_Instance>  (766) 
nan

>  <PDB_ID>  (766) 
nan

>  <Standardized_SMILES>  (766) 
Cc1nc(-c2cccc(NC(=O)c3ccc4nc5n(c4c3)CCCNC5=O)c2)cs1

>  <Name>  (766) 
nan

>  <Pocket>  (766) 
nan

>  <ATP_Site>  (766) 
nan

>  <Peripheral>  (766) 
nan

>  <Num_H_Atoms_ProtBoundConf>  (766) 
nan

>  <Num_Resolved_Atoms>  (766) 
nan

>  <Num_Not_Resolved_Atoms>  (766) 
nan

$$$$
CHEMBL3673569
     RDKit          3D

  0  0  0  0  0  0  0  0  0  0999 V3000
M  V30 BEGIN CTAB
M  V30 COUNTS 50 54 0 0 0
M  V30 BEGIN ATOM
M  V30 1 O -0.324013 -0.265200 1.377215 0
M  V30 2 C 0.702552 -1.004530 1.203296 0
M  V30 3 N 1.897201 -0.324860 1.576748 0
M  V30 4 C 1.539014 1.000572 2.036571 0
M  V30 5 C 1.225395 1.405063 3.325810 0
M  V30 6 N 0.971160 2.723078 3.209774 0
M  V30 7 N 1.108758 3.126921 1.962405 0
M  V30 8 C 0.879555 4.529476 1.606492 0
M  V30 9 C 2.108247 5.321016 1.708666 0
M  V30 10 C 2.958292 5.453521 0.608592 0
M  V30 11 C 4.121220 6.181010 0.644167 0
M  V30 12 C 4.480293 6.815728 1.811796 0
M  V30 13 C 3.653801 6.706160 2.935721 0
M  V30 14 C 2.486960 5.965459 2.869671 0
M  V30 15 C 1.465294 2.091247 1.172039 0
M  V30 16 C 0.650851 -2.369392 0.687788 0
M  V30 17 C 1.714534 -3.221488 0.475452 0
M  V30 18 C 1.506501 -4.493290 -0.020899 0
M  V30 19 C 0.253040 -4.968957 -0.324014 0
M  V30 20 N -0.265497 -6.118385 -0.805644 0
M  V30 21 C -1.620177 -5.982196 -0.890090 0
M  V30 22 N -1.968688 -4.753768 -0.465561 0
M  V30 23 C -0.814537 -4.116684 -0.111999 0
M  V30 24 C -0.610126 -2.844402 0.384169 0
M  V30 25 C -3.320454 -4.195706 -0.391964 0
M  V30 26 C -4.131719 -4.589303 -1.605082 0
M  V30 27 C -4.873284 -5.872408 -1.384163 0
M  V30 28 N -3.954273 -7.009905 -1.513148 0
M  V30 29 C -2.521834 -7.036797 -1.374557 0
M  V30 30 O -1.993046 -8.120817 -1.721579 0
M  V30 31 H 2.814797 -0.851551 1.471452 0
M  V30 32 H 1.210056 0.746882 4.183918 0
M  V30 33 H 0.576427 4.521053 0.525808 0
M  V30 34 H 0.006389 4.955493 2.159482 0
M  V30 35 H 2.645261 4.936657 -0.306460 0
M  V30 36 H 4.759549 6.263789 -0.229091 0
M  V30 37 H 5.405571 7.397411 1.848158 0
M  V30 38 H 3.992711 7.226239 3.814986 0
M  V30 39 H 1.855087 5.892251 3.758733 0
M  V30 40 H 1.637444 2.171049 0.110349 0
M  V30 41 H 2.684320 -2.813995 0.724726 0
M  V30 42 H 2.365612 -5.130515 -0.173328 0
M  V30 43 H -1.505396 -2.220081 0.528166 0
M  V30 44 H -3.830925 -4.539363 0.519337 0
M  V30 45 H -3.249454 -3.086883 -0.369123 0
M  V30 46 H -4.863990 -3.781831 -1.783043 0
M  V30 47 H -3.467587 -4.619556 -2.489883 0
M  V30 48 H -5.269961 -5.844744 -0.332879 0
M  V30 49 H -5.729076 -6.009897 -2.045536 0
M  V30 50 H -4.460338 -7.885008 -1.734180 0
M  V30 END ATOM
M  V30 BEGIN BOND
M  V30 1 2 1 2
M  V30 2 1 2 3
M  V30 3 1 3 4
M  V30 4 1 4 5
M  V30 5 2 5 6
M  V30 6 1 6 7
M  V30 7 1 7 8
M  V30 8 1 8 9
M  V30 9 2 9 10
M  V30 10 1 10 11
M  V30 11 2 11 12
M  V30 12 1 12 13
M  V30 13 2 13 14
M  V30 14 1 7 15
M  V30 15 1 2 16
M  V30 16 2 16 17
M  V30 17 1 17 18
M  V30 18 2 18 19
M  V30 19 1 19 20
M  V30 20 2 20 21
M  V30 21 1 21 22
M  V30 22 1 22 23
M  V30 23 2 23 24
M  V30 24 1 22 25
M  V30 25 1 25 26
M  V30 26 1 26 27
M  V30 27 1 27 28
M  V30 28 1 28 29
M  V30 29 2 29 30
M  V30 30 2 15 4
M  V30 31 1 24 16
M  V30 32 1 14 9
M  V30 33 1 23 19
M  V30 34 1 29 21
M  V30 35 1 3 31
M  V30 36 1 5 32
M  V30 37 1 8 33
M  V30 38 1 8 34
M  V30 39 1 10 35
M  V30 40 1 11 36
M  V30 41 1 12 37
M  V30 42 1 13 38
M  V30 43 1 14 39
M  V30 44 1 15 40
M  V30 45 1 17 41
M  V30 46 1 18 42
M  V30 47 1 24 43
M  V30 48 1 25 44
M  V30 49 1 25 45
M  V30 50 1 26 46
M  V30 51 1 26 47
M  V30 52 1 27 48
M  V30 53 1 27 49
M  V30 54 1 28 50
M  V30 END BOND
M  V30 END CTAB
M  END
>  <Dataset>  (767) 
ChEMBL_Kinases

>  <Ligand_Instance>  (767) 
nan

>  <PDB_ID>  (767) 
nan

>  <Standardized_SMILES>  (767) 
O=C(Nc1cnn(Cc2ccccc2)c1)c1ccc2nc3n(c2c1)CCCNC3=O

>  <Name>  (767) 
nan

>  <Pocket>  (767) 
nan

>  <ATP_Site>  (767) 
nan

>  <Peripheral>  (767) 
nan

>  <Num_H_Atoms_ProtBoundConf>  (767) 
nan

>  <Num_Resolved_Atoms>  (767) 
nan

>  <Num_Not_Resolved_Atoms>  (767) 
nan

$$$$
CHEMBL3675372
     RDKit          3D

  0  0  0  0  0  0  0  0  0  0999 V3000
M  V30 BEGIN CTAB
M  V30 COUNTS 51 54 0 0 0
M  V30 BEGIN ATOM
M  V30 1 N 1.174251 -0.397891 6.696198 0
M  V30 2 C 2.151880 -1.340128 6.337193 0
M  V30 3 O 2.395959 -2.192473 7.233346 0
M  V30 4 C 2.871803 -1.403841 5.066204 0
M  V30 5 C 3.789908 -2.398247 4.903594 0
M  V30 6 C 4.465540 -2.449410 3.697002 0
M  V30 7 C 4.190006 -1.510069 2.722290 0
M  V30 8 C 3.273093 -0.503662 2.863462 0
M  V30 9 C 3.037551 0.401309 1.867296 0
M  V30 10 N 3.712517 0.369726 0.637956 0
M  V30 11 C 3.516984 1.294135 -0.469472 0
M  V30 12 C 2.141048 1.256772 -1.016615 0
M  V30 13 C 1.019034 2.001345 -0.740865 0
M  V30 14 C -0.158069 1.750546 -1.395330 0
M  V30 15 C -0.291895 0.768806 -2.341956 0
M  V30 16 N -1.560549 0.560101 -2.990720 0
M  V30 17 C -2.380715 -0.368290 -2.311778 0
M  V30 18 O -1.880295 -0.846300 -1.280267 0
M  V30 19 N -3.667915 -0.763539 -2.715984 0
M  V30 20 C -4.556178 -1.679131 -2.105128 0
M  V30 21 C -4.353371 -2.402116 -0.954773 0
M  V30 22 C -5.244915 -3.275727 -0.404396 0
M  V30 23 C -6.460125 -3.477204 -1.023303 0
M  V30 24 C -6.699829 -2.768307 -2.181411 0
M  V30 25 C -5.776542 -1.902311 -2.697792 0
M  V30 26 C 0.819474 0.002766 -2.641679 0
M  V30 27 C 2.006127 0.255353 -1.981905 0
M  V30 28 N 2.107413 1.314505 2.182444 0
M  V30 29 C 1.460912 1.352772 3.354076 0
M  V30 30 N 1.700271 0.455973 4.329914 0
M  V30 31 C 2.633306 -0.497092 4.072917 0
M  V30 32 H 1.029963 0.567371 7.053941 0
M  V30 33 H 0.235787 -0.846644 6.541653 0
M  V30 34 H 3.972660 -3.108812 5.689864 0
M  V30 35 H 5.189094 -3.237342 3.575636 0
M  V30 36 H 4.763839 -1.638395 1.832968 0
M  V30 37 H 4.421444 -0.327542 0.406259 0
M  V30 38 H 3.690707 2.305211 -0.005097 0
M  V30 39 H 4.249878 1.208920 -1.269996 0
M  V30 40 H 1.207301 2.756099 0.008501 0
M  V30 41 H -0.999250 2.364434 -1.137304 0
M  V30 42 H -1.935618 1.003840 -3.882201 0
M  V30 43 H -3.952122 -0.280721 -3.594332 0
M  V30 44 H -3.419590 -2.283149 -0.429602 0
M  V30 45 H -5.018893 -3.812911 0.505951 0
M  V30 46 H -7.198781 -4.155039 -0.630926 0
M  V30 47 H -7.633317 -2.888595 -2.704548 0
M  V30 48 H -6.026697 -1.367102 -3.623288 0
M  V30 49 H 0.681548 -0.755196 -3.385226 0
M  V30 50 H 2.804148 -0.426417 -2.317678 0
M  V30 51 H 0.748920 2.186911 3.379566 0
M  V30 END ATOM
M  V30 BEGIN BOND
M  V30 1 1 1 2
M  V30 2 2 2 3
M  V30 3 1 2 4
M  V30 4 2 4 5
M  V30 5 1 5 6
M  V30 6 2 6 7
M  V30 7 1 7 8
M  V30 8 2 8 9
M  V30 9 1 9 10
M  V30 10 1 10 11
M  V30 11 1 11 12
M  V30 12 2 12 13
M  V30 13 1 13 14
M  V30 14 2 14 15
M  V30 15 1 15 16
M  V30 16 1 16 17
M  V30 17 2 17 18
M  V30 18 1 17 19
M  V30 19 1 19 20
M  V30 20 2 20 21
M  V30 21 1 21 22
M  V30 22 2 22 23
M  V30 23 1 23 24
M  V30 24 2 24 25
M  V30 25 1 15 26
M  V30 26 2 26 27
M  V30 27 1 9 28
M  V30 28 2 28 29
M  V30 29 1 29 30
M  V30 30 2 30 31
M  V30 31 1 31 4
M  V30 32 1 31 8
M  V30 33 1 27 12
M  V30 34 1 25 20
M  V30 35 1 1 32
M  V30 36 1 1 33
M  V30 37 1 5 34
M  V30 38 1 6 35
M  V30 39 1 7 36
M  V30 40 1 10 37
M  V30 41 1 11 38
M  V30 42 1 11 39
M  V30 43 1 13 40
M  V30 44 1 14 41
M  V30 45 1 16 42
M  V30 46 1 19 43
M  V30 47 1 21 44
M  V30 48 1 22 45
M  V30 49 1 23 46
M  V30 50 1 24 47
M  V30 51 1 25 48
M  V30 52 1 26 49
M  V30 53 1 27 50
M  V30 54 1 29 51
M  V30 END BOND
M  V30 END CTAB
M  END
>  <Dataset>  (768) 
ChEMBL_Kinases

>  <Ligand_Instance>  (768) 
nan

>  <PDB_ID>  (768) 
nan

>  <Standardized_SMILES>  (768) 
NC(=O)c1cccc2c(NCc3ccc(NC(=O)Nc4ccccc4)cc3)ncnc12

>  <Name>  (768) 
nan

>  <Pocket>  (768) 
nan

>  <ATP_Site>  (768) 
nan

>  <Peripheral>  (768) 
nan

>  <Num_H_Atoms_ProtBoundConf>  (768) 
nan

>  <Num_Resolved_Atoms>  (768) 
nan

>  <Num_Not_Resolved_Atoms>  (768) 
nan

$$$$
CHEMBL3673542
     RDKit          3D

  0  0  0  0  0  0  0  0  0  0999 V3000
M  V30 BEGIN CTAB
M  V30 COUNTS 56 60 0 0 0
M  V30 BEGIN ATOM
M  V30 1 O -4.891415 0.943262 -3.408102 0
M  V30 2 C -4.331702 0.978417 -2.282198 0
M  V30 3 C -5.313596 0.384342 -1.306861 0
M  V30 4 O -6.449639 0.034429 -2.034320 0
M  V30 5 N -3.117751 1.383062 -1.658238 0
M  V30 6 C -2.659089 1.324923 -0.282858 0
M  V30 7 C -1.230582 0.856881 -0.293344 0
M  V30 8 C -0.354553 1.352037 -1.132619 0
M  V30 9 C 1.045187 0.946280 -1.198937 0
M  V30 10 C 1.656971 -0.002990 -0.406855 0
M  V30 11 C 2.982537 -0.079711 -0.794729 0
M  V30 12 C 4.089265 -0.808400 -0.411272 0
M  V30 13 C 3.958442 -1.781972 0.668349 0
M  V30 14 C 5.030618 -2.535000 1.097514 0
M  V30 15 N 4.967747 -3.455892 2.097894 0
M  V30 16 C 3.772229 -3.653041 2.721123 0
M  V30 17 C 2.670973 -2.908718 2.311335 0
M  V30 18 O 1.454028 -3.110537 2.946925 0
M  V30 19 C 0.308743 -2.373549 2.560102 0
M  V30 20 C -0.880745 -2.747259 3.367805 0
M  V30 21 C -1.166806 -2.076113 4.536702 0
M  V30 22 C -2.268841 -2.423867 5.287628 0
M  V30 23 C -3.064414 -3.462225 4.822802 0
M  V30 24 C -2.787897 -4.139863 3.655937 0
M  V30 25 F -3.575724 -5.149788 3.218760 0
M  V30 26 C -1.679089 -3.791678 2.897955 0
M  V30 27 N 2.817762 -2.033932 1.330919 0
M  V30 28 C 5.272110 -0.575119 -1.076900 0
M  V30 29 C 5.396996 0.343519 -2.097328 0
M  V30 30 N 4.307332 1.042651 -2.455422 0
M  V30 31 C 3.126139 0.829495 -1.811634 0
M  V30 32 N 1.940067 1.459428 -2.061181 0
M  V30 33 C -0.908932 2.383007 -2.035783 0
M  V30 34 C -2.214859 1.959536 -2.657457 0
M  V30 35 H -5.646919 1.175847 -0.580085 0
M  V30 36 H -4.869660 -0.444360 -0.735749 0
M  V30 37 H -7.049985 -0.539926 -1.493599 0
M  V30 38 H -2.769447 2.292099 0.225389 0
M  V30 39 H -3.263857 0.507500 0.185412 0
M  V30 40 H -0.909865 0.086833 0.412233 0
M  V30 41 H 1.203301 -0.589900 0.377370 0
M  V30 42 H 6.007059 -2.453426 0.673263 0
M  V30 43 H 3.711079 -4.381438 3.516541 0
M  V30 44 H 0.081319 -2.591312 1.494547 0
M  V30 45 H 0.504020 -1.261682 2.582075 0
M  V30 46 H -0.499916 -1.279367 4.832153 0
M  V30 47 H -2.507096 -1.898181 6.218056 0
M  V30 48 H -3.952742 -3.771661 5.391364 0
M  V30 49 H -1.477727 -4.341317 1.976176 0
M  V30 50 H 6.157746 -1.105833 -0.825347 0
M  V30 51 H 6.339167 0.502643 -2.599529 0
M  V30 52 H 1.787378 2.207405 -2.801975 0
M  V30 53 H -0.202655 2.636053 -2.851162 0
M  V30 54 H -1.100301 3.329737 -1.480747 0
M  V30 55 H -2.773922 2.817191 -3.079512 0
M  V30 56 H -2.044987 1.185614 -3.429738 0
M  V30 END ATOM
M  V30 BEGIN BOND
M  V30 1 2 1 2
M  V30 2 1 2 3
M  V30 3 1 3 4
M  V30 4 1 2 5
M  V30 5 1 5 6
M  V30 6 1 6 7
M  V30 7 2 7 8
M  V30 8 1 8 9
M  V30 9 2 9 10
M  V30 10 1 10 11
M  V30 11 2 11 12
M  V30 12 1 12 13
M  V30 13 2 13 14
M  V30 14 1 14 15
M  V30 15 2 15 16
M  V30 16 1 16 17
M  V30 17 1 17 18
M  V30 18 1 18 19
M  V30 19 1 19 20
M  V30 20 2 20 21
M  V30 21 1 21 22
M  V30 22 2 22 23
M  V30 23 1 23 24
M  V30 24 1 24 25
M  V30 25 2 24 26
M  V30 26 2 17 27
M  V30 27 1 12 28
M  V30 28 2 28 29
M  V30 29 1 29 30
M  V30 30 2 30 31
M  V30 31 1 31 32
M  V30 32 1 8 33
M  V30 33 1 33 34
M  V30 34 1 34 5
M  V30 35 1 32 9
M  V30 36 1 31 11
M  V30 37 1 27 13
M  V30 38 1 26 20
M  V30 39 1 3 35
M  V30 40 1 3 36
M  V30 41 1 4 37
M  V30 42 1 6 38
M  V30 43 1 6 39
M  V30 44 1 7 40
M  V30 45 1 10 41
M  V30 46 1 14 42
M  V30 47 1 16 43
M  V30 48 1 19 44
M  V30 49 1 19 45
M  V30 50 1 21 46
M  V30 51 1 22 47
M  V30 52 1 23 48
M  V30 53 1 26 49
M  V30 54 1 28 50
M  V30 55 1 29 51
M  V30 56 1 32 52
M  V30 57 1 33 53
M  V30 58 1 33 54
M  V30 59 1 34 55
M  V30 60 1 34 56
M  V30 END BOND
M  V30 END CTAB
M  END
>  <Dataset>  (769) 
ChEMBL_Kinases

>  <Ligand_Instance>  (769) 
nan

>  <PDB_ID>  (769) 
nan

>  <Standardized_SMILES>  (769) 
O=C(CO)N1CC=C(c2cc3c(-c4cncc(OCc5cccc(F)c5)n4)ccnc3[nH]2)CC1

>  <Name>  (769) 
nan

>  <Pocket>  (769) 
nan

>  <ATP_Site>  (769) 
nan

>  <Peripheral>  (769) 
nan

>  <Num_H_Atoms_ProtBoundConf>  (769) 
nan

>  <Num_Resolved_Atoms>  (769) 
nan

>  <Num_Not_Resolved_Atoms>  (769) 
nan

$$$$
CHEMBL3673543
     RDKit          3D

  0  0  0  0  0  0  0  0  0  0999 V3000
M  V30 BEGIN CTAB
M  V30 COUNTS 58 62 0 0 0
M  V30 BEGIN ATOM
M  V30 1 C 5.815538 -3.103490 1.184844 0
M  V30 2 S 4.673804 -3.584276 -0.086290 0
M  V30 3 O 5.417574 -3.991476 -1.311115 0
M  V30 4 O 3.819400 -4.679813 0.465666 0
M  V30 5 N 3.662223 -2.231879 -0.415827 0
M  V30 6 C 4.425241 -1.086204 -0.905194 0
M  V30 7 C 3.368095 -0.150444 -1.431735 0
M  V30 8 C 2.339431 0.086979 -0.630216 0
M  V30 9 C 1.260737 0.983308 -1.053759 0
M  V30 10 C 0.131667 1.325269 -0.334875 0
M  V30 11 C -0.648735 2.198616 -1.083789 0
M  V30 12 C -1.870619 2.823403 -0.807119 0
M  V30 13 C -2.466162 2.527281 0.507448 0
M  V30 14 N -2.565154 1.200112 0.723532 0
M  V30 15 C -3.069209 0.637102 1.833279 0
M  V30 16 N -3.149156 -0.777176 2.007096 0
M  V30 17 C -2.665896 -1.612091 0.943142 0
M  V30 18 C -2.800229 -3.055122 1.230539 0
M  V30 19 C -3.916331 -3.798498 0.898001 0
M  V30 20 C -4.006859 -5.146708 1.182389 0
M  V30 21 C -2.982513 -5.812133 1.813633 0
M  V30 22 C -1.861579 -5.101822 2.156471 0
M  V30 23 F -0.822738 -5.704316 2.779652 0
M  V30 24 C -1.776045 -3.757196 1.870559 0
M  V30 25 C -3.511430 1.522197 2.808661 0
M  V30 26 F -4.037103 1.050308 3.965870 0
M  V30 27 C -3.433209 2.890843 2.638274 0
M  V30 28 C -2.904780 3.406650 1.475074 0
M  V30 29 F -2.749575 4.708662 1.135123 0
M  V30 30 C -2.411974 3.653416 -1.768234 0
M  V30 31 C -1.704800 3.809825 -2.942862 0
M  V30 32 N -0.531034 3.197902 -3.185442 0
M  V30 33 C 0.035342 2.376872 -2.272951 0
M  V30 34 N 1.177885 1.636351 -2.228769 0
M  V30 35 C 2.253946 -0.547488 0.714595 0
M  V30 36 C 3.005671 -1.833314 0.804149 0
M  V30 37 H 6.580660 -3.908212 1.295038 0
M  V30 38 H 5.318977 -3.002566 2.166360 0
M  V30 39 H 6.330255 -2.173320 0.936379 0
M  V30 40 H 5.011267 -1.441502 -1.773666 0
M  V30 41 H 4.998830 -0.657762 -0.087036 0
M  V30 42 H 3.407866 0.325144 -2.408641 0
M  V30 43 H -0.097253 0.954362 0.671952 0
M  V30 44 H -3.556400 -1.123540 2.901825 0
M  V30 45 H -1.577266 -1.426607 0.720612 0
M  V30 46 H -3.189486 -1.373122 -0.018259 0
M  V30 47 H -4.714710 -3.259491 0.401296 0
M  V30 48 H -4.895396 -5.718507 0.912684 0
M  V30 49 H -2.988794 -6.862139 2.064305 0
M  V30 50 H -0.873689 -3.199636 2.150543 0
M  V30 51 H -3.757240 3.622769 3.352733 0
M  V30 52 H -3.349084 4.117196 -1.526409 0
M  V30 53 H -2.147937 4.474640 -3.700746 0
M  V30 54 H 1.873834 1.600704 -3.014348 0
M  V30 55 H 2.550911 0.189104 1.491563 0
M  V30 56 H 1.182128 -0.790350 0.958352 0
M  V30 57 H 3.768591 -1.735147 1.610871 0
M  V30 58 H 2.367121 -2.711522 1.102034 0
M  V30 END ATOM
M  V30 BEGIN BOND
M  V30 1 1 1 2
M  V30 2 2 2 3
M  V30 3 2 2 4
M  V30 4 1 2 5
M  V30 5 1 5 6
M  V30 6 1 6 7
M  V30 7 2 7 8
M  V30 8 1 8 9
M  V30 9 2 9 10
M  V30 10 1 10 11
M  V30 11 2 11 12
M  V30 12 1 12 13
M  V30 13 2 13 14
M  V30 14 1 14 15
M  V30 15 1 15 16
M  V30 16 1 16 17
M  V30 17 1 17 18
M  V30 18 2 18 19
M  V30 19 1 19 20
M  V30 20 2 20 21
M  V30 21 1 21 22
M  V30 22 1 22 23
M  V30 23 2 22 24
M  V30 24 2 15 25
M  V30 25 1 25 26
M  V30 26 1 25 27
M  V30 27 2 27 28
M  V30 28 1 28 29
M  V30 29 1 12 30
M  V30 30 2 30 31
M  V30 31 1 31 32
M  V30 32 2 32 33
M  V30 33 1 33 34
M  V30 34 1 8 35
M  V30 35 1 35 36
M  V30 36 1 36 5
M  V30 37 1 34 9
M  V30 38 1 33 11
M  V30 39 1 28 13
M  V30 40 1 24 18
M  V30 41 1 1 37
M  V30 42 1 1 38
M  V30 43 1 1 39
M  V30 44 1 6 40
M  V30 45 1 6 41
M  V30 46 1 7 42
M  V30 47 1 10 43
M  V30 48 1 16 44
M  V30 49 1 17 45
M  V30 50 1 17 46
M  V30 51 1 19 47
M  V30 52 1 20 48
M  V30 53 1 21 49
M  V30 54 1 24 50
M  V30 55 1 27 51
M  V30 56 1 30 52
M  V30 57 1 31 53
M  V30 58 1 34 54
M  V30 59 1 35 55
M  V30 60 1 35 56
M  V30 61 1 36 57
M  V30 62 1 36 58
M  V30 END BOND
M  V30 END CTAB
M  END
>  <Dataset>  (770) 
ChEMBL_Kinases

>  <Ligand_Instance>  (770) 
nan

>  <PDB_ID>  (770) 
nan

>  <Standardized_SMILES>  (770) 
CS(=O)(=O)N1CC=C(c2cc3c(-c4nc(NCc5cccc(F)c5)c(F)cc4F)ccnc3[nH]2)CC1

>  <Name>  (770) 
nan

>  <Pocket>  (770) 
nan

>  <ATP_Site>  (770) 
nan

>  <Peripheral>  (770) 
nan

>  <Num_H_Atoms_ProtBoundConf>  (770) 
nan

>  <Num_Resolved_Atoms>  (770) 
nan

>  <Num_Not_Resolved_Atoms>  (770) 
nan

$$$$
CHEMBL3673544
     RDKit          3D

  0  0  0  0  0  0  0  0  0  0999 V3000
M  V30 BEGIN CTAB
M  V30 COUNTS 61 65 0 0 0
M  V30 BEGIN ATOM
M  V30 1 C 3.447159 -2.839867 5.634962 0
M  V30 2 N 2.502558 -2.159350 4.735148 0
M  V30 3 C 3.034981 -1.039257 4.077905 0
M  V30 4 O 4.255870 -0.688981 4.289831 0
M  V30 5 N 2.646126 -0.046576 3.154746 0
M  V30 6 C 3.630161 0.945039 2.770376 0
M  V30 7 C 3.375204 1.341022 1.318661 0
M  V30 8 C 2.009176 2.022428 1.222925 0
M  V30 9 C 1.430223 1.894062 -0.126945 0
M  V30 10 C 0.943142 0.875369 -0.913452 0
M  V30 11 C 0.501798 1.319429 -2.137031 0
M  V30 12 C -0.055416 0.595160 -3.198887 0
M  V30 13 C -0.246361 -0.844337 -3.102173 0
M  V30 14 N -0.877728 -1.214077 -1.980893 0
M  V30 15 C -1.157590 -2.487151 -1.708009 0
M  V30 16 N -1.785439 -3.164310 -0.655631 0
M  V30 17 C -2.420125 -3.848724 0.408233 0
M  V30 18 C -3.835233 -3.418657 0.668426 0
M  V30 19 C -4.990300 -3.936357 0.082605 0
M  V30 20 C -6.200119 -3.395609 0.461695 0
M  V30 21 C -6.316579 -2.380372 1.381108 0
M  V30 22 C -5.186774 -1.840332 1.986900 0
M  V30 23 F -5.301745 -0.846619 2.886310 0
M  V30 24 C -3.984522 -2.388007 1.601463 0
M  V30 25 C -0.793350 -3.501447 -2.601740 0
M  V30 26 F -0.974270 -4.850391 -2.529278 0
M  V30 27 C -0.130583 -3.185812 -3.792464 0
M  V30 28 C 0.107318 -1.843184 -3.972443 0
M  V30 29 F 0.735408 -1.393881 -5.080660 0
M  V30 30 C -0.400769 1.366040 -4.317055 0
M  V30 31 C -0.165248 2.744385 -4.272554 0
M  V30 32 N 0.374644 3.376207 -3.217595 0
M  V30 33 C 0.721636 2.662522 -2.116562 0
M  V30 34 N 1.276236 3.008240 -0.917147 0
M  V30 35 C 1.064810 1.513331 2.255418 0
M  V30 36 C 1.316211 0.059977 2.541888 0
M  V30 37 H 4.450856 -2.869813 5.203340 0
M  V30 38 H 3.093417 -3.912101 5.678013 0
M  V30 39 H 3.368593 -2.417055 6.645441 0
M  V30 40 H 1.522907 -2.251368 4.417532 0
M  V30 41 H 4.622097 0.476196 2.811037 0
M  V30 42 H 3.539337 1.871748 3.366376 0
M  V30 43 H 3.382511 0.461278 0.647823 0
M  V30 44 H 4.156765 2.036985 1.009271 0
M  V30 45 H 2.242218 3.094368 1.462447 0
M  V30 46 H 0.922855 -0.139861 -0.587733 0
M  V30 47 H -1.973942 -2.263053 -0.096162 0
M  V30 48 H -1.814767 -3.835042 1.333394 0
M  V30 49 H -2.529300 -4.963293 0.164127 0
M  V30 50 H -4.781455 -4.722299 -0.618730 0
M  V30 51 H -7.017397 -3.876086 -0.061788 0
M  V30 52 H -7.319731 -2.032245 1.597357 0
M  V30 53 H -3.114829 -1.954375 2.085966 0
M  V30 54 H 0.213997 -3.856671 -4.577601 0
M  V30 55 H -0.831604 0.860233 -5.163485 0
M  V30 56 H -0.433658 3.327844 -5.138591 0
M  V30 57 H 1.524091 4.017848 -0.702971 0
M  V30 58 H 1.268334 2.096094 3.207632 0
M  V30 59 H -0.000295 1.726692 2.025707 0
M  V30 60 H 1.380524 -0.585532 1.646257 0
M  V30 61 H 0.550152 -0.361020 3.242688 0
M  V30 END ATOM
M  V30 BEGIN BOND
M  V30 1 1 1 2
M  V30 2 1 2 3
M  V30 3 2 3 4
M  V30 4 1 3 5
M  V30 5 1 5 6
M  V30 6 1 6 7
M  V30 7 1 7 8
M  V30 8 1 8 9
M  V30 9 2 9 10
M  V30 10 1 10 11
M  V30 11 2 11 12
M  V30 12 1 12 13
M  V30 13 2 13 14
M  V30 14 1 14 15
M  V30 15 1 15 16
M  V30 16 1 16 17
M  V30 17 1 17 18
M  V30 18 2 18 19
M  V30 19 1 19 20
M  V30 20 2 20 21
M  V30 21 1 21 22
M  V30 22 1 22 23
M  V30 23 2 22 24
M  V30 24 2 15 25
M  V30 25 1 25 26
M  V30 26 1 25 27
M  V30 27 2 27 28
M  V30 28 1 28 29
M  V30 29 1 12 30
M  V30 30 2 30 31
M  V30 31 1 31 32
M  V30 32 2 32 33
M  V30 33 1 33 34
M  V30 34 1 8 35
M  V30 35 1 35 36
M  V30 36 1 36 5
M  V30 37 1 34 9
M  V30 38 1 33 11
M  V30 39 1 28 13
M  V30 40 1 24 18
M  V30 41 1 1 37
M  V30 42 1 1 38
M  V30 43 1 1 39
M  V30 44 1 2 40
M  V30 45 1 6 41
M  V30 46 1 6 42
M  V30 47 1 7 43
M  V30 48 1 7 44
M  V30 49 1 8 45
M  V30 50 1 10 46
M  V30 51 1 16 47
M  V30 52 1 17 48
M  V30 53 1 17 49
M  V30 54 1 19 50
M  V30 55 1 20 51
M  V30 56 1 21 52
M  V30 57 1 24 53
M  V30 58 1 27 54
M  V30 59 1 30 55
M  V30 60 1 31 56
M  V30 61 1 34 57
M  V30 62 1 35 58
M  V30 63 1 35 59
M  V30 64 1 36 60
M  V30 65 1 36 61
M  V30 END BOND
M  V30 END CTAB
M  END
>  <Dataset>  (771) 
ChEMBL_Kinases

>  <Ligand_Instance>  (771) 
nan

>  <PDB_ID>  (771) 
nan

>  <Standardized_SMILES>  (771) 
CNC(=O)N1CCC(c2cc3c(-c4nc(NCc5cccc(F)c5)c(F)cc4F)ccnc3[nH]2)CC1

>  <Name>  (771) 
nan

>  <Pocket>  (771) 
nan

>  <ATP_Site>  (771) 
nan

>  <Peripheral>  (771) 
nan

>  <Num_H_Atoms_ProtBoundConf>  (771) 
nan

>  <Num_Resolved_Atoms>  (771) 
nan

>  <Num_Not_Resolved_Atoms>  (771) 
nan

$$$$
CHEMBL3673545
     RDKit          3D

  0  0  0  0  0  0  0  0  0  0999 V3000
M  V30 BEGIN CTAB
M  V30 COUNTS 60 64 0 0 0
M  V30 BEGIN ATOM
M  V30 1 O 2.807930 -0.019009 3.772802 0
M  V30 2 C 2.659457 -1.118967 3.196232 0
M  V30 3 C 1.882389 -2.189216 3.929992 0
M  V30 4 O 2.262776 -3.449026 3.439620 0
M  V30 5 N 3.226001 -1.308535 1.935727 0
M  V30 6 C 4.332311 -0.388084 1.605560 0
M  V30 7 C 3.738091 0.616323 0.720622 0
M  V30 8 C 3.042245 0.085935 -0.516252 0
M  V30 9 C 2.089452 1.159419 -0.819995 0
M  V30 10 C 0.725079 0.854826 -0.340041 0
M  V30 11 C -0.213985 1.807096 -0.572381 0
M  V30 12 C -1.459807 2.443829 -0.568549 0
M  V30 13 C -2.349672 1.510100 0.229871 0
M  V30 14 N -3.094896 0.625335 -0.436150 0
M  V30 15 C -3.601907 -0.409754 0.264284 0
M  V30 16 N -4.098943 -1.664441 0.030053 0
M  V30 17 C -4.623993 -2.988533 -0.223806 0
M  V30 18 C -3.307114 -3.728123 -0.570698 0
M  V30 19 C -2.808823 -3.235181 -1.831062 0
M  V30 20 C -1.557604 -3.641021 -1.945823 0
M  V30 21 C -0.639009 -4.330971 -1.276287 0
M  V30 22 C -1.228755 -4.787631 -0.067505 0
M  V30 23 F -0.507426 -5.545671 0.818133 0
M  V30 24 C -2.559870 -4.461195 0.240289 0
M  V30 25 C -3.433593 -0.674367 1.738759 0
M  V30 26 F -3.749558 -1.551701 2.678387 0
M  V30 27 C -2.629218 0.328400 2.339449 0
M  V30 28 C -2.056985 1.443906 1.580940 0
M  V30 29 F -1.205673 2.332697 2.147450 0
M  V30 30 C -2.183638 3.408349 -0.868346 0
M  V30 31 C -1.174198 4.269590 -1.511642 0
M  V30 32 N 0.297300 4.197383 -1.809352 0
M  V30 33 C 0.507231 2.833699 -1.246030 0
M  V30 34 N 1.604241 2.132576 -1.181431 0
M  V30 35 C 2.465675 -1.248018 -0.396975 0
M  V30 36 C 2.896436 -2.121774 0.779832 0
M  V30 37 H 2.103385 -2.096144 5.012422 0
M  V30 38 H 0.778870 -2.052619 3.777890 0
M  V30 39 H 1.552671 -4.070919 3.462996 0
M  V30 40 H 4.737092 0.058487 2.566054 0
M  V30 41 H 5.113421 -1.043707 1.180576 0
M  V30 42 H 3.010555 1.255396 1.294963 0
M  V30 43 H 4.516238 1.331443 0.368395 0
M  V30 44 H 3.837039 0.190820 -1.324985 0
M  V30 45 H 0.114356 0.014575 0.176981 0
M  V30 46 H -3.922702 -1.548821 -1.096584 0
M  V30 47 H -5.311209 -3.140810 -0.994999 0
M  V30 48 H -5.019719 -3.407966 0.724943 0
M  V30 49 H -3.373101 -2.679530 -2.586209 0
M  V30 50 H -1.107943 -3.304634 -2.944386 0
M  V30 51 H 0.372391 -4.544486 -1.483195 0
M  V30 52 H -3.043231 -4.764323 1.170181 0
M  V30 53 H -2.295447 0.369108 3.407669 0
M  V30 54 H -3.153211 3.799019 -0.894483 0
M  V30 55 H -1.479007 5.213678 -2.029360 0
M  V30 56 H 2.552358 2.572753 -1.673443 0
M  V30 57 H 2.770100 -1.885467 -1.295784 0
M  V30 58 H 1.364274 -1.307723 -0.457195 0
M  V30 59 H 2.051276 -2.732859 1.109035 0
M  V30 60 H 3.736270 -2.758482 0.527712 0
M  V30 END ATOM
M  V30 BEGIN BOND
M  V30 1 2 1 2
M  V30 2 1 2 3
M  V30 3 1 3 4
M  V30 4 1 2 5
M  V30 5 1 5 6
M  V30 6 1 6 7
M  V30 7 1 7 8
M  V30 8 1 8 9
M  V30 9 2 9 10
M  V30 10 1 10 11
M  V30 11 2 11 12
M  V30 12 1 12 13
M  V30 13 2 13 14
M  V30 14 1 14 15
M  V30 15 1 15 16
M  V30 16 1 16 17
M  V30 17 1 17 18
M  V30 18 2 18 19
M  V30 19 1 19 20
M  V30 20 2 20 21
M  V30 21 1 21 22
M  V30 22 1 22 23
M  V30 23 2 22 24
M  V30 24 2 15 25
M  V30 25 1 25 26
M  V30 26 1 25 27
M  V30 27 2 27 28
M  V30 28 1 28 29
M  V30 29 1 12 30
M  V30 30 2 30 31
M  V30 31 1 31 32
M  V30 32 2 32 33
M  V30 33 1 33 34
M  V30 34 1 8 35
M  V30 35 1 35 36
M  V30 36 1 36 5
M  V30 37 1 34 9
M  V30 38 1 33 11
M  V30 39 1 28 13
M  V30 40 1 24 18
M  V30 41 1 3 37
M  V30 42 1 3 38
M  V30 43 1 4 39
M  V30 44 1 6 40
M  V30 45 1 6 41
M  V30 46 1 7 42
M  V30 47 1 7 43
M  V30 48 1 8 44
M  V30 49 1 10 45
M  V30 50 1 16 46
M  V30 51 1 17 47
M  V30 52 1 17 48
M  V30 53 1 19 49
M  V30 54 1 20 50
M  V30 55 1 21 51
M  V30 56 1 24 52
M  V30 57 1 27 53
M  V30 58 1 30 54
M  V30 59 1 31 55
M  V30 60 1 34 56
M  V30 61 1 35 57
M  V30 62 1 35 58
M  V30 63 1 36 59
M  V30 64 1 36 60
M  V30 END BOND
M  V30 END CTAB
M  END
>  <Dataset>  (772) 
ChEMBL_Kinases

>  <Ligand_Instance>  (772) 
nan

>  <PDB_ID>  (772) 
nan

>  <Standardized_SMILES>  (772) 
O=C(CO)N1CCC(c2cc3c(-c4nc(NCc5cccc(F)c5)c(F)cc4F)ccnc3[nH]2)CC1

>  <Name>  (772) 
nan

>  <Pocket>  (772) 
nan

>  <ATP_Site>  (772) 
nan

>  <Peripheral>  (772) 
nan

>  <Num_H_Atoms_ProtBoundConf>  (772) 
nan

>  <Num_Resolved_Atoms>  (772) 
nan

>  <Num_Not_Resolved_Atoms>  (772) 
nan

$$$$
CHEMBL3673546
     RDKit          3D

  0  0  0  0  0  0  0  0  0  0999 V3000
M  V30 BEGIN CTAB
M  V30 COUNTS 55 59 0 0 0
M  V30 BEGIN ATOM
M  V30 1 O -0.687547 -6.472170 0.459564 0
M  V30 2 C 0.550679 -6.251321 0.664114 0
M  V30 3 O 1.259415 -7.440376 0.580952 0
M  V30 4 C 1.093861 -4.894644 0.945615 0
M  V30 5 C -0.040539 -3.932126 0.935542 0
M  V30 6 C 0.277746 -2.636704 0.289940 0
M  V30 7 C 1.094660 -2.612748 -0.748245 0
M  V30 8 C 1.417162 -1.344701 -1.394060 0
M  V30 9 C 0.948604 -0.098445 -1.034782 0
M  V30 10 C 1.467707 0.866178 -1.872487 0
M  V30 11 C 1.363989 2.237525 -1.998319 0
M  V30 12 C 0.519197 2.974853 -1.067567 0
M  V30 13 C 0.388724 4.344317 -1.159219 0
M  V30 14 N -0.388363 5.082486 -0.314311 0
M  V30 15 C -1.076532 4.449734 0.675105 0
M  V30 16 C -0.955594 3.079753 0.778918 0
M  V30 17 N -1.649251 2.347619 1.793912 0
M  V30 18 C -1.574822 0.911226 1.969096 0
M  V30 19 C -2.395256 0.422211 3.098966 0
M  V30 20 C -3.719351 0.054048 2.884585 0
M  V30 21 C -4.572300 -0.412053 3.854552 0
M  V30 22 C -4.094821 -0.530255 5.146528 0
M  V30 23 C -2.792026 -0.173998 5.386423 0
M  V30 24 C -1.948349 0.291491 4.405435 0
M  V30 25 N -0.185786 2.412971 -0.070164 0
M  V30 26 C 2.088470 2.792072 -3.019025 0
M  V30 27 C 2.875383 2.080799 -3.881436 0
M  V30 28 N 2.947637 0.739223 -3.721371 0
M  V30 29 C 2.267191 0.137741 -2.747589 0
M  V30 30 N 2.227882 -1.169758 -2.452734 0
M  V30 31 C 1.691042 -3.873996 -1.266374 0
M  V30 32 C 2.181967 -4.617993 -0.039919 0
M  V30 33 H 0.926916 -8.294240 1.035627 0
M  V30 34 H 1.596736 -4.977548 1.952510 0
M  V30 35 H -0.256040 -3.690345 2.006972 0
M  V30 36 H -0.980509 -4.390443 0.557768 0
M  V30 37 H -0.156454 -1.703454 0.664400 0
M  V30 38 H 0.276999 0.093327 -0.220894 0
M  V30 39 H 0.893210 4.937146 -1.908715 0
M  V30 40 H -1.723060 4.914006 1.406140 0
M  V30 41 H -2.254176 2.874876 2.460459 0
M  V30 42 H -1.920964 0.390202 1.052247 0
M  V30 43 H -0.508517 0.633888 2.104535 0
M  V30 44 H -4.100054 0.144785 1.871483 0
M  V30 45 H -5.583338 -0.670882 3.582995 0
M  V30 46 H -4.802871 -0.900063 5.868895 0
M  V30 47 H -2.424575 -0.270498 6.407494 0
M  V30 48 H -0.926494 0.572729 4.584855 0
M  V30 49 H 2.050231 3.849261 -3.168827 0
M  V30 50 H 3.425227 2.570585 -4.669020 0
M  V30 51 H 2.735226 -1.947520 -2.948928 0
M  V30 52 H 0.899642 -4.528286 -1.709930 0
M  V30 53 H 2.548730 -3.706574 -1.914043 0
M  V30 54 H 2.618969 -5.565490 -0.396522 0
M  V30 55 H 3.029466 -4.039356 0.406100 0
M  V30 END ATOM
M  V30 BEGIN BOND
M  V30 1 2 1 2
M  V30 2 1 2 3
M  V30 3 1 2 4
M  V30 4 1 4 5
M  V30 5 1 5 6
M  V30 6 2 6 7
M  V30 7 1 7 8
M  V30 8 2 8 9
M  V30 9 1 9 10
M  V30 10 2 10 11
M  V30 11 1 11 12
M  V30 12 2 12 13
M  V30 13 1 13 14
M  V30 14 2 14 15
M  V30 15 1 15 16
M  V30 16 1 16 17
M  V30 17 1 17 18
M  V30 18 1 18 19
M  V30 19 2 19 20
M  V30 20 1 20 21
M  V30 21 2 21 22
M  V30 22 1 22 23
M  V30 23 2 23 24
M  V30 24 2 16 25
M  V30 25 1 11 26
M  V30 26 2 26 27
M  V30 27 1 27 28
M  V30 28 2 28 29
M  V30 29 1 29 30
M  V30 30 1 7 31
M  V30 31 1 31 32
M  V30 32 1 32 4
M  V30 33 1 30 8
M  V30 34 1 29 10
M  V30 35 1 25 12
M  V30 36 1 24 19
M  V30 37 1 3 33
M  V30 38 1 4 34
M  V30 39 1 5 35
M  V30 40 1 5 36
M  V30 41 1 6 37
M  V30 42 1 9 38
M  V30 43 1 13 39
M  V30 44 1 15 40
M  V30 45 1 17 41
M  V30 46 1 18 42
M  V30 47 1 18 43
M  V30 48 1 20 44
M  V30 49 1 21 45
M  V30 50 1 22 46
M  V30 51 1 23 47
M  V30 52 1 24 48
M  V30 53 1 26 49
M  V30 54 1 27 50
M  V30 55 1 30 51
M  V30 56 1 31 52
M  V30 57 1 31 53
M  V30 58 1 32 54
M  V30 59 1 32 55
M  V30 END BOND
M  V30 END CTAB
M  END
>  <Dataset>  (773) 
ChEMBL_Kinases

>  <Ligand_Instance>  (773) 
nan

>  <PDB_ID>  (773) 
nan

>  <Standardized_SMILES>  (773) 
O=C(O)C1CC=C(c2cc3c(-c4cncc(NCc5ccccc5)n4)ccnc3[nH]2)CC1

>  <Name>  (773) 
nan

>  <Pocket>  (773) 
nan

>  <ATP_Site>  (773) 
nan

>  <Peripheral>  (773) 
nan

>  <Num_H_Atoms_ProtBoundConf>  (773) 
nan

>  <Num_Resolved_Atoms>  (773) 
nan

>  <Num_Not_Resolved_Atoms>  (773) 
nan

$$$$
CHEMBL3673547
     RDKit          3D

  0  0  0  0  0  0  0  0  0  0999 V3000
M  V30 BEGIN CTAB
M  V30 COUNTS 59 63 0 0 0
M  V30 BEGIN ATOM
M  V30 1 C -3.994505 -8.544407 -0.085344 0
M  V30 2 N -3.169405 -7.467778 0.377054 0
M  V30 3 C -2.470069 -6.542142 -0.445869 0
M  V30 4 O -2.515324 -6.589218 -1.710334 0
M  V30 5 C -1.688258 -5.523212 0.343768 0
M  V30 6 C -0.965250 -4.564640 -0.545959 0
M  V30 7 C -0.928874 -3.167726 -0.022751 0
M  V30 8 C -2.029421 -2.606431 0.453318 0
M  V30 9 C -2.149286 -1.260519 0.993306 0
M  V30 10 C -1.139583 -0.335538 1.117939 0
M  V30 11 C -1.671210 0.806338 1.667131 0
M  V30 12 C -1.212236 2.058679 2.037614 0
M  V30 13 C 0.201507 2.359792 1.849003 0
M  V30 14 C 0.736078 3.571709 2.226370 0
M  V30 15 N 2.029034 3.897118 2.086317 0
M  V30 16 C 2.892429 3.017604 1.549392 0
M  V30 17 C 2.388453 1.797248 1.162049 0
M  V30 18 N 3.269362 0.834625 0.600079 0
M  V30 19 C 3.618174 0.913381 -0.811764 0
M  V30 20 C 4.316884 2.195783 -1.109461 0
M  V30 21 C 3.694581 3.373651 -1.494153 0
M  V30 22 C 4.492120 4.493026 -1.729802 0
M  V30 23 C 5.858298 4.515808 -1.608499 0
M  V30 24 C 6.495221 3.336261 -1.222265 0
M  V30 25 C 5.709309 2.225291 -0.987796 0
M  V30 26 N 1.087329 1.500077 1.315314 0
M  V30 27 C -2.119394 2.949042 2.574354 0
M  V30 28 C -3.452417 2.645615 2.755621 0
M  V30 29 N -3.872423 1.432331 2.391848 0
M  V30 30 C -3.024640 0.506018 1.854658 0
M  V30 31 N -3.298128 -0.743956 1.443803 0
M  V30 32 C -3.195860 -3.539758 0.387831 0
M  V30 33 C -2.725398 -4.780466 1.162984 0
M  V30 34 H -4.907997 -8.649170 0.551443 0
M  V30 35 H -4.383901 -8.381495 -1.114266 0
M  V30 36 H -3.470144 -9.525205 -0.032679 0
M  V30 37 H -3.132522 -7.434640 1.440531 0
M  V30 38 H -0.987913 -6.094714 0.985663 0
M  V30 39 H 0.065699 -4.871788 -0.781357 0
M  V30 40 H -1.536107 -4.549492 -1.520157 0
M  V30 41 H -0.020868 -2.544351 -0.001658 0
M  V30 42 H -0.124135 -0.470279 0.841230 0
M  V30 43 H 0.154535 4.355856 2.665818 0
M  V30 44 H 3.940395 3.246842 1.421686 0
M  V30 45 H 3.635288 0.094775 1.241450 0
M  V30 46 H 2.701712 0.840819 -1.403464 0
M  V30 47 H 4.315210 0.095348 -1.025230 0
M  V30 48 H 2.624072 3.358414 -1.589605 0
M  V30 49 H 4.001990 5.423411 -2.032737 0
M  V30 50 H 6.418700 5.418263 -1.806109 0
M  V30 51 H 7.568837 3.281311 -1.106605 0
M  V30 52 H 6.217277 1.316930 -0.688807 0
M  V30 53 H -1.807548 3.926456 2.873344 0
M  V30 54 H -4.133245 3.386880 3.185570 0
M  V30 55 H -4.229922 -1.192307 1.481652 0
M  V30 56 H -4.077380 -3.157233 0.963006 0
M  V30 57 H -3.510548 -3.791382 -0.624062 0
M  V30 58 H -3.607285 -5.404761 1.419302 0
M  V30 59 H -2.212427 -4.457029 2.089830 0
M  V30 END ATOM
M  V30 BEGIN BOND
M  V30 1 1 1 2
M  V30 2 1 2 3
M  V30 3 2 3 4
M  V30 4 1 3 5
M  V30 5 1 5 6
M  V30 6 1 6 7
M  V30 7 2 7 8
M  V30 8 1 8 9
M  V30 9 2 9 10
M  V30 10 1 10 11
M  V30 11 2 11 12
M  V30 12 1 12 13
M  V30 13 2 13 14
M  V30 14 1 14 15
M  V30 15 2 15 16
M  V30 16 1 16 17
M  V30 17 1 17 18
M  V30 18 1 18 19
M  V30 19 1 19 20
M  V30 20 2 20 21
M  V30 21 1 21 22
M  V30 22 2 22 23
M  V30 23 1 23 24
M  V30 24 2 24 25
M  V30 25 2 17 26
M  V30 26 1 12 27
M  V30 27 2 27 28
M  V30 28 1 28 29
M  V30 29 2 29 30
M  V30 30 1 30 31
M  V30 31 1 8 32
M  V30 32 1 32 33
M  V30 33 1 33 5
M  V30 34 1 31 9
M  V30 35 1 30 11
M  V30 36 1 26 13
M  V30 37 1 25 20
M  V30 38 1 1 34
M  V30 39 1 1 35
M  V30 40 1 1 36
M  V30 41 1 2 37
M  V30 42 1 5 38
M  V30 43 1 6 39
M  V30 44 1 6 40
M  V30 45 1 7 41
M  V30 46 1 10 42
M  V30 47 1 14 43
M  V30 48 1 16 44
M  V30 49 1 18 45
M  V30 50 1 19 46
M  V30 51 1 19 47
M  V30 52 1 21 48
M  V30 53 1 22 49
M  V30 54 1 23 50
M  V30 55 1 24 51
M  V30 56 1 25 52
M  V30 57 1 27 53
M  V30 58 1 28 54
M  V30 59 1 31 55
M  V30 60 1 32 56
M  V30 61 1 32 57
M  V30 62 1 33 58
M  V30 63 1 33 59
M  V30 END BOND
M  V30 END CTAB
M  END
>  <Dataset>  (774) 
ChEMBL_Kinases

>  <Ligand_Instance>  (774) 
nan

>  <PDB_ID>  (774) 
nan

>  <Standardized_SMILES>  (774) 
CNC(=O)C1CC=C(c2cc3c(-c4cncc(NCc5ccccc5)n4)ccnc3[nH]2)CC1

>  <Name>  (774) 
nan

>  <Pocket>  (774) 
nan

>  <ATP_Site>  (774) 
nan

>  <Peripheral>  (774) 
nan

>  <Num_H_Atoms_ProtBoundConf>  (774) 
nan

>  <Num_Resolved_Atoms>  (774) 
nan

>  <Num_Not_Resolved_Atoms>  (774) 
nan

$$$$
CHEMBL3673548
     RDKit          3D

  0  0  0  0  0  0  0  0  0  0999 V3000
M  V30 BEGIN CTAB
M  V30 COUNTS 55 59 0 0 0
M  V30 BEGIN ATOM
M  V30 1 O -0.168672 -6.478143 3.769028 0
M  V30 2 C -0.070491 -5.704536 2.755213 0
M  V30 3 O -0.922617 -6.648808 2.230123 0
M  V30 4 C 0.757584 -4.447847 2.716634 0
M  V30 5 C -0.084616 -3.262120 2.436274 0
M  V30 6 C 0.391503 -2.357043 1.381570 0
M  V30 7 C 1.214180 -2.817248 0.461804 0
M  V30 8 C 1.695111 -1.925966 -0.592721 0
M  V30 9 C 1.351953 -0.599497 -0.732840 0
M  V30 10 C 1.965787 -0.002276 -1.826227 0
M  V30 11 C 1.991296 1.240729 -2.419792 0
M  V30 12 C 1.187677 2.301431 -1.820362 0
M  V30 13 C 1.160066 3.589528 -2.311640 0
M  V30 14 N 0.430452 4.585775 -1.772409 0
M  V30 15 C -0.336171 4.340292 -0.677032 0
M  V30 16 C -0.339980 3.066636 -0.151487 0
M  V30 17 N -1.026810 2.519761 0.970994 0
M  V30 18 C -2.329034 2.129004 0.463177 0
M  V30 19 C -3.079439 1.487515 1.600019 0
M  V30 20 C -3.879617 2.125069 2.525625 0
M  V30 21 C -4.504549 1.385088 3.506902 0
M  V30 22 C -4.364488 0.014875 3.607783 0
M  V30 23 C -3.560266 -0.640236 2.680305 0
M  V30 24 F -3.444028 -1.977300 2.805187 0
M  V30 25 C -2.935057 0.097897 1.699259 0
M  V30 26 N 0.404898 2.146240 -0.741341 0
M  V30 27 C 2.762708 1.417092 -3.530681 0
M  V30 28 C 3.505166 0.368663 -4.051354 0
M  V30 29 N 3.481657 -0.853598 -3.469749 0
M  V30 30 C 2.716323 -1.054182 -2.356389 0
M  V30 31 N 2.534451 -2.160244 -1.612176 0
M  V30 32 C 1.718721 -4.224011 0.392724 0
M  V30 33 C 1.908174 -4.689591 1.807412 0
M  V30 34 H -1.904321 -6.459403 2.013913 0
M  V30 35 H 1.186451 -4.398038 3.762137 0
M  V30 36 H -0.172021 -2.652294 3.382606 0
M  V30 37 H -1.148210 -3.610149 2.275421 0
M  V30 38 H 0.044489 -1.339276 1.401125 0
M  V30 39 H 0.679087 -0.090816 -0.060422 0
M  V30 40 H 1.742211 3.861828 -3.178328 0
M  V30 41 H -0.981850 5.015094 -0.115949 0
M  V30 42 H -0.669085 2.417215 1.968871 0
M  V30 43 H -2.858544 3.089215 0.186254 0
M  V30 44 H -2.296262 1.478922 -0.416027 0
M  V30 45 H -3.955772 3.205859 2.401311 0
M  V30 46 H -5.117768 1.919961 4.209343 0
M  V30 47 H -4.889853 -0.495379 4.408033 0
M  V30 48 H -2.336172 -0.517152 1.035743 0
M  V30 49 H 2.815318 2.362355 -4.025939 0
M  V30 50 H 4.120260 0.485500 -4.925874 0
M  V30 51 H 2.974032 -3.093765 -1.778091 0
M  V30 52 H 0.925545 -4.870909 -0.066715 0
M  V30 53 H 2.678493 -4.282091 -0.126237 0
M  V30 54 H 2.166510 -5.782034 1.787786 0
M  V30 55 H 2.810672 -4.158526 2.224451 0
M  V30 END ATOM
M  V30 BEGIN BOND
M  V30 1 2 1 2
M  V30 2 1 2 3
M  V30 3 1 2 4
M  V30 4 1 4 5
M  V30 5 1 5 6
M  V30 6 2 6 7
M  V30 7 1 7 8
M  V30 8 2 8 9
M  V30 9 1 9 10
M  V30 10 2 10 11
M  V30 11 1 11 12
M  V30 12 2 12 13
M  V30 13 1 13 14
M  V30 14 2 14 15
M  V30 15 1 15 16
M  V30 16 1 16 17
M  V30 17 1 17 18
M  V30 18 1 18 19
M  V30 19 2 19 20
M  V30 20 1 20 21
M  V30 21 2 21 22
M  V30 22 1 22 23
M  V30 23 1 23 24
M  V30 24 2 23 25
M  V30 25 2 16 26
M  V30 26 1 11 27
M  V30 27 2 27 28
M  V30 28 1 28 29
M  V30 29 2 29 30
M  V30 30 1 30 31
M  V30 31 1 7 32
M  V30 32 1 32 33
M  V30 33 1 33 4
M  V30 34 1 31 8
M  V30 35 1 30 10
M  V30 36 1 26 12
M  V30 37 1 25 19
M  V30 38 1 3 34
M  V30 39 1 4 35
M  V30 40 1 5 36
M  V30 41 1 5 37
M  V30 42 1 6 38
M  V30 43 1 9 39
M  V30 44 1 13 40
M  V30 45 1 15 41
M  V30 46 1 17 42
M  V30 47 1 18 43
M  V30 48 1 18 44
M  V30 49 1 20 45
M  V30 50 1 21 46
M  V30 51 1 22 47
M  V30 52 1 25 48
M  V30 53 1 27 49
M  V30 54 1 28 50
M  V30 55 1 31 51
M  V30 56 1 32 52
M  V30 57 1 32 53
M  V30 58 1 33 54
M  V30 59 1 33 55
M  V30 END BOND
M  V30 END CTAB
M  END
>  <Dataset>  (775) 
ChEMBL_Kinases

>  <Ligand_Instance>  (775) 
nan

>  <PDB_ID>  (775) 
nan

>  <Standardized_SMILES>  (775) 
O=C(O)C1CC=C(c2cc3c(-c4cncc(NCc5cccc(F)c5)n4)ccnc3[nH]2)CC1

>  <Name>  (775) 
nan

>  <Pocket>  (775) 
nan

>  <ATP_Site>  (775) 
nan

>  <Peripheral>  (775) 
nan

>  <Num_H_Atoms_ProtBoundConf>  (775) 
nan

>  <Num_Resolved_Atoms>  (775) 
nan

>  <Num_Not_Resolved_Atoms>  (775) 
nan

$$$$
CHEMBL3673568
     RDKit          3D

  0  0  0  0  0  0  0  0  0  0999 V3000
M  V30 BEGIN CTAB
M  V30 COUNTS 42 45 0 0 0
M  V30 BEGIN ATOM
M  V30 1 C 0.386707 -6.799720 -1.888369 0
M  V30 2 C 1.295532 -5.622124 -1.908240 0
M  V30 3 C 2.663227 -5.793721 -1.814927 0
M  V30 4 C 3.635723 -4.814399 -1.818412 0
M  V30 5 N 3.155831 -3.541493 -1.928049 0
M  V30 6 C 1.833424 -3.302575 -2.022902 0
M  V30 7 N 1.369134 -1.945214 -2.136952 0
M  V30 8 C 1.139824 -1.425309 -0.840385 0
M  V30 9 O 1.400863 -2.282838 0.071431 0
M  V30 10 C 0.661819 -0.072638 -0.554326 0
M  V30 11 C 0.376676 0.861393 -1.525111 0
M  V30 12 C -0.066855 2.099493 -1.105868 0
M  V30 13 C -0.238843 2.450411 0.217318 0
M  V30 14 N -0.654075 3.583800 0.841185 0
M  V30 15 C -0.623821 3.346726 2.183907 0
M  V30 16 N -0.195243 2.084485 2.370521 0
M  V30 17 C 0.055939 1.488244 1.190132 0
M  V30 18 C 0.499617 0.249091 0.776420 0
M  V30 19 C -0.001392 1.382776 3.629071 0
M  V30 20 C -1.053421 1.713912 4.638269 0
M  V30 21 C -0.756560 2.972049 5.428974 0
M  V30 22 N -0.959732 4.162530 4.644451 0
M  V30 23 C -0.993047 4.300028 3.229034 0
M  V30 24 O -1.403843 5.415204 2.792054 0
M  V30 25 C 0.876404 -4.296819 -2.017538 0
M  V30 26 H 0.557525 -7.392944 -0.980903 0
M  V30 27 H 0.423439 -7.365082 -2.830719 0
M  V30 28 H -0.651479 -6.381361 -1.787022 0
M  V30 29 H 3.022632 -6.830871 -1.727488 0
M  V30 30 H 4.678798 -5.087581 -1.738229 0
M  V30 31 H 1.180817 -1.307941 -2.962678 0
M  V30 32 H 0.510763 0.588463 -2.562826 0
M  V30 33 H -0.299791 2.855921 -1.839761 0
M  V30 34 H 0.713563 -0.458622 1.566838 0
M  V30 35 H 0.058125 0.286891 3.463570 0
M  V30 36 H 0.994295 1.654709 4.074521 0
M  V30 37 H -1.088920 0.874620 5.383946 0
M  V30 38 H -2.071170 1.770145 4.205731 0
M  V30 39 H -1.502826 2.979338 6.263105 0
M  V30 40 H 0.220778 2.902037 5.915338 0
M  V30 41 H -1.099182 5.029996 5.229173 0
M  V30 42 H -0.186364 -4.123556 -2.092572 0
M  V30 END ATOM
M  V30 BEGIN BOND
M  V30 1 1 1 2
M  V30 2 2 2 3
M  V30 3 1 3 4
M  V30 4 2 4 5
M  V30 5 1 5 6
M  V30 6 1 6 7
M  V30 7 1 7 8
M  V30 8 2 8 9
M  V30 9 1 8 10
M  V30 10 2 10 11
M  V30 11 1 11 12
M  V30 12 2 12 13
M  V30 13 1 13 14
M  V30 14 2 14 15
M  V30 15 1 15 16
M  V30 16 1 16 17
M  V30 17 2 17 18
M  V30 18 1 16 19
M  V30 19 1 19 20
M  V30 20 1 20 21
M  V30 21 1 21 22
M  V30 22 1 22 23
M  V30 23 2 23 24
M  V30 24 2 6 25
M  V30 25 1 25 2
M  V30 26 1 18 10
M  V30 27 1 17 13
M  V30 28 1 23 15
M  V30 29 1 1 26
M  V30 30 1 1 27
M  V30 31 1 1 28
M  V30 32 1 3 29
M  V30 33 1 4 30
M  V30 34 1 7 31
M  V30 35 1 11 32
M  V30 36 1 12 33
M  V30 37 1 18 34
M  V30 38 1 19 35
M  V30 39 1 19 36
M  V30 40 1 20 37
M  V30 41 1 20 38
M  V30 42 1 21 39
M  V30 43 1 21 40
M  V30 44 1 22 41
M  V30 45 1 25 42
M  V30 END BOND
M  V30 END CTAB
M  END
>  <Dataset>  (776) 
ChEMBL_Kinases

>  <Ligand_Instance>  (776) 
nan

>  <PDB_ID>  (776) 
nan

>  <Standardized_SMILES>  (776) 
Cc1ccnc(NC(=O)c2ccc3nc4n(c3c2)CCCNC4=O)c1

>  <Name>  (776) 
nan

>  <Pocket>  (776) 
nan

>  <ATP_Site>  (776) 
nan

>  <Peripheral>  (776) 
nan

>  <Num_H_Atoms_ProtBoundConf>  (776) 
nan

>  <Num_Resolved_Atoms>  (776) 
nan

>  <Num_Not_Resolved_Atoms>  (776) 
nan

$$$$
CHEMBL3673550
     RDKit          3D

  0  0  0  0  0  0  0  0  0  0999 V3000
M  V30 BEGIN CTAB
M  V30 COUNTS 58 62 0 0 0
M  V30 BEGIN ATOM
M  V30 1 C 4.437808 -6.592345 0.989766 0
M  V30 2 N 3.561649 -5.450177 1.263807 0
M  V30 3 C 3.502666 -4.691219 0.086466 0
M  V30 4 O 4.082136 -4.934448 -0.999425 0
M  V30 5 C 2.802222 -3.446665 -0.264196 0
M  V30 6 C 3.089497 -3.055518 -1.700949 0
M  V30 7 C 2.278153 -1.841030 -2.066323 0
M  V30 8 C 1.246285 -1.473592 -1.295041 0
M  V30 9 C 0.528045 -0.261379 -1.759758 0
M  V30 10 C -0.560904 0.340811 -1.153934 0
M  V30 11 C -0.944118 1.445038 -1.869306 0
M  V30 12 C -1.940309 2.379311 -1.712502 0
M  V30 13 C -2.896474 2.364822 -0.626350 0
M  V30 14 C -3.916682 3.290577 -0.589202 0
M  V30 15 N -4.848731 3.304199 0.410847 0
M  V30 16 C -4.755538 2.359299 1.405899 0
M  V30 17 C -3.714683 1.410815 1.371912 0
M  V30 18 O -3.955752 0.680121 2.480415 0
M  V30 19 C -3.309034 -0.406750 3.052880 0
M  V30 20 C -1.921207 -0.181736 3.477034 0
M  V30 21 C -0.693594 -0.370052 2.884682 0
M  V30 22 C 0.463280 -0.044571 3.537435 0
M  V30 23 C 0.499258 0.481990 4.802820 0
M  V30 24 C -0.732600 0.685389 5.431304 0
M  V30 25 F -0.658884 1.207223 6.677541 0
M  V30 26 C -1.903917 0.356688 4.772507 0
M  V30 27 N -2.861365 1.475873 0.367285 0
M  V30 28 C -2.014907 3.370437 -2.660919 0
M  V30 29 C -1.147526 3.448312 -3.724848 0
M  V30 30 N -0.170162 2.510769 -3.855567 0
M  V30 31 C -0.061266 1.516628 -2.943481 0
M  V30 32 N 0.795424 0.488203 -2.843399 0
M  V30 33 C 0.755430 -2.130968 -0.056491 0
M  V30 34 C 1.296481 -3.542265 -0.089298 0
M  V30 35 H 4.503596 -7.185154 1.918313 0
M  V30 36 H 5.480003 -6.221075 0.795548 0
M  V30 37 H 4.045431 -7.218240 0.185850 0
M  V30 38 H 2.977456 -5.008727 2.008011 0
M  V30 39 H 3.173105 -2.655471 0.410960 0
M  V30 40 H 2.758921 -3.881015 -2.361299 0
M  V30 41 H 4.164942 -2.824917 -1.838565 0
M  V30 42 H 2.577987 -1.314233 -2.955092 0
M  V30 43 H -1.076904 0.047775 -0.271553 0
M  V30 44 H -4.078162 4.071726 -1.323056 0
M  V30 45 H -5.590385 2.541600 2.103049 0
M  V30 46 H -3.910350 -0.898376 3.852657 0
M  V30 47 H -3.275237 -1.199929 2.239652 0
M  V30 48 H -0.847305 -0.792442 1.904379 0
M  V30 49 H 1.363711 -0.237846 2.964667 0
M  V30 50 H 1.464775 0.702535 5.227989 0
M  V30 51 H -2.772479 0.581910 5.412552 0
M  V30 52 H -2.715555 4.180837 -2.710542 0
M  V30 53 H -1.154596 4.200892 -4.498357 0
M  V30 54 H 1.560192 0.329535 -3.546739 0
M  V30 55 H 1.167121 -1.627684 0.865864 0
M  V30 56 H -0.368743 -2.130580 -0.030318 0
M  V30 57 H 1.016131 -4.147650 0.768537 0
M  V30 58 H 0.950273 -4.045116 -1.036860 0
M  V30 END ATOM
M  V30 BEGIN BOND
M  V30 1 1 1 2
M  V30 2 1 2 3
M  V30 3 2 3 4
M  V30 4 1 3 5
M  V30 5 1 5 6
M  V30 6 1 6 7
M  V30 7 2 7 8
M  V30 8 1 8 9
M  V30 9 2 9 10
M  V30 10 1 10 11
M  V30 11 2 11 12
M  V30 12 1 12 13
M  V30 13 2 13 14
M  V30 14 1 14 15
M  V30 15 2 15 16
M  V30 16 1 16 17
M  V30 17 1 17 18
M  V30 18 1 18 19
M  V30 19 1 19 20
M  V30 20 2 20 21
M  V30 21 1 21 22
M  V30 22 2 22 23
M  V30 23 1 23 24
M  V30 24 1 24 25
M  V30 25 2 24 26
M  V30 26 2 17 27
M  V30 27 1 12 28
M  V30 28 2 28 29
M  V30 29 1 29 30
M  V30 30 2 30 31
M  V30 31 1 31 32
M  V30 32 1 8 33
M  V30 33 1 33 34
M  V30 34 1 34 5
M  V30 35 1 32 9
M  V30 36 1 31 11
M  V30 37 1 27 13
M  V30 38 1 26 20
M  V30 39 1 1 35
M  V30 40 1 1 36
M  V30 41 1 1 37
M  V30 42 1 2 38
M  V30 43 1 5 39
M  V30 44 1 6 40
M  V30 45 1 6 41
M  V30 46 1 7 42
M  V30 47 1 10 43
M  V30 48 1 14 44
M  V30 49 1 16 45
M  V30 50 1 19 46
M  V30 51 1 19 47
M  V30 52 1 21 48
M  V30 53 1 22 49
M  V30 54 1 23 50
M  V30 55 1 26 51
M  V30 56 1 28 52
M  V30 57 1 29 53
M  V30 58 1 32 54
M  V30 59 1 33 55
M  V30 60 1 33 56
M  V30 61 1 34 57
M  V30 62 1 34 58
M  V30 END BOND
M  V30 END CTAB
M  END
>  <Dataset>  (777) 
ChEMBL_Kinases

>  <Ligand_Instance>  (777) 
nan

>  <PDB_ID>  (777) 
nan

>  <Standardized_SMILES>  (777) 
CNC(=O)C1CC=C(c2cc3c(-c4cncc(OCc5cccc(F)c5)n4)ccnc3[nH]2)CC1

>  <Name>  (777) 
nan

>  <Pocket>  (777) 
nan

>  <ATP_Site>  (777) 
nan

>  <Peripheral>  (777) 
nan

>  <Num_H_Atoms_ProtBoundConf>  (777) 
nan

>  <Num_Resolved_Atoms>  (777) 
nan

>  <Num_Not_Resolved_Atoms>  (777) 
nan

$$$$
CHEMBL3673551
     RDKit          3D

  0  0  0  0  0  0  0  0  0  0999 V3000
M  V30 BEGIN CTAB
M  V30 COUNTS 55 59 0 0 0
M  V30 BEGIN ATOM
M  V30 1 N -2.753922 -5.302361 3.989981 0
M  V30 2 C -1.564733 -5.605279 3.263381 0
M  V30 3 O -1.590052 -6.869581 3.285169 0
M  V30 4 C -0.775441 -4.439227 2.774285 0
M  V30 5 C -1.650235 -3.640068 1.863300 0
M  V30 6 C -0.889581 -2.752436 0.949125 0
M  V30 7 C 0.257703 -3.126455 0.401230 0
M  V30 8 C 1.029143 -2.277525 -0.500175 0
M  V30 9 C 0.777063 -1.005601 -0.939042 0
M  V30 10 C 1.773058 -0.590517 -1.792031 0
M  V30 11 C 1.930751 0.595358 -2.472149 0
M  V30 12 C 1.028686 1.725919 -2.436598 0
M  V30 13 C 1.170993 2.764457 -3.332936 0
M  V30 14 N 0.315221 3.816441 -3.327274 0
M  V30 15 C -0.693733 3.812792 -2.402322 0
M  V30 16 C -0.854295 2.764586 -1.481075 0
M  V30 17 O -1.942769 3.125204 -0.752254 0
M  V30 18 C -2.591881 2.529892 0.302648 0
M  V30 19 C -1.756076 2.374935 1.511688 0
M  V30 20 C -1.805092 3.504311 2.342329 0
M  V30 21 C -1.087568 3.555151 3.540930 0
M  V30 22 C -0.316205 2.491492 3.928664 0
M  V30 23 C -0.258776 1.383617 3.129098 0
M  V30 24 F 0.467766 0.270486 3.404891 0
M  V30 25 C -0.971356 1.354351 1.956124 0
M  V30 26 N 0.021624 1.774110 -1.551227 0
M  V30 27 C 3.055651 0.663907 -3.260386 0
M  V30 28 C 3.943013 -0.384944 -3.346962 0
M  V30 29 N 3.743403 -1.540394 -2.652574 0
M  V30 30 C 2.641690 -1.659027 -1.856404 0
M  V30 31 N 2.182335 -2.653853 -1.080257 0
M  V30 32 C 0.724938 -4.474619 0.755868 0
M  V30 33 C 0.551853 -4.817150 2.205950 0
M  V30 34 H -3.760312 -4.995525 3.995397 0
M  V30 35 H -2.834534 -5.365380 5.045687 0
M  V30 36 H -0.574796 -3.813881 3.672170 0
M  V30 37 H -2.273605 -4.278293 1.201005 0
M  V30 38 H -2.355447 -2.995137 2.426733 0
M  V30 39 H -1.251880 -1.764938 0.696544 0
M  V30 40 H -0.067045 -0.425500 -0.664979 0
M  V30 41 H 1.957982 2.819856 -4.096222 0
M  V30 42 H -1.274173 4.744538 -2.560712 0
M  V30 43 H -2.999379 1.513114 0.047179 0
M  V30 44 H -3.514396 3.138136 0.524478 0
M  V30 45 H -2.366522 4.409082 2.165012 0
M  V30 46 H -1.098831 4.398286 4.202437 0
M  V30 47 H 0.269010 2.467245 4.853702 0
M  V30 48 H -0.972820 0.520616 1.290121 0
M  V30 49 H 3.383524 1.473535 -3.869938 0
M  V30 50 H 4.845068 -0.410789 -3.939193 0
M  V30 51 H 2.722058 -3.564906 -1.002199 0
M  V30 52 H 0.142698 -5.216339 0.165887 0
M  V30 53 H 1.788360 -4.671337 0.489267 0
M  V30 54 H 0.660510 -5.918376 2.288241 0
M  V30 55 H 1.406437 -4.372914 2.755633 0
M  V30 END ATOM
M  V30 BEGIN BOND
M  V30 1 1 1 2
M  V30 2 2 2 3
M  V30 3 1 2 4
M  V30 4 1 4 5
M  V30 5 1 5 6
M  V30 6 2 6 7
M  V30 7 1 7 8
M  V30 8 2 8 9
M  V30 9 1 9 10
M  V30 10 2 10 11
M  V30 11 1 11 12
M  V30 12 2 12 13
M  V30 13 1 13 14
M  V30 14 2 14 15
M  V30 15 1 15 16
M  V30 16 1 16 17
M  V30 17 1 17 18
M  V30 18 1 18 19
M  V30 19 2 19 20
M  V30 20 1 20 21
M  V30 21 2 21 22
M  V30 22 1 22 23
M  V30 23 1 23 24
M  V30 24 2 23 25
M  V30 25 2 16 26
M  V30 26 1 11 27
M  V30 27 2 27 28
M  V30 28 1 28 29
M  V30 29 2 29 30
M  V30 30 1 30 31
M  V30 31 1 7 32
M  V30 32 1 32 33
M  V30 33 1 33 4
M  V30 34 1 31 8
M  V30 35 1 30 10
M  V30 36 1 26 12
M  V30 37 1 25 19
M  V30 38 1 1 34
M  V30 39 1 1 35
M  V30 40 1 4 36
M  V30 41 1 5 37
M  V30 42 1 5 38
M  V30 43 1 6 39
M  V30 44 1 9 40
M  V30 45 1 13 41
M  V30 46 1 15 42
M  V30 47 1 18 43
M  V30 48 1 18 44
M  V30 49 1 20 45
M  V30 50 1 21 46
M  V30 51 1 22 47
M  V30 52 1 25 48
M  V30 53 1 27 49
M  V30 54 1 28 50
M  V30 55 1 31 51
M  V30 56 1 32 52
M  V30 57 1 32 53
M  V30 58 1 33 54
M  V30 59 1 33 55
M  V30 END BOND
M  V30 END CTAB
M  END
>  <Dataset>  (778) 
ChEMBL_Kinases

>  <Ligand_Instance>  (778) 
nan

>  <PDB_ID>  (778) 
nan

>  <Standardized_SMILES>  (778) 
NC(=O)C1CC=C(c2cc3c(-c4cncc(OCc5cccc(F)c5)n4)ccnc3[nH]2)CC1

>  <Name>  (778) 
nan

>  <Pocket>  (778) 
nan

>  <ATP_Site>  (778) 
nan

>  <Peripheral>  (778) 
nan

>  <Num_H_Atoms_ProtBoundConf>  (778) 
nan

>  <Num_Resolved_Atoms>  (778) 
nan

>  <Num_Not_Resolved_Atoms>  (778) 
nan

$$$$
CHEMBL3673552
     RDKit          3D

  0  0  0  0  0  0  0  0  0  0999 V3000
M  V30 BEGIN CTAB
M  V30 COUNTS 56 60 0 0 0
M  V30 BEGIN ATOM
M  V30 1 N -0.406262 -5.401611 4.267470 0
M  V30 2 C 0.065668 -5.886883 3.004813 0
M  V30 3 O -0.040466 -7.138635 3.102888 0
M  V30 4 C 0.468809 -4.755746 2.138530 0
M  V30 5 C -0.730829 -3.865595 1.911679 0
M  V30 6 C -0.199794 -2.725078 1.076883 0
M  V30 7 C 0.505130 -3.059182 0.008823 0
M  V30 8 C 1.054838 -1.993925 -0.855322 0
M  V30 9 C 0.837699 -0.625035 -0.711818 0
M  V30 10 C 1.588590 -0.031969 -1.700335 0
M  V30 11 C 1.759601 1.306085 -1.983314 0
M  V30 12 C 1.171050 2.438382 -1.289110 0
M  V30 13 C 1.974284 3.590341 -1.293514 0
M  V30 14 N 1.629552 4.727399 -0.655788 0
M  V30 15 C 0.455913 4.759603 0.017205 0
M  V30 16 C -0.379854 3.630342 0.045805 0
M  V30 17 N -1.603244 3.770775 0.746038 0
M  V30 18 C -2.845890 3.107417 0.833038 0
M  V30 19 C -2.841650 1.701654 1.263351 0
M  V30 20 C -2.898726 1.405020 2.627833 0
M  V30 21 C -2.946812 0.077316 3.022327 0
M  V30 22 C -2.935830 -0.869924 2.033438 0
M  V30 23 C -2.879677 -0.612872 0.672783 0
M  V30 24 F -2.867764 -1.532656 -0.316885 0
M  V30 25 C -2.831341 0.713314 0.300393 0
M  V30 26 N 0.013715 2.509054 -0.609892 0
M  V30 27 C 2.639309 1.557465 -3.045080 0
M  V30 28 C 3.290538 0.587141 -3.764832 0
M  V30 29 N 3.073147 -0.697955 -3.432051 0
M  V30 30 C 2.233371 -1.019674 -2.412218 0
M  V30 31 N 1.903809 -2.211894 -1.893530 0
M  V30 32 C 0.758435 -4.469982 -0.350749 0
M  V30 33 C 1.088751 -5.246719 0.876804 0
M  V30 34 H -0.797698 -5.066367 5.168048 0
M  V30 35 H 0.271434 -4.956959 4.955612 0
M  V30 36 H 1.218049 -4.149354 2.725697 0
M  V30 37 H -1.579875 -4.347540 1.438038 0
M  V30 38 H -0.975786 -3.428081 2.901064 0
M  V30 39 H -0.302784 -1.663571 1.239172 0
M  V30 40 H 0.222994 -0.109973 0.005978 0
M  V30 41 H 2.944444 3.725165 -1.782808 0
M  V30 42 H 0.220790 5.709703 0.520633 0
M  V30 43 H -1.618682 4.602659 1.412794 0
M  V30 44 H -3.420671 3.146876 -0.141532 0
M  V30 45 H -3.522144 3.658941 1.553701 0
M  V30 46 H -2.903425 2.220745 3.332818 0
M  V30 47 H -2.990020 -0.180441 4.059090 0
M  V30 48 H -2.973281 -1.935019 2.292916 0
M  V30 49 H -2.785266 0.985226 -0.736867 0
M  V30 50 H 2.897340 2.562528 -3.415129 0
M  V30 51 H 3.967704 0.779380 -4.582749 0
M  V30 52 H 2.281866 -3.107955 -2.282887 0
M  V30 53 H -0.214296 -4.857904 -0.765192 0
M  V30 54 H 1.529973 -4.582695 -1.122770 0
M  V30 55 H 2.197598 -5.223067 1.000290 0
M  V30 56 H 0.851173 -6.324132 0.711264 0
M  V30 END ATOM
M  V30 BEGIN BOND
M  V30 1 1 1 2
M  V30 2 2 2 3
M  V30 3 1 2 4
M  V30 4 1 4 5
M  V30 5 1 5 6
M  V30 6 2 6 7
M  V30 7 1 7 8
M  V30 8 2 8 9
M  V30 9 1 9 10
M  V30 10 2 10 11
M  V30 11 1 11 12
M  V30 12 2 12 13
M  V30 13 1 13 14
M  V30 14 2 14 15
M  V30 15 1 15 16
M  V30 16 1 16 17
M  V30 17 1 17 18
M  V30 18 1 18 19
M  V30 19 2 19 20
M  V30 20 1 20 21
M  V30 21 2 21 22
M  V30 22 1 22 23
M  V30 23 1 23 24
M  V30 24 2 23 25
M  V30 25 2 16 26
M  V30 26 1 11 27
M  V30 27 2 27 28
M  V30 28 1 28 29
M  V30 29 2 29 30
M  V30 30 1 30 31
M  V30 31 1 7 32
M  V30 32 1 32 33
M  V30 33 1 33 4
M  V30 34 1 31 8
M  V30 35 1 30 10
M  V30 36 1 26 12
M  V30 37 1 25 19
M  V30 38 1 1 34
M  V30 39 1 1 35
M  V30 40 1 4 36
M  V30 41 1 5 37
M  V30 42 1 5 38
M  V30 43 1 6 39
M  V30 44 1 9 40
M  V30 45 1 13 41
M  V30 46 1 15 42
M  V30 47 1 17 43
M  V30 48 1 18 44
M  V30 49 1 18 45
M  V30 50 1 20 46
M  V30 51 1 21 47
M  V30 52 1 22 48
M  V30 53 1 25 49
M  V30 54 1 27 50
M  V30 55 1 28 51
M  V30 56 1 31 52
M  V30 57 1 32 53
M  V30 58 1 32 54
M  V30 59 1 33 55
M  V30 60 1 33 56
M  V30 END BOND
M  V30 END CTAB
M  END
>  <Dataset>  (779) 
ChEMBL_Kinases

>  <Ligand_Instance>  (779) 
nan

>  <PDB_ID>  (779) 
nan

>  <Standardized_SMILES>  (779) 
NC(=O)C1CC=C(c2cc3c(-c4cncc(NCc5cccc(F)c5)n4)ccnc3[nH]2)CC1

>  <Name>  (779) 
nan

>  <Pocket>  (779) 
nan

>  <ATP_Site>  (779) 
nan

>  <Peripheral>  (779) 
nan

>  <Num_H_Atoms_ProtBoundConf>  (779) 
nan

>  <Num_Resolved_Atoms>  (779) 
nan

>  <Num_Not_Resolved_Atoms>  (779) 
nan

$$$$
CHEMBL3673553
     RDKit          3D

  0  0  0  0  0  0  0  0  0  0999 V3000
M  V30 BEGIN CTAB
M  V30 COUNTS 56 60 0 0 0
M  V30 BEGIN ATOM
M  V30 1 N -0.397836 -5.827103 3.591641 0
M  V30 2 C 0.916091 -5.425162 3.233654 0
M  V30 3 O 1.925572 -5.710406 3.924845 0
M  V30 4 C 1.114555 -4.629277 1.984184 0
M  V30 5 C 0.337161 -3.329354 2.043259 0
M  V30 6 C 0.880805 -2.439106 0.986962 0
M  V30 7 C 1.916972 -2.535771 0.178908 0
M  V30 8 C 2.211699 -1.486340 -0.774614 0
M  V30 9 C 1.507996 -0.322614 -0.982257 0
M  V30 10 C 2.122821 0.405762 -1.973437 0
M  V30 11 C 1.851422 1.621812 -2.565381 0
M  V30 12 C 0.691014 2.380862 -2.121942 0
M  V30 13 C 0.369523 3.606243 -2.632158 0
M  V30 14 N -0.690965 4.373584 -2.262773 0
M  V30 15 C -1.518617 3.883963 -1.292114 0
M  V30 16 C -1.219190 2.653087 -0.761213 0
M  V30 17 N -1.949721 1.984806 0.257930 0
M  V30 18 C -2.069435 1.699955 1.671100 0
M  V30 19 C -3.230997 0.846918 2.005647 0
M  V30 20 C -4.387963 1.582141 2.287720 0
M  V30 21 C -5.537864 0.898018 2.613401 0
M  V30 22 C -5.653988 -0.489267 2.688682 0
M  V30 23 C -4.475859 -1.148347 2.398432 0
M  V30 24 C -3.298626 -0.524597 2.067474 0
M  V30 25 N -0.168516 1.963979 -1.171966 0
M  V30 26 C 2.710338 2.041417 -3.545322 0
M  V30 27 C 3.796256 1.265439 -3.910407 0
M  V30 28 N 4.046456 0.072672 -3.316573 0
M  V30 29 C 3.225013 -0.372163 -2.350410 0
M  V30 30 N 3.253102 -1.496758 -1.618061 0
M  V30 31 C 2.701701 -3.766546 0.341003 0
M  V30 32 C 2.559790 -4.289979 1.766947 0
M  V30 33 H -0.500708 -6.751777 4.064197 0
M  V30 34 H -1.196429 -5.189058 3.370425 0
M  V30 35 H 0.751311 -5.191287 1.107605 0
M  V30 36 H 0.416447 -2.859739 3.046637 0
M  V30 37 H -0.717735 -3.562289 1.816340 0
M  V30 38 H 0.227982 -1.555974 0.945502 0
M  V30 39 H 0.631654 -0.102115 -0.415206 0
M  V30 40 H 0.962624 4.073506 -3.401974 0
M  V30 41 H -2.391427 4.366096 -0.894784 0
M  V30 42 H -2.677350 1.545746 -0.352130 0
M  V30 43 H -2.062499 2.641383 2.252959 0
M  V30 44 H -1.154824 1.084736 1.919087 0
M  V30 45 H -4.430591 2.678227 2.263738 0
M  V30 46 H -6.444862 1.477104 2.834482 0
M  V30 47 H -6.561355 -0.988335 2.943923 0
M  V30 48 H -4.496612 -2.237517 2.438276 0
M  V30 49 H -2.371260 -1.024136 1.838520 0
M  V30 50 H 2.550490 2.973481 -4.038049 0
M  V30 51 H 4.493570 1.579561 -4.688147 0
M  V30 52 H 3.997760 -2.235965 -1.728972 0
M  V30 53 H 3.748571 -3.666134 0.030490 0
M  V30 54 H 2.206252 -4.555605 -0.295823 0
M  V30 55 H 2.939101 -3.552694 2.518726 0
M  V30 56 H 3.164679 -5.240949 1.783864 0
M  V30 END ATOM
M  V30 BEGIN BOND
M  V30 1 1 1 2
M  V30 2 2 2 3
M  V30 3 1 2 4
M  V30 4 1 4 5
M  V30 5 1 5 6
M  V30 6 2 6 7
M  V30 7 1 7 8
M  V30 8 2 8 9
M  V30 9 1 9 10
M  V30 10 2 10 11
M  V30 11 1 11 12
M  V30 12 2 12 13
M  V30 13 1 13 14
M  V30 14 2 14 15
M  V30 15 1 15 16
M  V30 16 1 16 17
M  V30 17 1 17 18
M  V30 18 1 18 19
M  V30 19 2 19 20
M  V30 20 1 20 21
M  V30 21 2 21 22
M  V30 22 1 22 23
M  V30 23 2 23 24
M  V30 24 2 16 25
M  V30 25 1 11 26
M  V30 26 2 26 27
M  V30 27 1 27 28
M  V30 28 2 28 29
M  V30 29 1 29 30
M  V30 30 1 7 31
M  V30 31 1 31 32
M  V30 32 1 32 4
M  V30 33 1 30 8
M  V30 34 1 29 10
M  V30 35 1 25 12
M  V30 36 1 24 19
M  V30 37 1 1 33
M  V30 38 1 1 34
M  V30 39 1 4 35
M  V30 40 1 5 36
M  V30 41 1 5 37
M  V30 42 1 6 38
M  V30 43 1 9 39
M  V30 44 1 13 40
M  V30 45 1 15 41
M  V30 46 1 17 42
M  V30 47 1 18 43
M  V30 48 1 18 44
M  V30 49 1 20 45
M  V30 50 1 21 46
M  V30 51 1 22 47
M  V30 52 1 23 48
M  V30 53 1 24 49
M  V30 54 1 26 50
M  V30 55 1 27 51
M  V30 56 1 30 52
M  V30 57 1 31 53
M  V30 58 1 31 54
M  V30 59 1 32 55
M  V30 60 1 32 56
M  V30 END BOND
M  V30 END CTAB
M  END
>  <Dataset>  (780) 
ChEMBL_Kinases

>  <Ligand_Instance>  (780) 
nan

>  <PDB_ID>  (780) 
nan

>  <Standardized_SMILES>  (780) 
NC(=O)C1CC=C(c2cc3c(-c4cncc(NCc5ccccc5)n4)ccnc3[nH]2)CC1

>  <Name>  (780) 
nan

>  <Pocket>  (780) 
nan

>  <ATP_Site>  (780) 
nan

>  <Peripheral>  (780) 
nan

>  <Num_H_Atoms_ProtBoundConf>  (780) 
nan

>  <Num_Resolved_Atoms>  (780) 
nan

>  <Num_Not_Resolved_Atoms>  (780) 
nan

$$$$
CHEMBL3673554
     RDKit          3D

  0  0  0  0  0  0  0  0  0  0999 V3000
M  V30 BEGIN CTAB
M  V30 COUNTS 60 63 0 0 0
M  V30 BEGIN ATOM
M  V30 1 C 2.741925 2.513179 5.771442 0
M  V30 2 O 2.937371 2.420482 4.359471 0
M  V30 3 C 3.902628 1.569008 3.816558 0
M  V30 4 C 4.762356 0.740119 4.478358 0
M  V30 5 C 5.662776 -0.044075 3.811716 0
M  V30 6 C 5.715417 -0.007184 2.432809 0
M  V30 7 F 6.629564 -0.806155 1.809343 0
M  V30 8 C 4.854029 0.824447 1.749770 0
M  V30 9 C 3.933293 1.626641 2.426255 0
M  V30 10 C 3.116390 2.432673 1.521761 0
M  V30 11 C 3.618013 3.682420 1.202995 0
M  V30 12 C 2.843334 4.437529 0.349874 0
M  V30 13 N 1.684978 3.977898 -0.129871 0
M  V30 14 C 1.195249 2.761649 0.179347 0
M  V30 15 N 0.084439 2.084800 -0.161830 0
M  V30 16 C 0.050042 0.867728 0.427168 0
M  V30 17 C -1.009129 -0.124630 0.274825 0
M  V30 18 C -2.004894 0.201501 -0.502018 0
M  V30 19 C -3.098741 -0.771825 -0.685148 0
M  V30 20 N -3.136503 -1.743819 0.380285 0
M  V30 21 C -4.292191 -2.598370 0.257738 0
M  V30 22 C -4.257255 -3.501560 -0.898834 0
M  V30 23 O -5.310752 -4.216191 -1.000693 0
M  V30 24 O -3.217209 -3.605083 -1.810275 0
M  V30 25 C -3.244403 -4.484148 -2.893400 0
M  V30 26 C -3.380353 -5.927349 -2.487600 0
M  V30 27 C -1.885653 -4.360287 -3.595901 0
M  V30 28 C -4.293155 -4.153301 -3.913115 0
M  V30 29 C -1.894849 -2.424954 0.563263 0
M  V30 30 C -0.865909 -1.408802 1.009823 0
M  V30 31 C 1.220564 0.776311 1.190253 0
M  V30 32 C 1.920121 1.954267 1.028296 0
M  V30 33 H 3.729319 2.427655 6.309427 0
M  V30 34 H 2.305440 3.506481 6.029730 0
M  V30 35 H 2.042155 1.755432 6.149066 0
M  V30 36 H 4.669397 0.758669 5.567237 0
M  V30 37 H 6.306409 -0.669969 4.395576 0
M  V30 38 H 4.982372 0.772870 0.675907 0
M  V30 39 H 4.528917 4.121927 1.541062 0
M  V30 40 H 3.053873 5.440633 -0.023632 0
M  V30 41 H -0.611352 2.527285 -0.810265 0
M  V30 42 H -2.088662 1.139006 -1.025796 0
M  V30 43 H -2.894410 -1.304945 -1.629693 0
M  V30 44 H -4.055191 -0.197554 -0.712942 0
M  V30 45 H -5.162652 -1.914347 0.137941 0
M  V30 46 H -4.461825 -3.193760 1.177000 0
M  V30 47 H -4.456247 -6.265827 -2.533146 0
M  V30 48 H -2.918622 -6.162329 -1.502232 0
M  V30 49 H -2.848191 -6.541163 -3.243042 0
M  V30 50 H -1.552197 -3.319713 -3.464913 0
M  V30 51 H -1.975375 -4.555759 -4.688476 0
M  V30 52 H -1.140928 -5.026420 -3.113803 0
M  V30 53 H -4.954618 -3.312713 -3.589226 0
M  V30 54 H -3.848825 -3.821608 -4.895734 0
M  V30 55 H -4.949710 -5.008028 -4.177877 0
M  V30 56 H -1.504164 -2.939930 -0.343720 0
M  V30 57 H -2.016204 -3.128053 1.412965 0
M  V30 58 H -0.884352 -1.261956 2.112757 0
M  V30 59 H 0.158109 -1.804564 0.753741 0
M  V30 60 H 1.522720 -0.059201 1.794292 0
M  V30 END ATOM
M  V30 BEGIN BOND
M  V30 1 1 1 2
M  V30 2 1 2 3
M  V30 3 2 3 4
M  V30 4 1 4 5
M  V30 5 2 5 6
M  V30 6 1 6 7
M  V30 7 1 6 8
M  V30 8 2 8 9
M  V30 9 1 9 10
M  V30 10 2 10 11
M  V30 11 1 11 12
M  V30 12 2 12 13
M  V30 13 1 13 14
M  V30 14 1 14 15
M  V30 15 1 15 16
M  V30 16 1 16 17
M  V30 17 2 17 18
M  V30 18 1 18 19
M  V30 19 1 19 20
M  V30 20 1 20 21
M  V30 21 1 21 22
M  V30 22 2 22 23
M  V30 23 1 22 24
M  V30 24 1 24 25
M  V30 25 1 25 26
M  V30 26 1 25 27
M  V30 27 1 25 28
M  V30 28 1 20 29
M  V30 29 1 29 30
M  V30 30 2 16 31
M  V30 31 1 31 32
M  V30 32 1 9 3
M  V30 33 1 32 10
M  V30 34 2 32 14
M  V30 35 1 30 17
M  V30 36 1 1 33
M  V30 37 1 1 34
M  V30 38 1 1 35
M  V30 39 1 4 36
M  V30 40 1 5 37
M  V30 41 1 8 38
M  V30 42 1 11 39
M  V30 43 1 12 40
M  V30 44 1 15 41
M  V30 45 1 18 42
M  V30 46 1 19 43
M  V30 47 1 19 44
M  V30 48 1 21 45
M  V30 49 1 21 46
M  V30 50 1 26 47
M  V30 51 1 26 48
M  V30 52 1 26 49
M  V30 53 1 27 50
M  V30 54 1 27 51
M  V30 55 1 27 52
M  V30 56 1 28 53
M  V30 57 1 28 54
M  V30 58 1 28 55
M  V30 59 1 29 56
M  V30 60 1 29 57
M  V30 61 1 30 58
M  V30 62 1 30 59
M  V30 63 1 31 60
M  V30 END BOND
M  V30 END CTAB
M  END
>  <Dataset>  (781) 
ChEMBL_Kinases

>  <Ligand_Instance>  (781) 
nan

>  <PDB_ID>  (781) 
nan

>  <Standardized_SMILES>  (781) 
COc1ccc(F)cc1-c1ccnc2[nH]c(C3=CCN(CC(=O)OC(C)(C)C)CC3)cc12

>  <Name>  (781) 
nan

>  <Pocket>  (781) 
nan

>  <ATP_Site>  (781) 
nan

>  <Peripheral>  (781) 
nan

>  <Num_H_Atoms_ProtBoundConf>  (781) 
nan

>  <Num_Resolved_Atoms>  (781) 
nan

>  <Num_Not_Resolved_Atoms>  (781) 
nan

$$$$
CHEMBL3673565
     RDKit          3D

  0  0  0  0  0  0  0  0  0  0999 V3000
M  V30 BEGIN CTAB
M  V30 COUNTS 39 42 0 0 0
M  V30 BEGIN ATOM
M  V30 1 O 0.669776 -3.966227 -0.096454 0
M  V30 2 C 0.388189 -2.902687 0.536690 0
M  V30 3 N -0.178774 -3.139521 1.816879 0
M  V30 4 C -0.251430 -4.574540 1.983743 0
M  V30 5 C -1.411511 -5.199372 1.557549 0
M  V30 6 C -1.489849 -6.584382 1.714302 0
M  V30 7 C -0.382597 -7.217606 2.290967 0
M  V30 8 N 0.719106 -6.556430 2.686445 0
M  V30 9 C 0.835270 -5.211270 2.551902 0
M  V30 10 C 0.662877 -1.612757 -0.086420 0
M  V30 11 C 1.220864 -1.669279 -1.347501 0
M  V30 12 C 1.506666 -0.460191 -1.994878 0
M  V30 13 C 1.215047 0.711658 -1.337096 0
M  V30 14 N 1.381602 2.010222 -1.715781 0
M  V30 15 C 0.944904 2.815133 -0.729728 0
M  V30 16 N 0.488224 2.080748 0.303854 0
M  V30 17 C 0.651556 0.775000 -0.063490 0
M  V30 18 C 0.368986 -0.439250 0.576537 0
M  V30 19 C -0.089189 2.358563 1.607272 0
M  V30 20 C 0.382751 3.715350 2.029194 0
M  V30 21 C -0.445340 4.771231 1.332801 0
M  V30 22 N 0.220190 5.214360 0.098058 0
M  V30 23 C 0.943946 4.280910 -0.732721 0
M  V30 24 O 1.713219 4.784358 -1.620334 0
M  V30 25 H -0.422499 -2.261742 2.365490 0
M  V30 26 H -2.224334 -4.627546 1.119634 0
M  V30 27 H -2.370971 -7.098464 1.396673 0
M  V30 28 H -0.476842 -8.284364 2.396393 0
M  V30 29 H 1.712248 -4.686614 2.867293 0
M  V30 30 H 1.454010 -2.583787 -1.874767 0
M  V30 31 H 1.941300 -0.399110 -2.977348 0
M  V30 32 H -0.068874 -0.420517 1.566630 0
M  V30 33 H 0.176812 1.559675 2.326441 0
M  V30 34 H -1.190949 2.327416 1.506212 0
M  V30 35 H 0.308451 3.825972 3.128862 0
M  V30 36 H 1.443378 3.881957 1.757104 0
M  V30 37 H -1.407369 4.311726 1.024074 0
M  V30 38 H -0.559802 5.623807 2.021493 0
M  V30 39 H 0.207920 6.206767 -0.239860 0
M  V30 END ATOM
M  V30 BEGIN BOND
M  V30 1 2 1 2
M  V30 2 1 2 3
M  V30 3 1 3 4
M  V30 4 2 4 5
M  V30 5 1 5 6
M  V30 6 2 6 7
M  V30 7 1 7 8
M  V30 8 2 8 9
M  V30 9 1 2 10
M  V30 10 2 10 11
M  V30 11 1 11 12
M  V30 12 2 12 13
M  V30 13 1 13 14
M  V30 14 2 14 15
M  V30 15 1 15 16
M  V30 16 1 16 17
M  V30 17 2 17 18
M  V30 18 1 16 19
M  V30 19 1 19 20
M  V30 20 1 20 21
M  V30 21 1 21 22
M  V30 22 1 22 23
M  V30 23 2 23 24
M  V30 24 1 9 4
M  V30 25 1 18 10
M  V30 26 1 17 13
M  V30 27 1 23 15
M  V30 28 1 3 25
M  V30 29 1 5 26
M  V30 30 1 6 27
M  V30 31 1 7 28
M  V30 32 1 9 29
M  V30 33 1 11 30
M  V30 34 1 12 31
M  V30 35 1 18 32
M  V30 36 1 19 33
M  V30 37 1 19 34
M  V30 38 1 20 35
M  V30 39 1 20 36
M  V30 40 1 21 37
M  V30 41 1 21 38
M  V30 42 1 22 39
M  V30 END BOND
M  V30 END CTAB
M  END
>  <Dataset>  (782) 
ChEMBL_Kinases

>  <Ligand_Instance>  (782) 
nan

>  <PDB_ID>  (782) 
nan

>  <Standardized_SMILES>  (782) 
O=C(Nc1cccnc1)c1ccc2nc3n(c2c1)CCCNC3=O

>  <Name>  (782) 
nan

>  <Pocket>  (782) 
nan

>  <ATP_Site>  (782) 
nan

>  <Peripheral>  (782) 
nan

>  <Num_H_Atoms_ProtBoundConf>  (782) 
nan

>  <Num_Resolved_Atoms>  (782) 
nan

>  <Num_Not_Resolved_Atoms>  (782) 
nan

$$$$
CHEMBL3673566
     RDKit          3D

  0  0  0  0  0  0  0  0  0  0999 V3000
M  V30 BEGIN CTAB
M  V30 COUNTS 46 50 0 0 0
M  V30 BEGIN ATOM
M  V30 1 C 0.312156 -1.565183 4.597174 0
M  V30 2 N 0.692840 -2.765673 3.895539 0
M  V30 3 C 0.798871 -2.945606 2.559099 0
M  V30 4 N 0.528676 -1.900096 1.628929 0
M  V30 5 C 1.619277 -1.073890 1.258010 0
M  V30 6 O 2.723726 -1.350757 1.792906 0
M  V30 7 C 1.555652 0.049519 0.321605 0
M  V30 8 C 2.738434 0.723231 0.101690 0
M  V30 9 C 2.731025 1.805048 -0.785351 0
M  V30 10 C 1.539045 2.140071 -1.393213 0
M  V30 11 N 1.276322 3.135464 -2.281022 0
M  V30 12 C -0.028703 3.084672 -2.604883 0
M  V30 13 N -0.631613 2.068021 -1.942082 0
M  V30 14 C 0.334331 1.470710 -1.183004 0
M  V30 15 C 0.373333 0.401224 -0.297183 0
M  V30 16 C -1.965757 1.502935 -1.853306 0
M  V30 17 C -2.987360 2.491366 -2.369518 0
M  V30 18 C -2.923626 2.710675 -3.852477 0
M  V30 19 N -1.997646 3.780609 -4.206376 0
M  V30 20 C -0.739829 3.965518 -3.524578 0
M  V30 21 O -0.147749 5.056517 -3.747943 0
M  V30 22 N 1.184829 -4.221675 2.283358 0
M  V30 23 C 1.338104 -4.902145 3.457222 0
M  V30 24 C 1.701160 -6.184119 3.800863 0
M  V30 25 C 1.751150 -6.533316 5.123578 0
M  V30 26 C 1.452906 -5.657526 6.151008 0
M  V30 27 C 1.097406 -4.392154 5.740410 0
M  V30 28 C 1.022011 -3.957778 4.427121 0
M  V30 29 H 0.206648 -1.817139 5.680870 0
M  V30 30 H 1.089174 -0.778893 4.565412 0
M  V30 31 H -0.692536 -1.185417 4.298329 0
M  V30 32 H -0.397757 -1.689346 1.197956 0
M  V30 33 H 3.673950 0.473999 0.567571 0
M  V30 34 H 3.640584 2.356601 -0.981851 0
M  V30 35 H -0.546649 -0.136743 -0.114656 0
M  V30 36 H -2.055487 0.524098 -2.351766 0
M  V30 37 H -2.252397 1.323256 -0.779377 0
M  V30 38 H -2.761426 3.480537 -1.882563 0
M  V30 39 H -4.007655 2.229681 -2.078944 0
M  V30 40 H -2.599444 1.738358 -4.316527 0
M  V30 41 H -3.935642 3.020277 -4.189556 0
M  V30 42 H -2.136321 4.482910 -4.943802 0
M  V30 43 H 1.938814 -6.886597 3.015557 0
M  V30 44 H 2.040123 -7.552226 5.385597 0
M  V30 45 H 1.484271 -5.907030 7.206363 0
M  V30 46 H 0.851075 -3.658458 6.511711 0
M  V30 END ATOM
M  V30 BEGIN BOND
M  V30 1 1 1 2
M  V30 2 1 2 3
M  V30 3 1 3 4
M  V30 4 1 4 5
M  V30 5 2 5 6
M  V30 6 1 5 7
M  V30 7 2 7 8
M  V30 8 1 8 9
M  V30 9 2 9 10
M  V30 10 1 10 11
M  V30 11 2 11 12
M  V30 12 1 12 13
M  V30 13 1 13 14
M  V30 14 2 14 15
M  V30 15 1 13 16
M  V30 16 1 16 17
M  V30 17 1 17 18
M  V30 18 1 18 19
M  V30 19 1 19 20
M  V30 20 2 20 21
M  V30 21 2 3 22
M  V30 22 1 22 23
M  V30 23 2 23 24
M  V30 24 1 24 25
M  V30 25 2 25 26
M  V30 26 1 26 27
M  V30 27 2 27 28
M  V30 28 1 28 2
M  V30 29 1 15 7
M  V30 30 1 28 23
M  V30 31 1 14 10
M  V30 32 1 20 12
M  V30 33 1 1 29
M  V30 34 1 1 30
M  V30 35 1 1 31
M  V30 36 1 4 32
M  V30 37 1 8 33
M  V30 38 1 9 34
M  V30 39 1 15 35
M  V30 40 1 16 36
M  V30 41 1 16 37
M  V30 42 1 17 38
M  V30 43 1 17 39
M  V30 44 1 18 40
M  V30 45 1 18 41
M  V30 46 1 19 42
M  V30 47 1 24 43
M  V30 48 1 25 44
M  V30 49 1 26 45
M  V30 50 1 27 46
M  V30 END BOND
M  V30 END CTAB
M  END
>  <Dataset>  (783) 
ChEMBL_Kinases

>  <Ligand_Instance>  (783) 
nan

>  <PDB_ID>  (783) 
nan

>  <Standardized_SMILES>  (783) 
Cn1c(NC(=O)c2ccc3nc4n(c3c2)CCCNC4=O)nc2ccccc21

>  <Name>  (783) 
nan

>  <Pocket>  (783) 
nan

>  <ATP_Site>  (783) 
nan

>  <Peripheral>  (783) 
nan

>  <Num_H_Atoms_ProtBoundConf>  (783) 
nan

>  <Num_Resolved_Atoms>  (783) 
nan

>  <Num_Not_Resolved_Atoms>  (783) 
nan

$$$$
CHEMBL3673567
     RDKit          3D

  0  0  0  0  0  0  0  0  0  0999 V3000
M  V30 BEGIN CTAB
M  V30 COUNTS 49 53 0 0 0
M  V30 BEGIN ATOM
M  V30 1 C 0.692853 -3.750557 3.001872 0
M  V30 2 C 1.634973 -3.817316 1.823537 0
M  V30 3 N 0.934291 -4.222080 0.605226 0
M  V30 4 C 0.340234 -3.377524 -0.287642 0
M  V30 5 N 0.344726 -1.966114 -0.113771 0
M  V30 6 C 1.343889 -1.084284 -0.610285 0
M  V30 7 O 2.306237 -1.530938 -1.250669 0
M  V30 8 C 1.283967 0.360429 -0.393121 0
M  V30 9 C 2.307128 1.126538 -0.918672 0
M  V30 10 C 2.309036 2.514567 -0.746155 0
M  V30 11 C 1.309203 3.166346 -0.057357 0
M  V30 12 N 1.023064 4.443159 0.276174 0
M  V30 13 C -0.142676 4.462604 0.986610 0
M  V30 14 N -0.572370 3.189915 1.088350 0
M  V30 15 C 0.300194 2.376352 0.456614 0
M  V30 16 C 0.277416 1.001798 0.298455 0
M  V30 17 C -1.786726 2.784690 1.775232 0
M  V30 18 C -2.925680 3.614081 1.272952 0
M  V30 19 C -3.143617 4.875806 2.074746 0
M  V30 20 N -2.050189 5.799815 2.010719 0
M  V30 21 C -0.720923 5.722138 1.495371 0
M  V30 22 O 0.001916 6.756737 1.465140 0
M  V30 23 N -0.192297 -4.116347 -1.264377 0
M  V30 24 C 0.033475 -5.424145 -1.041375 0
M  V30 25 C -0.269193 -6.603988 -1.686092 0
M  V30 26 C 0.142119 -7.795199 -1.139382 0
M  V30 27 C 0.855694 -7.863049 0.044712 0
M  V30 28 C 1.163274 -6.693805 0.696391 0
M  V30 29 C 0.752783 -5.478157 0.153927 0
M  V30 30 H 0.529177 -4.766265 3.419061 0
M  V30 31 H 1.146472 -3.120881 3.794636 0
M  V30 32 H -0.315106 -3.371422 2.706113 0
M  V30 33 H 2.386275 -4.611034 1.997555 0
M  V30 34 H 2.090780 -2.824467 1.643599 0
M  V30 35 H -0.470762 -1.601844 0.427117 0
M  V30 36 H 3.138767 0.695935 -1.477644 0
M  V30 37 H 3.110557 3.143437 -1.154241 0
M  V30 38 H -0.515318 0.418100 0.706887 0
M  V30 39 H -1.959349 1.705800 1.733401 0
M  V30 40 H -1.698591 3.023424 2.875138 0
M  V30 41 H -3.849906 3.012231 1.366558 0
M  V30 42 H -2.789887 3.853161 0.205257 0
M  V30 43 H -3.390623 4.545628 3.100557 0
M  V30 44 H -4.045497 5.367080 1.662370 0
M  V30 45 H -2.274052 6.718929 2.427561 0
M  V30 46 H -0.830436 -6.499522 -2.611381 0
M  V30 47 H -0.108836 -8.717701 -1.667374 0
M  V30 48 H 1.164607 -8.829894 0.446829 0
M  V30 49 H 1.721826 -6.719618 1.626468 0
M  V30 END ATOM
M  V30 BEGIN BOND
M  V30 1 1 1 2
M  V30 2 1 2 3
M  V30 3 1 3 4
M  V30 4 1 4 5
M  V30 5 1 5 6
M  V30 6 2 6 7
M  V30 7 1 6 8
M  V30 8 2 8 9
M  V30 9 1 9 10
M  V30 10 2 10 11
M  V30 11 1 11 12
M  V30 12 2 12 13
M  V30 13 1 13 14
M  V30 14 1 14 15
M  V30 15 2 15 16
M  V30 16 1 14 17
M  V30 17 1 17 18
M  V30 18 1 18 19
M  V30 19 1 19 20
M  V30 20 1 20 21
M  V30 21 2 21 22
M  V30 22 2 4 23
M  V30 23 1 23 24
M  V30 24 2 24 25
M  V30 25 1 25 26
M  V30 26 2 26 27
M  V30 27 1 27 28
M  V30 28 2 28 29
M  V30 29 1 29 3
M  V30 30 1 16 8
M  V30 31 1 29 24
M  V30 32 1 15 11
M  V30 33 1 21 13
M  V30 34 1 1 30
M  V30 35 1 1 31
M  V30 36 1 1 32
M  V30 37 1 2 33
M  V30 38 1 2 34
M  V30 39 1 5 35
M  V30 40 1 9 36
M  V30 41 1 10 37
M  V30 42 1 16 38
M  V30 43 1 17 39
M  V30 44 1 17 40
M  V30 45 1 18 41
M  V30 46 1 18 42
M  V30 47 1 19 43
M  V30 48 1 19 44
M  V30 49 1 20 45
M  V30 50 1 25 46
M  V30 51 1 26 47
M  V30 52 1 27 48
M  V30 53 1 28 49
M  V30 END BOND
M  V30 END CTAB
M  END
>  <Dataset>  (784) 
ChEMBL_Kinases

>  <Ligand_Instance>  (784) 
nan

>  <PDB_ID>  (784) 
nan

>  <Standardized_SMILES>  (784) 
CCn1c(NC(=O)c2ccc3nc4n(c3c2)CCCNC4=O)nc2ccccc21

>  <Name>  (784) 
nan

>  <Pocket>  (784) 
nan

>  <ATP_Site>  (784) 
nan

>  <Peripheral>  (784) 
nan

>  <Num_H_Atoms_ProtBoundConf>  (784) 
nan

>  <Num_Resolved_Atoms>  (784) 
nan

>  <Num_Not_Resolved_Atoms>  (784) 
nan

$$$$
CHEMBL3673549
     RDKit          3D

  0  0  0  0  0  0  0  0  0  0999 V3000
M  V30 BEGIN CTAB
M  V30 COUNTS 54 58 0 0 0
M  V30 BEGIN ATOM
M  V30 1 O -0.562875 -6.339705 4.272496 0
M  V30 2 C -0.485876 -5.725461 3.177753 0
M  V30 3 O -1.170867 -6.353356 2.151373 0
M  V30 4 C 0.264691 -4.437319 2.966579 0
M  V30 5 C -0.633533 -3.347793 2.503210 0
M  V30 6 C -0.125469 -2.548787 1.368927 0
M  V30 7 C 0.652834 -3.122965 0.467631 0
M  V30 8 C 1.184945 -2.387675 -0.673114 0
M  V30 9 C 0.973720 -1.058465 -0.974794 0
M  V30 10 C 1.632276 -0.696939 -2.131303 0
M  V30 11 C 1.775750 0.449957 -2.880409 0
M  V30 12 C 1.108654 1.669647 -2.447308 0
M  V30 13 C 1.206419 2.852480 -3.144648 0
M  V30 14 N 0.614453 4.009160 -2.795082 0
M  V30 15 C -0.138354 4.037848 -1.679090 0
M  V30 16 C -0.263727 2.875571 -0.949912 0
M  V30 17 O -1.036142 2.887414 0.203341 0
M  V30 18 C -1.173252 1.709801 0.957196 0
M  V30 19 C -2.044943 1.985222 2.136751 0
M  V30 20 C -3.430480 1.813869 2.045901 0
M  V30 21 C -4.290031 2.050444 3.096302 0
M  V30 22 C -3.762497 2.481153 4.310573 0
M  V30 23 C -2.384523 2.662769 4.437073 0
M  V30 24 F -1.908821 3.082426 5.633032 0
M  V30 25 C -1.567769 2.411281 3.352811 0
M  V30 26 N 0.346501 1.768990 -1.350194 0
M  V30 27 C 2.560354 0.341803 -4.007441 0
M  V30 28 C 3.178162 -0.830563 -4.388870 0
M  V30 29 N 3.014740 -1.930342 -3.631775 0
M  V30 30 C 2.257355 -1.885933 -2.515912 0
M  V30 31 N 1.968174 -2.856234 -1.630359 0
M  V30 32 C 0.988545 -4.561726 0.632663 0
M  V30 33 C 1.424567 -4.732270 2.078109 0
M  V30 34 H -2.144536 -6.672044 2.265212 0
M  V30 35 H 0.695617 -4.177819 3.972876 0
M  V30 36 H -0.846416 -2.631303 3.343386 0
M  V30 37 H -1.626212 -3.773114 2.194923 0
M  V30 38 H -0.373114 -1.507001 1.256145 0
M  V30 39 H 0.371137 -0.393854 -0.379824 0
M  V30 40 H 1.787948 2.928423 -4.052448 0
M  V30 41 H -0.625673 4.942797 -1.369300 0
M  V30 42 H -1.736670 0.979636 0.316355 0
M  V30 43 H -0.201002 1.272409 1.264280 0
M  V30 44 H -3.877261 1.479890 1.116913 0
M  V30 45 H -5.361073 1.908916 2.996825 0
M  V30 46 H -4.483357 2.653025 5.105865 0
M  V30 47 H -0.514920 2.557859 3.474656 0
M  V30 48 H 2.703878 1.212841 -4.628222 0
M  V30 49 H 3.780562 -0.829731 -5.293199 0
M  V30 50 H 2.328295 -3.849383 -1.708553 0
M  V30 51 H 0.045570 -5.168245 0.531843 0
M  V30 52 H 1.730044 -4.918410 -0.077751 0
M  V30 53 H 2.300772 -4.044490 2.220603 0
M  V30 54 H 1.764389 -5.768159 2.266607 0
M  V30 END ATOM
M  V30 BEGIN BOND
M  V30 1 2 1 2
M  V30 2 1 2 3
M  V30 3 1 2 4
M  V30 4 1 4 5
M  V30 5 1 5 6
M  V30 6 2 6 7
M  V30 7 1 7 8
M  V30 8 2 8 9
M  V30 9 1 9 10
M  V30 10 2 10 11
M  V30 11 1 11 12
M  V30 12 2 12 13
M  V30 13 1 13 14
M  V30 14 2 14 15
M  V30 15 1 15 16
M  V30 16 1 16 17
M  V30 17 1 17 18
M  V30 18 1 18 19
M  V30 19 2 19 20
M  V30 20 1 20 21
M  V30 21 2 21 22
M  V30 22 1 22 23
M  V30 23 1 23 24
M  V30 24 2 23 25
M  V30 25 2 16 26
M  V30 26 1 11 27
M  V30 27 2 27 28
M  V30 28 1 28 29
M  V30 29 2 29 30
M  V30 30 1 30 31
M  V30 31 1 7 32
M  V30 32 1 32 33
M  V30 33 1 33 4
M  V30 34 1 31 8
M  V30 35 1 30 10
M  V30 36 1 26 12
M  V30 37 1 25 19
M  V30 38 1 3 34
M  V30 39 1 4 35
M  V30 40 1 5 36
M  V30 41 1 5 37
M  V30 42 1 6 38
M  V30 43 1 9 39
M  V30 44 1 13 40
M  V30 45 1 15 41
M  V30 46 1 18 42
M  V30 47 1 18 43
M  V30 48 1 20 44
M  V30 49 1 21 45
M  V30 50 1 22 46
M  V30 51 1 25 47
M  V30 52 1 27 48
M  V30 53 1 28 49
M  V30 54 1 31 50
M  V30 55 1 32 51
M  V30 56 1 32 52
M  V30 57 1 33 53
M  V30 58 1 33 54
M  V30 END BOND
M  V30 END CTAB
M  END
>  <Dataset>  (785) 
ChEMBL_Kinases

>  <Ligand_Instance>  (785) 
nan

>  <PDB_ID>  (785) 
nan

>  <Standardized_SMILES>  (785) 
O=C(O)C1CC=C(c2cc3c(-c4cncc(OCc5cccc(F)c5)n4)ccnc3[nH]2)CC1

>  <Name>  (785) 
nan

>  <Pocket>  (785) 
nan

>  <ATP_Site>  (785) 
nan

>  <Peripheral>  (785) 
nan

>  <Num_H_Atoms_ProtBoundConf>  (785) 
nan

>  <Num_Resolved_Atoms>  (785) 
nan

>  <Num_Not_Resolved_Atoms>  (785) 
nan

$$$$
CHEMBL3673616
     RDKit          3D

  0  0  0  0  0  0  0  0  0  0999 V3000
M  V30 BEGIN CTAB
M  V30 COUNTS 52 56 0 0 0
M  V30 BEGIN ATOM
M  V30 1 C -1.468878 -4.628721 -0.797438 0
M  V30 2 C -0.400759 -3.616108 -0.585488 0
M  V30 3 C 0.369779 -3.398897 -1.892032 0
M  V30 4 N 0.567936 -3.930176 0.423386 0
M  V30 5 C 1.135245 -3.074046 1.298716 0
M  V30 6 N 0.895176 -1.669519 1.411580 0
M  V30 7 C 1.508723 -0.796863 2.343652 0
M  V30 8 O 2.340611 -1.302910 3.145379 0
M  V30 9 C 1.167652 0.636479 2.350234 0
M  V30 10 C 1.815649 1.422558 3.297538 0
M  V30 11 C 1.472153 2.761061 3.275399 0
M  V30 12 C 0.555117 3.272513 2.378898 0
M  V30 13 C 0.053443 4.537300 2.157807 0
M  V30 14 C -0.847975 4.408820 1.103931 0
M  V30 15 N -0.915705 3.134063 0.678787 0
M  V30 16 C -0.057963 2.449725 1.461021 0
M  V30 17 N 0.258227 1.123187 1.455572 0
M  V30 18 C -1.695424 2.510391 -0.372914 0
M  V30 19 C -2.026823 3.511700 -1.474511 0
M  V30 20 C -3.207178 4.325092 -1.020174 0
M  V30 21 N -2.681075 5.534991 -0.385995 0
M  V30 22 C -1.599841 5.518515 0.557626 0
M  V30 23 O -1.305487 6.680390 0.931199 0
M  V30 24 N 2.004777 -3.711318 2.107097 0
M  V30 25 C 2.009801 -5.008699 1.757897 0
M  V30 26 C 2.731821 -6.060719 2.286134 0
M  V30 27 C 2.525154 -7.314222 1.709694 0
M  V30 28 C 1.641418 -7.495907 0.661240 0
M  V30 29 C 0.955482 -6.390595 0.188363 0
M  V30 30 C 1.114242 -5.124563 0.714086 0
M  V30 31 H -2.457313 -4.087561 -0.881198 0
M  V30 32 H -1.401102 -5.211033 -1.729878 0
M  V30 33 H -1.622506 -5.263182 0.118542 0
M  V30 34 H -0.842927 -2.608539 -0.341146 0
M  V30 35 H 1.439562 -3.153781 -1.709423 0
M  V30 36 H 0.370990 -4.328047 -2.511568 0
M  V30 37 H -0.123276 -2.608356 -2.501991 0
M  V30 38 H 0.207863 -1.231808 0.754572 0
M  V30 39 H 2.521011 0.973903 3.971989 0
M  V30 40 H 1.957612 3.420312 4.004346 0
M  V30 41 H 0.297715 5.450580 2.683626 0
M  V30 42 H -1.135851 1.685834 -0.866030 0
M  V30 43 H -2.639080 2.061341 0.025110 0
M  V30 44 H -2.373209 2.924738 -2.364707 0
M  V30 45 H -1.158292 4.147503 -1.681052 0
M  V30 46 H -3.809475 3.715305 -0.307824 0
M  V30 47 H -3.834109 4.646252 -1.893173 0
M  V30 48 H -3.140119 6.437542 -0.657906 0
M  V30 49 H 3.427651 -5.960218 3.100019 0
M  V30 50 H 3.038709 -8.210083 2.045041 0
M  V30 51 H 1.458455 -8.458219 0.191255 0
M  V30 52 H 0.266737 -6.542550 -0.631599 0
M  V30 END ATOM
M  V30 BEGIN BOND
M  V30 1 1 1 2
M  V30 2 1 2 3
M  V30 3 1 2 4
M  V30 4 1 4 5
M  V30 5 1 5 6
M  V30 6 1 6 7
M  V30 7 2 7 8
M  V30 8 1 7 9
M  V30 9 2 9 10
M  V30 10 1 10 11
M  V30 11 2 11 12
M  V30 12 1 12 13
M  V30 13 2 13 14
M  V30 14 1 14 15
M  V30 15 1 15 16
M  V30 16 2 16 17
M  V30 17 1 15 18
M  V30 18 1 18 19
M  V30 19 1 19 20
M  V30 20 1 20 21
M  V30 21 1 21 22
M  V30 22 2 22 23
M  V30 23 2 5 24
M  V30 24 1 24 25
M  V30 25 2 25 26
M  V30 26 1 26 27
M  V30 27 2 27 28
M  V30 28 1 28 29
M  V30 29 2 29 30
M  V30 30 1 30 4
M  V30 31 1 17 9
M  V30 32 1 30 25
M  V30 33 1 16 12
M  V30 34 1 22 14
M  V30 35 1 1 31
M  V30 36 1 1 32
M  V30 37 1 1 33
M  V30 38 1 2 34
M  V30 39 1 3 35
M  V30 40 1 3 36
M  V30 41 1 3 37
M  V30 42 1 6 38
M  V30 43 1 10 39
M  V30 44 1 11 40
M  V30 45 1 13 41
M  V30 46 1 18 42
M  V30 47 1 18 43
M  V30 48 1 19 44
M  V30 49 1 19 45
M  V30 50 1 20 46
M  V30 51 1 20 47
M  V30 52 1 21 48
M  V30 53 1 26 49
M  V30 54 1 27 50
M  V30 55 1 28 51
M  V30 56 1 29 52
M  V30 END BOND
M  V30 END CTAB
M  END
>  <Dataset>  (786) 
ChEMBL_Kinases

>  <Ligand_Instance>  (786) 
nan

>  <PDB_ID>  (786) 
nan

>  <Standardized_SMILES>  (786) 
CC(C)n1c(NC(=O)c2ccc3cc4n(c3n2)CCCNC4=O)nc2ccccc21

>  <Name>  (786) 
nan

>  <Pocket>  (786) 
nan

>  <ATP_Site>  (786) 
nan

>  <Peripheral>  (786) 
nan

>  <Num_H_Atoms_ProtBoundConf>  (786) 
nan

>  <Num_Resolved_Atoms>  (786) 
nan

>  <Num_Not_Resolved_Atoms>  (786) 
nan

$$$$
CHEMBL3673615
     RDKit          3D

  0  0  0  0  0  0  0  0  0  0999 V3000
M  V30 BEGIN CTAB
M  V30 COUNTS 52 56 0 0 0
M  V30 BEGIN ATOM
M  V30 1 C 0.198224 -4.368710 3.645745 0
M  V30 2 N 0.301105 -4.865606 2.302561 0
M  V30 3 C 0.473171 -3.990552 1.292557 0
M  V30 4 N 0.594745 -2.578532 1.154234 0
M  V30 5 C 1.906607 -2.002821 1.219703 0
M  V30 6 O 2.920701 -2.717525 1.393567 0
M  V30 7 C 1.985929 -0.547149 1.072653 0
M  V30 8 C 3.216271 0.099644 1.122663 0
M  V30 9 C 3.320288 1.469962 0.987048 0
M  V30 10 C 2.188891 2.235012 0.796521 0
M  V30 11 C 1.880804 3.569237 0.624956 0
M  V30 12 C 0.511278 3.695443 0.479341 0
M  V30 13 N -0.026301 2.442882 0.560597 0
M  V30 14 C 0.981476 1.570889 0.750568 0
M  V30 15 N 0.901658 0.234804 0.884879 0
M  V30 16 C -1.455249 2.209570 0.447482 0
M  V30 17 C -2.033930 2.790552 -0.800865 0
M  V30 18 C -1.023698 2.657066 -1.944249 0
M  V30 19 C -3.263020 1.993717 -1.227913 0
M  V30 20 C -2.468635 4.221866 -0.682395 0
M  V30 21 N -1.483590 5.112409 -0.152101 0
M  V30 22 C -0.121526 5.000929 0.279464 0
M  V30 23 O 0.552334 6.040552 0.493520 0
M  V30 24 N 0.539693 -4.707044 0.137669 0
M  V30 25 C 0.411022 -6.019229 0.416207 0
M  V30 26 C 0.405735 -7.165607 -0.364133 0
M  V30 27 C 0.246355 -8.388203 0.272694 0
M  V30 28 C 0.100152 -8.430510 1.639057 0
M  V30 29 C 0.101081 -7.308927 2.443079 0
M  V30 30 C 0.261892 -6.103976 1.779783 0
M  V30 31 H -0.245621 -5.178600 4.280032 0
M  V30 32 H -0.424790 -3.455453 3.687482 0
M  V30 33 H 1.205345 -4.141745 4.044223 0
M  V30 34 H -0.285089 -2.061676 1.014369 0
M  V30 35 H 4.102714 -0.500954 1.272074 0
M  V30 36 H 4.278973 1.988481 1.024469 0
M  V30 37 H 2.613102 4.358556 0.611744 0
M  V30 38 H -1.906891 2.779088 1.305142 0
M  V30 39 H -1.657872 1.139899 0.548813 0
M  V30 40 H -1.550957 2.420325 -2.884124 0
M  V30 41 H -0.438627 3.572828 -2.098905 0
M  V30 42 H -0.391741 1.763532 -1.705286 0
M  V30 43 H -4.004905 1.937788 -0.389331 0
M  V30 44 H -3.003529 0.977945 -1.596974 0
M  V30 45 H -3.790639 2.501810 -2.061041 0
M  V30 46 H -2.659298 4.570992 -1.738520 0
M  V30 47 H -3.453597 4.294763 -0.187327 0
M  V30 48 H -1.872211 6.080253 -0.064942 0
M  V30 49 H 0.523758 -7.087912 -1.435532 0
M  V30 50 H 0.242801 -9.287282 -0.345007 0
M  V30 51 H -0.026588 -9.383509 2.159341 0
M  V30 52 H -0.013462 -7.335813 3.518095 0
M  V30 END ATOM
M  V30 BEGIN BOND
M  V30 1 1 1 2
M  V30 2 1 2 3
M  V30 3 1 3 4
M  V30 4 1 4 5
M  V30 5 2 5 6
M  V30 6 1 5 7
M  V30 7 2 7 8
M  V30 8 1 8 9
M  V30 9 2 9 10
M  V30 10 1 10 11
M  V30 11 2 11 12
M  V30 12 1 12 13
M  V30 13 1 13 14
M  V30 14 2 14 15
M  V30 15 1 13 16
M  V30 16 1 16 17
M  V30 17 1 17 18
M  V30 18 1 17 19
M  V30 19 1 17 20
M  V30 20 1 20 21
M  V30 21 1 21 22
M  V30 22 2 22 23
M  V30 23 2 3 24
M  V30 24 1 24 25
M  V30 25 2 25 26
M  V30 26 1 26 27
M  V30 27 2 27 28
M  V30 28 1 28 29
M  V30 29 2 29 30
M  V30 30 1 30 2
M  V30 31 1 15 7
M  V30 32 1 30 25
M  V30 33 1 14 10
M  V30 34 1 22 12
M  V30 35 1 1 31
M  V30 36 1 1 32
M  V30 37 1 1 33
M  V30 38 1 4 34
M  V30 39 1 8 35
M  V30 40 1 9 36
M  V30 41 1 11 37
M  V30 42 1 16 38
M  V30 43 1 16 39
M  V30 44 1 18 40
M  V30 45 1 18 41
M  V30 46 1 18 42
M  V30 47 1 19 43
M  V30 48 1 19 44
M  V30 49 1 19 45
M  V30 50 1 20 46
M  V30 51 1 20 47
M  V30 52 1 21 48
M  V30 53 1 26 49
M  V30 54 1 27 50
M  V30 55 1 28 51
M  V30 56 1 29 52
M  V30 END BOND
M  V30 END CTAB
M  END
>  <Dataset>  (787) 
ChEMBL_Kinases

>  <Ligand_Instance>  (787) 
nan

>  <PDB_ID>  (787) 
nan

>  <Standardized_SMILES>  (787) 
Cn1c(NC(=O)c2ccc3cc4n(c3n2)CC(C)(C)CNC4=O)nc2ccccc21

>  <Name>  (787) 
nan

>  <Pocket>  (787) 
nan

>  <ATP_Site>  (787) 
nan

>  <Peripheral>  (787) 
nan

>  <Num_H_Atoms_ProtBoundConf>  (787) 
nan

>  <Num_Resolved_Atoms>  (787) 
nan

>  <Num_Not_Resolved_Atoms>  (787) 
nan

$$$$
CHEMBL3673614
     RDKit          3D

  0  0  0  0  0  0  0  0  0  0999 V3000
M  V30 BEGIN CTAB
M  V30 COUNTS 46 50 0 0 0
M  V30 BEGIN ATOM
M  V30 1 C 0.081877 -3.043082 4.118163 0
M  V30 2 N -1.162401 -3.065626 3.408305 0
M  V30 3 C -1.544358 -2.174585 2.509809 0
M  V30 4 N -0.901529 -1.023907 2.013247 0
M  V30 5 C -0.920571 0.339102 2.452958 0
M  V30 6 O -1.603149 0.687932 3.458027 0
M  V30 7 C -0.112972 1.282783 1.676428 0
M  V30 8 C -0.123069 2.601447 2.090898 0
M  V30 9 C 0.627868 3.559857 1.393480 0
M  V30 10 C 1.364575 3.134848 0.293932 0
M  V30 11 C 2.211289 3.749694 -0.634121 0
M  V30 12 C 2.673556 2.806978 -1.529717 0
M  V30 13 N 2.136430 1.622090 -1.182809 0
M  V30 14 C 1.357574 1.811395 -0.099479 0
M  V30 15 N 0.625750 0.903871 0.588248 0
M  V30 16 C 2.364809 0.357726 -1.868238 0
M  V30 17 C 2.111685 0.503590 -3.337844 0
M  V30 18 C 3.324633 0.945021 -4.126423 0
M  V30 19 N 3.783936 2.266196 -3.780152 0
M  V30 20 C 3.586394 3.110428 -2.639553 0
M  V30 21 O 4.222739 4.192334 -2.551918 0
M  V30 22 N -2.777271 -2.532634 2.060875 0
M  V30 23 C -3.194947 -3.660131 2.671415 0
M  V30 24 C -4.346968 -4.427759 2.580171 0
M  V30 25 C -4.470186 -5.559055 3.365623 0
M  V30 26 C -3.448910 -5.911814 4.229654 0
M  V30 27 C -2.299852 -5.122316 4.302591 0
M  V30 28 C -2.160418 -3.986287 3.523025 0
M  V30 29 H 0.015411 -2.320030 4.960994 0
M  V30 30 H 0.323998 -4.028626 4.605214 0
M  V30 31 H 0.912722 -2.815021 3.434518 0
M  V30 32 H -0.325178 -1.305286 1.168596 0
M  V30 33 H -0.702310 2.938634 2.956346 0
M  V30 34 H 0.662497 4.598379 1.663821 0
M  V30 35 H 2.456289 4.803893 -0.636064 0
M  V30 36 H 3.453057 0.142647 -1.708580 0
M  V30 37 H 1.717829 -0.440392 -1.420196 0
M  V30 38 H 1.306279 1.215505 -3.582168 0
M  V30 39 H 1.806590 -0.473978 -3.739803 0
M  V30 40 H 2.968744 0.961455 -5.198041 0
M  V30 41 H 4.131883 0.178712 -4.115730 0
M  V30 42 H 4.377860 2.684510 -4.510205 0
M  V30 43 H -5.148290 -4.158226 1.907720 0
M  V30 44 H -5.383178 -6.155972 3.284639 0
M  V30 45 H -3.585292 -6.811399 4.831792 0
M  V30 46 H -1.507130 -5.429371 4.998452 0
M  V30 END ATOM
M  V30 BEGIN BOND
M  V30 1 1 1 2
M  V30 2 1 2 3
M  V30 3 1 3 4
M  V30 4 1 4 5
M  V30 5 2 5 6
M  V30 6 1 5 7
M  V30 7 2 7 8
M  V30 8 1 8 9
M  V30 9 2 9 10
M  V30 10 1 10 11
M  V30 11 2 11 12
M  V30 12 1 12 13
M  V30 13 1 13 14
M  V30 14 2 14 15
M  V30 15 1 13 16
M  V30 16 1 16 17
M  V30 17 1 17 18
M  V30 18 1 18 19
M  V30 19 1 19 20
M  V30 20 2 20 21
M  V30 21 2 3 22
M  V30 22 1 22 23
M  V30 23 2 23 24
M  V30 24 1 24 25
M  V30 25 2 25 26
M  V30 26 1 26 27
M  V30 27 2 27 28
M  V30 28 1 28 2
M  V30 29 1 15 7
M  V30 30 1 28 23
M  V30 31 1 14 10
M  V30 32 1 20 12
M  V30 33 1 1 29
M  V30 34 1 1 30
M  V30 35 1 1 31
M  V30 36 1 4 32
M  V30 37 1 8 33
M  V30 38 1 9 34
M  V30 39 1 11 35
M  V30 40 1 16 36
M  V30 41 1 16 37
M  V30 42 1 17 38
M  V30 43 1 17 39
M  V30 44 1 18 40
M  V30 45 1 18 41
M  V30 46 1 19 42
M  V30 47 1 24 43
M  V30 48 1 25 44
M  V30 49 1 26 45
M  V30 50 1 27 46
M  V30 END BOND
M  V30 END CTAB
M  END
>  <Dataset>  (788) 
ChEMBL_Kinases

>  <Ligand_Instance>  (788) 
nan

>  <PDB_ID>  (788) 
nan

>  <Standardized_SMILES>  (788) 
Cn1c(NC(=O)c2ccc3cc4n(c3n2)CCCNC4=O)nc2ccccc21

>  <Name>  (788) 
nan

>  <Pocket>  (788) 
nan

>  <ATP_Site>  (788) 
nan

>  <Peripheral>  (788) 
nan

>  <Num_H_Atoms_ProtBoundConf>  (788) 
nan

>  <Num_Resolved_Atoms>  (788) 
nan

>  <Num_Not_Resolved_Atoms>  (788) 
nan

$$$$
CHEMBL3673613
     RDKit          3D

  0  0  0  0  0  0  0  0  0  0999 V3000
M  V30 BEGIN CTAB
M  V30 COUNTS 49 53 0 0 0
M  V30 BEGIN ATOM
M  V30 1 C 2.316641 -2.448012 3.325629 0
M  V30 2 C 2.721827 -3.364106 2.165998 0
M  V30 3 C 1.746982 -4.547211 2.295837 0
M  V30 4 C 4.075137 -3.848897 2.397413 0
M  V30 5 N 5.174964 -3.180063 1.753220 0
M  V30 6 C 5.351280 -1.877230 1.154912 0
M  V30 7 O 6.491234 -1.458234 0.887131 0
M  V30 8 C 4.178149 -1.027501 0.854307 0
M  V30 9 C 4.341693 0.336761 0.628235 0
M  V30 10 C 3.086127 0.866521 0.375165 0
M  V30 11 C 2.620192 2.136315 0.087316 0
M  V30 12 C 1.258032 2.254040 -0.104619 0
M  V30 13 C 0.361319 1.208687 -0.028047 0
M  V30 14 C -1.078284 1.429101 -0.248229 0
M  V30 15 O -1.469204 2.602047 -0.509186 0
M  V30 16 N -1.928137 0.278128 -0.146684 0
M  V30 17 C -3.311856 0.617192 -0.381303 0
M  V30 18 N -3.921967 0.608061 -1.564980 0
M  V30 19 C -5.215834 0.972376 -1.462444 0
M  V30 20 C -6.286967 1.134907 -2.324647 0
M  V30 21 C -7.512365 1.541318 -1.809666 0
M  V30 22 Cl -8.884651 1.753002 -2.890792 0
M  V30 23 C -7.636642 1.773257 -0.458671 0
M  V30 24 C -6.592509 1.624174 0.445484 0
M  V30 25 C -5.385915 1.215196 -0.121542 0
M  V30 26 N -4.229658 1.000300 0.540476 0
M  V30 27 N 0.901863 -0.005154 0.259037 0
M  V30 28 C 2.204168 -0.185995 0.454876 0
M  V30 29 N 2.851016 -1.331833 0.743016 0
M  V30 30 C 2.353443 -2.674374 0.923302 0
M  V30 31 H 1.241879 -2.202193 3.138338 0
M  V30 32 H 2.937320 -1.529351 3.337260 0
M  V30 33 H 2.313977 -2.995574 4.296468 0
M  V30 34 H 0.717403 -4.245837 2.101903 0
M  V30 35 H 1.872805 -5.020955 3.303042 0
M  V30 36 H 2.052492 -5.328760 1.564038 0
M  V30 37 H 4.126970 -4.929085 2.075616 0
M  V30 38 H 4.236550 -3.928594 3.512972 0
M  V30 39 H 6.043303 -3.759734 1.703263 0
M  V30 40 H 5.271364 0.904938 0.642031 0
M  V30 41 H 3.294155 2.976051 0.019986 0
M  V30 42 H 0.873484 3.255545 -0.333806 0
M  V30 43 H -1.500969 -0.660280 0.076422 0
M  V30 44 H -6.129086 0.938047 -3.375026 0
M  V30 45 H -8.592598 2.091261 -0.050396 0
M  V30 46 H -6.699688 1.808551 1.504037 0
M  V30 47 H -3.945731 1.071890 1.549831 0
M  V30 48 H 1.245114 -2.627162 0.871653 0
M  V30 49 H 2.654080 -3.328980 0.067423 0
M  V30 END ATOM
M  V30 BEGIN BOND
M  V30 1 1 1 2
M  V30 2 1 2 3
M  V30 3 1 2 4
M  V30 4 1 4 5
M  V30 5 1 5 6
M  V30 6 2 6 7
M  V30 7 1 6 8
M  V30 8 2 8 9
M  V30 9 1 9 10
M  V30 10 2 10 11
M  V30 11 1 11 12
M  V30 12 2 12 13
M  V30 13 1 13 14
M  V30 14 2 14 15
M  V30 15 1 14 16
M  V30 16 1 16 17
M  V30 17 2 17 18
M  V30 18 1 18 19
M  V30 19 2 19 20
M  V30 20 1 20 21
M  V30 21 1 21 22
M  V30 22 2 21 23
M  V30 23 1 23 24
M  V30 24 2 24 25
M  V30 25 1 25 26
M  V30 26 1 13 27
M  V30 27 2 27 28
M  V30 28 1 28 29
M  V30 29 1 29 30
M  V30 30 1 30 2
M  V30 31 1 29 8
M  V30 32 1 28 10
M  V30 33 1 26 17
M  V30 34 1 25 19
M  V30 35 1 1 31
M  V30 36 1 1 32
M  V30 37 1 1 33
M  V30 38 1 3 34
M  V30 39 1 3 35
M  V30 40 1 3 36
M  V30 41 1 4 37
M  V30 42 1 4 38
M  V30 43 1 5 39
M  V30 44 1 9 40
M  V30 45 1 11 41
M  V30 46 1 12 42
M  V30 47 1 16 43
M  V30 48 1 20 44
M  V30 49 1 23 45
M  V30 50 1 24 46
M  V30 51 1 26 47
M  V30 52 1 30 48
M  V30 53 1 30 49
M  V30 END BOND
M  V30 END CTAB
M  END
>  <Dataset>  (789) 
ChEMBL_Kinases

>  <Ligand_Instance>  (789) 
nan

>  <PDB_ID>  (789) 
nan

>  <Standardized_SMILES>  (789) 
CC1(C)CNC(=O)c2cc3ccc(C(=O)Nc4nc5cc(Cl)ccc5[nH]4)nc3n2C1

>  <Name>  (789) 
nan

>  <Pocket>  (789) 
nan

>  <ATP_Site>  (789) 
nan

>  <Peripheral>  (789) 
nan

>  <Num_H_Atoms_ProtBoundConf>  (789) 
nan

>  <Num_Resolved_Atoms>  (789) 
nan

>  <Num_Not_Resolved_Atoms>  (789) 
nan

$$$$
CHEMBL3673612
     RDKit          3D

  0  0  0  0  0  0  0  0  0  0999 V3000
M  V30 BEGIN CTAB
M  V30 COUNTS 59 64 0 0 0
M  V30 BEGIN ATOM
M  V30 1 O 0.724124 -1.772006 2.502249 0
M  V30 2 C 0.355437 -2.070139 1.314709 0
M  V30 3 N 1.130907 -1.753681 0.156471 0
M  V30 4 C 2.363143 -1.066561 0.463169 0
M  V30 5 N 3.622154 -1.369370 0.736657 0
M  V30 6 C 4.313641 -0.227112 0.939618 0
M  V30 7 C 5.647948 -0.056639 1.249536 0
M  V30 8 C 6.159297 1.235475 1.417952 0
M  V30 9 Cl 7.856588 1.411645 1.810686 0
M  V30 10 C 5.306417 2.314312 1.268032 0
M  V30 11 C 3.969967 2.115714 0.956491 0
M  V30 12 C 3.020787 3.252386 0.787548 0
M  V30 13 N 2.150706 3.434910 1.878941 0
M  V30 14 C 2.698144 3.718442 3.147338 0
M  V30 15 C 1.687941 3.667833 4.270130 0
M  V30 16 O 0.604521 4.469039 3.919352 0
M  V30 17 C -0.055182 3.817925 2.872786 0
M  V30 18 C 0.801632 3.768531 1.629075 0
M  V30 19 C 3.431869 0.835393 0.782381 0
M  V30 20 N 2.241874 0.295406 0.490607 0
M  V30 21 C -0.918953 -2.769326 1.106409 0
M  V30 22 C -1.706165 -3.094128 2.199461 0
M  V30 23 C -2.917898 -3.750303 2.082119 0
M  V30 24 C -3.263569 -4.048829 0.765291 0
M  V30 25 C -4.423581 -4.702912 0.343213 0
M  V30 26 C -4.330176 -4.772977 -1.040725 0
M  V30 27 N -3.173181 -4.192175 -1.446900 0
M  V30 28 C -2.519783 -3.749825 -0.356967 0
M  V30 29 N -1.349555 -3.107022 -0.138797 0
M  V30 30 C -2.554458 -3.975841 -2.740910 0
M  V30 31 C -3.164009 -4.841475 -3.810385 0
M  V30 32 C -4.550231 -4.356097 -4.184473 0
M  V30 33 N -5.489606 -5.099719 -3.352293 0
M  V30 34 C -5.320297 -5.378105 -1.947242 0
M  V30 35 O -6.056684 -6.216785 -1.349341 0
M  V30 36 H 0.847615 -1.990397 -0.841121 0
M  V30 37 H 6.308629 -0.900142 1.365397 0
M  V30 38 H 5.682412 3.298373 1.393601 0
M  V30 39 H 2.422513 3.103904 -0.132810 0
M  V30 40 H 3.616810 4.193143 0.649272 0
M  V30 41 H 3.524890 3.029689 3.411371 0
M  V30 42 H 3.108369 4.770602 3.137717 0
M  V30 43 H 2.155327 4.005173 5.199700 0
M  V30 44 H 1.327281 2.611479 4.377788 0
M  V30 45 H -0.969340 4.404957 2.642166 0
M  V30 46 H -0.377530 2.839385 3.240697 0
M  V30 47 H 0.356476 3.029922 0.938840 0
M  V30 48 H 0.738205 4.762379 1.125934 0
M  V30 49 H 1.434627 0.970634 0.334579 0
M  V30 50 H -1.368770 -2.827935 3.197821 0
M  V30 51 H -3.557803 -4.020526 2.900079 0
M  V30 52 H -5.241638 -5.086988 0.936630 0
M  V30 53 H -1.468135 -4.247641 -2.668491 0
M  V30 54 H -2.605549 -2.892001 -2.984011 0
M  V30 55 H -3.209338 -5.872511 -3.400597 0
M  V30 56 H -2.508288 -4.859660 -4.696000 0
M  V30 57 H -4.803247 -4.521710 -5.240357 0
M  V30 58 H -4.648239 -3.275100 -3.890056 0
M  V30 59 H -6.390179 -5.505950 -3.710791 0
M  V30 END ATOM
M  V30 BEGIN BOND
M  V30 1 2 1 2
M  V30 2 1 2 3
M  V30 3 1 3 4
M  V30 4 2 4 5
M  V30 5 1 5 6
M  V30 6 2 6 7
M  V30 7 1 7 8
M  V30 8 1 8 9
M  V30 9 2 8 10
M  V30 10 1 10 11
M  V30 11 1 11 12
M  V30 12 1 12 13
M  V30 13 1 13 14
M  V30 14 1 14 15
M  V30 15 1 15 16
M  V30 16 1 16 17
M  V30 17 1 17 18
M  V30 18 2 11 19
M  V30 19 1 19 20
M  V30 20 1 2 21
M  V30 21 2 21 22
M  V30 22 1 22 23
M  V30 23 2 23 24
M  V30 24 1 24 25
M  V30 25 2 25 26
M  V30 26 1 26 27
M  V30 27 1 27 28
M  V30 28 2 28 29
M  V30 29 1 27 30
M  V30 30 1 30 31
M  V30 31 1 31 32
M  V30 32 1 32 33
M  V30 33 1 33 34
M  V30 34 2 34 35
M  V30 35 1 20 4
M  V30 36 1 29 21
M  V30 37 1 19 6
M  V30 38 1 28 24
M  V30 39 1 18 13
M  V30 40 1 34 26
M  V30 41 1 3 36
M  V30 42 1 7 37
M  V30 43 1 10 38
M  V30 44 1 12 39
M  V30 45 1 12 40
M  V30 46 1 14 41
M  V30 47 1 14 42
M  V30 48 1 15 43
M  V30 49 1 15 44
M  V30 50 1 17 45
M  V30 51 1 17 46
M  V30 52 1 18 47
M  V30 53 1 18 48
M  V30 54 1 20 49
M  V30 55 1 22 50
M  V30 56 1 23 51
M  V30 57 1 25 52
M  V30 58 1 30 53
M  V30 59 1 30 54
M  V30 60 1 31 55
M  V30 61 1 31 56
M  V30 62 1 32 57
M  V30 63 1 32 58
M  V30 64 1 33 59
M  V30 END BOND
M  V30 END CTAB
M  END
>  <Dataset>  (790) 
ChEMBL_Kinases

>  <Ligand_Instance>  (790) 
nan

>  <PDB_ID>  (790) 
nan

>  <Standardized_SMILES>  (790) 
O=C(Nc1nc2cc(Cl)cc(CN3CCOCC3)c2[nH]1)c1ccc2cc3n(c2n1)CCCNC3=O

>  <Name>  (790) 
nan

>  <Pocket>  (790) 
nan

>  <ATP_Site>  (790) 
nan

>  <Peripheral>  (790) 
nan

>  <Num_H_Atoms_ProtBoundConf>  (790) 
nan

>  <Num_Resolved_Atoms>  (790) 
nan

>  <Num_Not_Resolved_Atoms>  (790) 
nan

$$$$
CHEMBL3673611
     RDKit          3D

  0  0  0  0  0  0  0  0  0  0999 V3000
M  V30 BEGIN CTAB
M  V30 COUNTS 56 60 0 0 0
M  V30 BEGIN ATOM
M  V30 1 C 4.467368 0.947070 3.416089 0
M  V30 2 C 4.380940 -0.205865 2.452576 0
M  V30 3 C 4.106486 -1.458582 3.294636 0
M  V30 4 C 5.674357 -0.445545 1.750306 0
M  V30 5 N 6.309107 0.758910 1.266888 0
M  V30 6 C 5.606322 1.890791 0.724674 0
M  V30 7 O 6.259555 2.964619 0.566334 0
M  V30 8 C 4.188375 1.967389 0.318328 0
M  V30 9 C 3.671255 2.953934 -0.495984 0
M  V30 10 C 2.331060 2.639199 -0.611019 0
M  V30 11 C 1.355583 3.324338 -1.329993 0
M  V30 12 C 0.069948 2.807186 -1.290757 0
M  V30 13 C -0.177405 1.657033 -0.553134 0
M  V30 14 C -1.543863 1.143417 -0.536436 0
M  V30 15 O -2.483722 1.700644 -1.157544 0
M  V30 16 N -1.931813 -0.008554 0.167363 0
M  V30 17 C -3.293709 -0.418452 0.113131 0
M  V30 18 C -4.492221 -0.213726 0.807661 0
M  V30 19 N -5.452207 -0.935189 0.201634 0
M  V30 20 N -4.922406 -1.586170 -0.841127 0
M  V30 21 C -5.754636 -2.450400 -1.680041 0
M  V30 22 C -5.774241 -3.846210 -1.174569 0
M  V30 23 C -4.870877 -4.813054 -1.564226 0
M  V30 24 C -4.894829 -6.110329 -1.089810 0
M  V30 25 C -5.878265 -6.476579 -0.167897 0
M  V30 26 C -6.768378 -5.496379 0.206379 0
M  V30 27 C -6.762832 -4.196328 -0.254159 0
M  V30 28 C -3.610418 -1.296521 -0.926988 0
M  V30 29 N 0.796878 1.024508 0.128985 0
M  V30 30 C 2.079076 1.496475 0.120292 0
M  V30 31 N 3.250546 1.098082 0.688855 0
M  V30 32 C 3.209503 -0.097260 1.509283 0
M  V30 33 H 3.633386 0.978502 4.125394 0
M  V30 34 H 4.562150 1.931794 2.957225 0
M  V30 35 H 5.418929 0.785718 3.992655 0
M  V30 36 H 3.683877 -2.242943 2.623144 0
M  V30 37 H 5.003185 -1.785819 3.829017 0
M  V30 38 H 3.307162 -1.222523 4.027655 0
M  V30 39 H 6.383779 -0.900938 2.471385 0
M  V30 40 H 5.491654 -1.174349 0.930249 0
M  V30 41 H 7.337057 0.890940 1.278753 0
M  V30 42 H 4.222556 3.784546 -0.935870 0
M  V30 43 H 1.566063 4.215715 -1.896998 0
M  V30 44 H -0.735766 3.299197 -1.833275 0
M  V30 45 H -1.203905 -0.545493 0.721631 0
M  V30 46 H -4.408197 0.452682 1.652624 0
M  V30 47 H -6.750065 -2.030968 -1.854766 0
M  V30 48 H -5.253918 -2.501657 -2.689281 0
M  V30 49 H -4.104418 -4.518854 -2.285822 0
M  V30 50 H -4.180540 -6.850914 -1.406296 0
M  V30 51 H -5.966255 -7.470688 0.251862 0
M  V30 52 H -7.542233 -5.772482 0.927604 0
M  V30 53 H -7.518121 -3.507669 0.113618 0
M  V30 54 H -3.055434 -1.750740 -1.720410 0
M  V30 55 H 2.249802 -0.240020 2.005015 0
M  V30 56 H 3.338220 -0.947353 0.778004 0
M  V30 END ATOM
M  V30 BEGIN BOND
M  V30 1 1 1 2
M  V30 2 1 2 3
M  V30 3 1 2 4
M  V30 4 1 4 5
M  V30 5 1 5 6
M  V30 6 2 6 7
M  V30 7 1 6 8
M  V30 8 2 8 9
M  V30 9 1 9 10
M  V30 10 2 10 11
M  V30 11 1 11 12
M  V30 12 2 12 13
M  V30 13 1 13 14
M  V30 14 2 14 15
M  V30 15 1 14 16
M  V30 16 1 16 17
M  V30 17 1 17 18
M  V30 18 2 18 19
M  V30 19 1 19 20
M  V30 20 1 20 21
M  V30 21 1 21 22
M  V30 22 2 22 23
M  V30 23 1 23 24
M  V30 24 2 24 25
M  V30 25 1 25 26
M  V30 26 2 26 27
M  V30 27 1 20 28
M  V30 28 1 13 29
M  V30 29 2 29 30
M  V30 30 1 30 31
M  V30 31 1 31 32
M  V30 32 1 32 2
M  V30 33 1 31 8
M  V30 34 1 30 10
M  V30 35 2 28 17
M  V30 36 1 27 22
M  V30 37 1 1 33
M  V30 38 1 1 34
M  V30 39 1 1 35
M  V30 40 1 3 36
M  V30 41 1 3 37
M  V30 42 1 3 38
M  V30 43 1 4 39
M  V30 44 1 4 40
M  V30 45 1 5 41
M  V30 46 1 9 42
M  V30 47 1 11 43
M  V30 48 1 12 44
M  V30 49 1 16 45
M  V30 50 1 18 46
M  V30 51 1 21 47
M  V30 52 1 21 48
M  V30 53 1 23 49
M  V30 54 1 24 50
M  V30 55 1 25 51
M  V30 56 1 26 52
M  V30 57 1 27 53
M  V30 58 1 28 54
M  V30 59 1 32 55
M  V30 60 1 32 56
M  V30 END BOND
M  V30 END CTAB
M  END
>  <Dataset>  (791) 
ChEMBL_Kinases

>  <Ligand_Instance>  (791) 
nan

>  <PDB_ID>  (791) 
nan

>  <Standardized_SMILES>  (791) 
CC1(C)CNC(=O)c2cc3ccc(C(=O)Nc4cnn(Cc5ccccc5)c4)nc3n2C1

>  <Name>  (791) 
nan

>  <Pocket>  (791) 
nan

>  <ATP_Site>  (791) 
nan

>  <Peripheral>  (791) 
nan

>  <Num_H_Atoms_ProtBoundConf>  (791) 
nan

>  <Num_Resolved_Atoms>  (791) 
nan

>  <Num_Not_Resolved_Atoms>  (791) 
nan

$$$$
CHEMBL3673610
     RDKit          3D

  0  0  0  0  0  0  0  0  0  0999 V3000
M  V30 BEGIN CTAB
M  V30 COUNTS 50 54 0 0 0
M  V30 BEGIN ATOM
M  V30 1 O 3.111381 -2.942152 1.680214 0
M  V30 2 C 1.996205 -2.540175 1.290827 0
M  V30 3 N 1.501855 -1.306715 1.764196 0
M  V30 4 C 2.017665 -0.326908 2.657909 0
M  V30 5 C 1.911020 -0.160328 4.033026 0
M  V30 6 N 2.587974 0.938513 4.415445 0
M  V30 7 N 3.119678 1.476253 3.341121 0
M  V30 8 C 3.936153 2.668158 3.238625 0
M  V30 9 C 3.111431 3.876436 3.020241 0
M  V30 10 C 2.842371 4.231879 1.712568 0
M  V30 11 C 2.093174 5.323267 1.314979 0
M  V30 12 C 1.575249 6.118547 2.341826 0
M  V30 13 C 1.831466 5.782188 3.654725 0
M  V30 14 C 2.584022 4.684725 4.016345 0
M  V30 15 C 2.804228 0.749410 2.255272 0
M  V30 16 C 1.128914 -3.248144 0.363233 0
M  V30 17 C 1.599815 -4.467362 -0.114845 0
M  V30 18 C 0.815201 -5.200411 -1.010686 0
M  V30 19 C -0.412312 -4.735203 -1.425327 0
M  V30 20 C -1.429194 -5.151821 -2.259793 0
M  V30 21 C -2.432384 -4.200113 -2.248781 0
M  V30 22 N -2.046968 -3.200218 -1.417046 0
M  V30 23 C -0.837502 -3.514945 -0.920568 0
M  V30 24 N -0.070664 -2.820687 -0.058602 0
M  V30 25 C -2.830495 -2.002688 -1.130384 0
M  V30 26 C -4.275987 -2.381823 -0.884539 0
M  V30 27 C -5.110361 -2.331493 -2.144226 0
M  V30 28 N -4.727448 -3.354629 -3.087893 0
M  V30 29 C -3.684892 -4.303043 -3.025473 0
M  V30 30 O -3.817615 -5.356363 -3.696557 0
M  V30 31 H 0.563993 -0.906707 1.474648 0
M  V30 32 H 1.331096 -0.886397 4.615051 0
M  V30 33 H 4.447630 2.769140 4.230548 0
M  V30 34 H 4.670389 2.575846 2.412188 0
M  V30 35 H 3.237246 3.624113 0.883919 0
M  V30 36 H 1.923235 5.540912 0.270240 0
M  V30 37 H 0.980276 6.986923 2.078885 0
M  V30 38 H 1.434466 6.392801 4.474151 0
M  V30 39 H 2.807623 4.387141 5.033021 0
M  V30 40 H 3.094306 0.936727 1.221043 0
M  V30 41 H 2.549270 -4.890553 0.167081 0
M  V30 42 H 1.157143 -6.150443 -1.397460 0
M  V30 43 H -1.408558 -6.079579 -2.815998 0
M  V30 44 H -2.431484 -1.525373 -0.213795 0
M  V30 45 H -2.790910 -1.341192 -2.017365 0
M  V30 46 H -4.256980 -3.435801 -0.488671 0
M  V30 47 H -4.765270 -1.750587 -0.118020 0
M  V30 48 H -6.158699 -2.499682 -1.829839 0
M  V30 49 H -5.058494 -1.308446 -2.552432 0
M  V30 50 H -5.316739 -3.384437 -3.933761 0
M  V30 END ATOM
M  V30 BEGIN BOND
M  V30 1 2 1 2
M  V30 2 1 2 3
M  V30 3 1 3 4
M  V30 4 1 4 5
M  V30 5 2 5 6
M  V30 6 1 6 7
M  V30 7 1 7 8
M  V30 8 1 8 9
M  V30 9 2 9 10
M  V30 10 1 10 11
M  V30 11 2 11 12
M  V30 12 1 12 13
M  V30 13 2 13 14
M  V30 14 1 7 15
M  V30 15 1 2 16
M  V30 16 2 16 17
M  V30 17 1 17 18
M  V30 18 2 18 19
M  V30 19 1 19 20
M  V30 20 2 20 21
M  V30 21 1 21 22
M  V30 22 1 22 23
M  V30 23 2 23 24
M  V30 24 1 22 25
M  V30 25 1 25 26
M  V30 26 1 26 27
M  V30 27 1 27 28
M  V30 28 1 28 29
M  V30 29 2 29 30
M  V30 30 2 15 4
M  V30 31 1 24 16
M  V30 32 1 14 9
M  V30 33 1 23 19
M  V30 34 1 29 21
M  V30 35 1 3 31
M  V30 36 1 5 32
M  V30 37 1 8 33
M  V30 38 1 8 34
M  V30 39 1 10 35
M  V30 40 1 11 36
M  V30 41 1 12 37
M  V30 42 1 13 38
M  V30 43 1 14 39
M  V30 44 1 15 40
M  V30 45 1 17 41
M  V30 46 1 18 42
M  V30 47 1 20 43
M  V30 48 1 25 44
M  V30 49 1 25 45
M  V30 50 1 26 46
M  V30 51 1 26 47
M  V30 52 1 27 48
M  V30 53 1 27 49
M  V30 54 1 28 50
M  V30 END BOND
M  V30 END CTAB
M  END
>  <Dataset>  (792) 
ChEMBL_Kinases

>  <Ligand_Instance>  (792) 
nan

>  <PDB_ID>  (792) 
nan

>  <Standardized_SMILES>  (792) 
O=C(Nc1cnn(Cc2ccccc2)c1)c1ccc2cc3n(c2n1)CCCNC3=O

>  <Name>  (792) 
nan

>  <Pocket>  (792) 
nan

>  <ATP_Site>  (792) 
nan

>  <Peripheral>  (792) 
nan

>  <Num_H_Atoms_ProtBoundConf>  (792) 
nan

>  <Num_Resolved_Atoms>  (792) 
nan

>  <Num_Not_Resolved_Atoms>  (792) 
nan

$$$$
CHEMBL3673609
     RDKit          3D

  0  0  0  0  0  0  0  0  0  0999 V3000
M  V30 BEGIN CTAB
M  V30 COUNTS 53 57 0 0 0
M  V30 BEGIN ATOM
M  V30 1 C 2.048286 -0.466819 3.116253 0
M  V30 2 C 3.034053 -0.719068 2.010627 0
M  V30 3 C 4.145310 -1.642931 2.376313 0
M  V30 4 C 4.993792 -1.190159 3.517373 0
M  V30 5 N 6.122747 -0.457197 2.930026 0
M  V30 6 C 5.902777 0.645845 2.028315 0
M  V30 7 O 6.923322 1.295878 1.750027 0
M  V30 8 C 4.672098 1.135224 1.378919 0
M  V30 9 C 4.574574 2.304513 0.652466 0
M  V30 10 C 3.261479 2.391200 0.219595 0
M  V30 11 C 2.572609 3.337079 -0.545100 0
M  V30 12 C 1.216048 3.141114 -0.821825 0
M  V30 13 C 0.592811 2.012712 -0.328978 0
M  V30 14 C -0.826449 1.861415 -0.650550 0
M  V30 15 O -1.476877 2.682404 -1.329514 0
M  V30 16 N -1.464208 0.707136 -0.146454 0
M  V30 17 C -2.796641 0.214340 -0.238915 0
M  V30 18 C -3.826716 0.489960 0.640489 0
M  V30 19 N -4.919470 -0.181487 0.177539 0
M  V30 20 N -4.588303 -0.839663 -0.930057 0
M  V30 21 C -5.461849 -1.689580 -1.753651 0
M  V30 22 C -5.307234 -3.064765 -1.158326 0
M  V30 23 C -4.334019 -3.920810 -1.614185 0
M  V30 24 C -4.142614 -5.192101 -1.109501 0
M  V30 25 C -4.970968 -5.626457 -0.094799 0
M  V30 26 C -5.956395 -4.781922 0.378772 0
M  V30 27 C -6.149701 -3.498722 -0.130537 0
M  V30 28 C -3.275644 -0.628693 -1.236509 0
M  V30 29 N 1.293020 1.123204 0.405352 0
M  V30 30 C 2.597328 1.272051 0.695040 0
M  V30 31 N 3.469830 0.511289 1.402504 0
M  V30 32 H 1.011455 -0.323675 2.695919 0
M  V30 33 H 1.987378 -1.335196 3.809676 0
M  V30 34 H 2.303272 0.436694 3.705436 0
M  V30 35 H 2.450837 -1.254230 1.206242 0
M  V30 36 H 3.647755 -2.597624 2.713569 0
M  V30 37 H 4.692939 -1.918063 1.469502 0
M  V30 38 H 4.409560 -0.551547 4.209268 0
M  V30 39 H 5.347597 -2.063544 4.096104 0
M  V30 40 H 7.098554 -0.721498 3.154651 0
M  V30 41 H 5.342673 3.009730 0.454335 0
M  V30 42 H 3.090804 4.220106 -0.921930 0
M  V30 43 H 0.698753 3.884308 -1.415709 0
M  V30 44 H -0.941178 -0.013835 0.435814 0
M  V30 45 H -3.789779 1.113335 1.526064 0
M  V30 46 H -6.508021 -1.381456 -1.690484 0
M  V30 47 H -5.073799 -1.719787 -2.784291 0
M  V30 48 H -3.653127 -3.634610 -2.410089 0
M  V30 49 H -3.353500 -5.843043 -1.502401 0
M  V30 50 H -4.862059 -6.618619 0.337211 0
M  V30 51 H -6.628418 -5.085478 1.175667 0
M  V30 52 H -6.931207 -2.847987 0.255291 0
M  V30 53 H -2.677424 -0.992957 -2.042948 0
M  V30 END ATOM
M  V30 BEGIN BOND
M  V30 1 1 1 2
M  V30 2 1 2 3
M  V30 3 1 3 4
M  V30 4 1 4 5
M  V30 5 1 5 6
M  V30 6 2 6 7
M  V30 7 1 6 8
M  V30 8 2 8 9
M  V30 9 1 9 10
M  V30 10 2 10 11
M  V30 11 1 11 12
M  V30 12 2 12 13
M  V30 13 1 13 14
M  V30 14 2 14 15
M  V30 15 1 14 16
M  V30 16 1 16 17
M  V30 17 1 17 18
M  V30 18 2 18 19
M  V30 19 1 19 20
M  V30 20 1 20 21
M  V30 21 1 21 22
M  V30 22 2 22 23
M  V30 23 1 23 24
M  V30 24 2 24 25
M  V30 25 1 25 26
M  V30 26 2 26 27
M  V30 27 1 20 28
M  V30 28 1 13 29
M  V30 29 2 29 30
M  V30 30 1 30 31
M  V30 31 1 31 2
M  V30 32 1 31 8
M  V30 33 1 30 10
M  V30 34 2 28 17
M  V30 35 1 27 22
M  V30 36 1 1 32
M  V30 37 1 1 33
M  V30 38 1 1 34
M  V30 39 1 2 35
M  V30 40 1 3 36
M  V30 41 1 3 37
M  V30 42 1 4 38
M  V30 43 1 4 39
M  V30 44 1 5 40
M  V30 45 1 9 41
M  V30 46 1 11 42
M  V30 47 1 12 43
M  V30 48 1 16 44
M  V30 49 1 18 45
M  V30 50 1 21 46
M  V30 51 1 21 47
M  V30 52 1 23 48
M  V30 53 1 24 49
M  V30 54 1 25 50
M  V30 55 1 26 51
M  V30 56 1 27 52
M  V30 57 1 28 53
M  V30 END BOND
M  V30 END CTAB
M  END
>  <Dataset>  (793) 
ChEMBL_Kinases

>  <Ligand_Instance>  (793) 
nan

>  <PDB_ID>  (793) 
nan

>  <Standardized_SMILES>  (793) 
CC1CCNC(=O)c2cc3ccc(C(=O)Nc4cnn(Cc5ccccc5)c4)nc3n21

>  <Name>  (793) 
nan

>  <Pocket>  (793) 
nan

>  <ATP_Site>  (793) 
nan

>  <Peripheral>  (793) 
nan

>  <Num_H_Atoms_ProtBoundConf>  (793) 
nan

>  <Num_Resolved_Atoms>  (793) 
nan

>  <Num_Not_Resolved_Atoms>  (793) 
nan

$$$$
CHEMBL3673608
     RDKit          3D

  0  0  0  0  0  0  0  0  0  0999 V3000
M  V30 BEGIN CTAB
M  V30 COUNTS 55 58 0 0 0
M  V30 BEGIN ATOM
M  V30 1 C 2.307001 -0.182493 4.934999 0
M  V30 2 C 3.302208 -0.372431 3.805938 0
M  V30 3 C 3.805427 0.980955 3.443238 0
M  V30 4 C 4.437540 -1.246173 4.294350 0
M  V30 5 N 5.643518 -1.094748 3.535928 0
M  V30 6 C 5.723104 -1.121153 2.115929 0
M  V30 7 O 6.841228 -1.429041 1.613207 0
M  V30 8 C 4.695567 -0.842916 1.116491 0
M  V30 9 C 4.908045 -0.547142 -0.215038 0
M  V30 10 C 3.667107 -0.356887 -0.787077 0
M  V30 11 C 3.230742 -0.040921 -2.072937 0
M  V30 12 C 1.866355 0.067166 -2.261852 0
M  V30 13 C 0.942685 -0.120453 -1.254112 0
M  V30 14 C -0.487886 0.011266 -1.532167 0
M  V30 15 O -0.916189 0.296016 -2.684650 0
M  V30 16 N -1.414267 -0.189466 -0.465506 0
M  V30 17 C -2.818960 -0.062175 -0.729212 0
M  V30 18 C -3.579033 1.099593 -0.631851 0
M  V30 19 N -4.836382 0.766911 -0.966071 0
M  V30 20 N -4.893841 -0.522388 -1.261226 0
M  V30 21 C -6.013903 -1.350767 -1.676016 0
M  V30 22 C -7.328862 -0.603665 -1.527854 0
M  V30 23 C -5.849585 -1.794025 -3.133806 0
M  V30 24 C -6.135132 -2.617822 -0.849725 0
M  V30 25 C -3.666755 -1.099811 -1.133222 0
M  V30 26 N 1.426700 -0.423692 -0.033706 0
M  V30 27 C 2.739907 -0.545511 0.225522 0
M  V30 28 N 3.371788 -0.844925 1.398451 0
M  V30 29 C 2.656131 -1.097292 2.643249 0
M  V30 30 H 1.859251 -1.122145 5.267243 0
M  V30 31 H 1.541689 0.564953 4.580408 0
M  V30 32 H 2.836059 0.320532 5.762604 0
M  V30 33 H 3.082962 1.800636 3.729728 0
M  V30 34 H 4.033437 1.158635 2.394515 0
M  V30 35 H 4.722751 1.237841 4.038796 0
M  V30 36 H 4.048733 -2.304346 4.266424 0
M  V30 37 H 4.585002 -1.016148 5.379665 0
M  V30 38 H 6.554389 -0.951813 4.036869 0
M  V30 39 H 5.858134 -0.482960 -0.690400 0
M  V30 40 H 3.968963 0.102682 -2.851024 0
M  V30 41 H 1.504976 0.312754 -3.256626 0
M  V30 42 H -1.064850 -0.425138 0.489523 0
M  V30 43 H -3.159711 2.052610 -0.335369 0
M  V30 44 H -7.302117 0.414223 -1.940449 0
M  V30 45 H -7.541740 -0.590665 -0.433565 0
M  V30 46 H -8.102795 -1.257532 -1.978496 0
M  V30 47 H -5.282187 -2.742801 -3.206570 0
M  V30 48 H -6.857202 -1.863208 -3.562868 0
M  V30 49 H -5.317877 -0.996961 -3.674900 0
M  V30 50 H -6.358621 -3.511252 -1.487730 0
M  V30 51 H -5.202623 -2.858454 -0.306317 0
M  V30 52 H -6.963265 -2.550689 -0.111315 0
M  V30 53 H -3.317992 -2.102874 -1.281161 0
M  V30 54 H 1.632980 -0.674365 2.550802 0
M  V30 55 H 2.562479 -2.170462 2.816186 0
M  V30 END ATOM
M  V30 BEGIN BOND
M  V30 1 1 1 2
M  V30 2 1 2 3
M  V30 3 1 2 4
M  V30 4 1 4 5
M  V30 5 1 5 6
M  V30 6 2 6 7
M  V30 7 1 6 8
M  V30 8 2 8 9
M  V30 9 1 9 10
M  V30 10 2 10 11
M  V30 11 1 11 12
M  V30 12 2 12 13
M  V30 13 1 13 14
M  V30 14 2 14 15
M  V30 15 1 14 16
M  V30 16 1 16 17
M  V30 17 1 17 18
M  V30 18 2 18 19
M  V30 19 1 19 20
M  V30 20 1 20 21
M  V30 21 1 21 22
M  V30 22 1 21 23
M  V30 23 1 21 24
M  V30 24 1 20 25
M  V30 25 1 13 26
M  V30 26 2 26 27
M  V30 27 1 27 28
M  V30 28 1 28 29
M  V30 29 1 29 2
M  V30 30 1 28 8
M  V30 31 1 27 10
M  V30 32 2 25 17
M  V30 33 1 1 30
M  V30 34 1 1 31
M  V30 35 1 1 32
M  V30 36 1 3 33
M  V30 37 1 3 34
M  V30 38 1 3 35
M  V30 39 1 4 36
M  V30 40 1 4 37
M  V30 41 1 5 38
M  V30 42 1 9 39
M  V30 43 1 11 40
M  V30 44 1 12 41
M  V30 45 1 16 42
M  V30 46 1 18 43
M  V30 47 1 22 44
M  V30 48 1 22 45
M  V30 49 1 22 46
M  V30 50 1 23 47
M  V30 51 1 23 48
M  V30 52 1 23 49
M  V30 53 1 24 50
M  V30 54 1 24 51
M  V30 55 1 24 52
M  V30 56 1 25 53
M  V30 57 1 29 54
M  V30 58 1 29 55
M  V30 END BOND
M  V30 END CTAB
M  END
>  <Dataset>  (794) 
ChEMBL_Kinases

>  <Ligand_Instance>  (794) 
nan

>  <PDB_ID>  (794) 
nan

>  <Standardized_SMILES>  (794) 
CC1(C)CNC(=O)c2cc3ccc(C(=O)Nc4cnn(C(C)(C)C)c4)nc3n2C1

>  <Name>  (794) 
nan

>  <Pocket>  (794) 
nan

>  <ATP_Site>  (794) 
nan

>  <Peripheral>  (794) 
nan

>  <Num_H_Atoms_ProtBoundConf>  (794) 
nan

>  <Num_Resolved_Atoms>  (794) 
nan

>  <Num_Not_Resolved_Atoms>  (794) 
nan

$$$$
CHEMBL3673607
     RDKit          3D

  0  0  0  0  0  0  0  0  0  0999 V3000
M  V30 BEGIN CTAB
M  V30 COUNTS 49 52 0 0 0
M  V30 BEGIN ATOM
M  V30 1 C 3.347723 -6.514437 -0.961808 0
M  V30 2 C 2.069955 -5.774726 -0.698937 0
M  V30 3 C 0.904290 -6.374034 -1.493245 0
M  V30 4 C 1.717349 -5.975418 0.759289 0
M  V30 5 N 2.177526 -4.357804 -1.025672 0
M  V30 6 C 1.454899 -3.451385 -0.345068 0
M  V30 7 C 1.742684 -2.198926 -0.850478 0
M  V30 8 N 1.187064 -0.963734 -0.405423 0
M  V30 9 C 1.475715 0.325888 -0.917045 0
M  V30 10 O 2.304117 0.406675 -1.859691 0
M  V30 11 C 0.838197 1.524671 -0.374696 0
M  V30 12 C 1.159312 2.753955 -0.914196 0
M  V30 13 C 0.541527 3.894146 -0.385611 0
M  V30 14 C -0.377680 3.819280 0.658274 0
M  V30 15 C -1.135973 4.699581 1.382512 0
M  V30 16 C -1.870751 3.961347 2.315526 0
M  V30 17 N -1.552779 2.664509 2.146642 0
M  V30 18 C -0.651955 2.550399 1.150889 0
M  V30 19 N -0.055602 1.456360 0.639686 0
M  V30 20 C -2.092467 1.554956 2.914401 0
M  V30 21 C -3.605368 1.732857 2.907797 0
M  V30 22 C -4.076483 2.454061 4.150584 0
M  V30 23 N -3.739710 3.870989 4.092637 0
M  V30 24 C -2.804872 4.578930 3.275525 0
M  V30 25 O -2.723752 5.812568 3.331587 0
M  V30 26 C 2.664655 -2.390945 -1.858924 0
M  V30 27 N 2.897648 -3.719212 -1.927880 0
M  V30 28 H 4.209351 -5.815281 -0.886935 0
M  V30 29 H 3.418088 -7.366915 -0.254292 0
M  V30 30 H 3.265442 -6.958355 -1.980947 0
M  V30 31 H 1.158853 -7.390397 -1.862679 0
M  V30 32 H -0.021855 -6.373065 -0.894009 0
M  V30 33 H 0.705507 -5.746719 -2.396808 0
M  V30 34 H 0.623228 -5.945285 0.931194 0
M  V30 35 H 2.099990 -6.975681 1.059999 0
M  V30 36 H 2.235266 -5.236251 1.422408 0
M  V30 37 H 0.751105 -3.611204 0.469256 0
M  V30 38 H 0.492587 -0.974609 0.376594 0
M  V30 39 H 1.868705 2.859642 -1.726773 0
M  V30 40 H 0.762571 4.887417 -0.778358 0
M  V30 41 H -1.142447 5.760635 1.235605 0
M  V30 42 H -1.760044 1.604890 3.971998 0
M  V30 43 H -1.799872 0.579431 2.483422 0
M  V30 44 H -3.932031 2.354664 2.030285 0
M  V30 45 H -4.121814 0.754049 2.867431 0
M  V30 46 H -5.189457 2.367195 4.141358 0
M  V30 47 H -3.698544 1.970078 5.070618 0
M  V30 48 H -4.262776 4.474626 4.753244 0
M  V30 49 H 3.135777 -1.666866 -2.493691 0
M  V30 END ATOM
M  V30 BEGIN BOND
M  V30 1 1 1 2
M  V30 2 1 2 3
M  V30 3 1 2 4
M  V30 4 1 2 5
M  V30 5 1 5 6
M  V30 6 2 6 7
M  V30 7 1 7 8
M  V30 8 1 8 9
M  V30 9 2 9 10
M  V30 10 1 9 11
M  V30 11 2 11 12
M  V30 12 1 12 13
M  V30 13 2 13 14
M  V30 14 1 14 15
M  V30 15 2 15 16
M  V30 16 1 16 17
M  V30 17 1 17 18
M  V30 18 2 18 19
M  V30 19 1 17 20
M  V30 20 1 20 21
M  V30 21 1 21 22
M  V30 22 1 22 23
M  V30 23 1 23 24
M  V30 24 2 24 25
M  V30 25 1 7 26
M  V30 26 2 26 27
M  V30 27 1 27 5
M  V30 28 1 19 11
M  V30 29 1 18 14
M  V30 30 1 24 16
M  V30 31 1 1 28
M  V30 32 1 1 29
M  V30 33 1 1 30
M  V30 34 1 3 31
M  V30 35 1 3 32
M  V30 36 1 3 33
M  V30 37 1 4 34
M  V30 38 1 4 35
M  V30 39 1 4 36
M  V30 40 1 6 37
M  V30 41 1 8 38
M  V30 42 1 12 39
M  V30 43 1 13 40
M  V30 44 1 15 41
M  V30 45 1 20 42
M  V30 46 1 20 43
M  V30 47 1 21 44
M  V30 48 1 21 45
M  V30 49 1 22 46
M  V30 50 1 22 47
M  V30 51 1 23 48
M  V30 52 1 26 49
M  V30 END BOND
M  V30 END CTAB
M  END
>  <Dataset>  (795) 
ChEMBL_Kinases

>  <Ligand_Instance>  (795) 
nan

>  <PDB_ID>  (795) 
nan

>  <Standardized_SMILES>  (795) 
CC(C)(C)n1cc(NC(=O)c2ccc3cc4n(c3n2)CCCNC4=O)cn1

>  <Name>  (795) 
nan

>  <Pocket>  (795) 
nan

>  <ATP_Site>  (795) 
nan

>  <Peripheral>  (795) 
nan

>  <Num_H_Atoms_ProtBoundConf>  (795) 
nan

>  <Num_Resolved_Atoms>  (795) 
nan

>  <Num_Not_Resolved_Atoms>  (795) 
nan

$$$$
CHEMBL3673606
     RDKit          3D

  0  0  0  0  0  0  0  0  0  0999 V3000
M  V30 BEGIN CTAB
M  V30 COUNTS 52 55 0 0 0
M  V30 BEGIN ATOM
M  V30 1 C 2.316236 -1.727889 3.285706 0
M  V30 2 C 3.552042 -1.635264 2.377518 0
M  V30 3 C 4.664581 -2.250208 3.134931 0
M  V30 4 C 6.010043 -2.262029 2.498217 0
M  V30 5 N 6.642634 -0.987856 2.885932 0
M  V30 6 C 6.024096 0.306046 2.859214 0
M  V30 7 O 6.555704 1.297963 3.414437 0
M  V30 8 C 4.736822 0.631079 2.204545 0
M  V30 9 C 4.402202 1.884889 1.680334 0
M  V30 10 C 3.122029 1.692454 1.183720 0
M  V30 11 C 2.361456 2.660981 0.560724 0
M  V30 12 C 1.100928 2.316608 0.118082 0
M  V30 13 C 0.708819 1.013430 0.342282 0
M  V30 14 C -0.624096 0.623501 -0.118006 0
M  V30 15 O -1.400481 1.423957 -0.697091 0
M  V30 16 N -1.109533 -0.686447 0.067820 0
M  V30 17 C -2.374129 -1.207838 -0.323053 0
M  V30 18 C -2.852486 -2.495802 -0.140751 0
M  V30 19 N -4.073174 -2.560875 -0.650718 0
M  V30 20 N -4.411038 -1.391688 -1.151231 0
M  V30 21 C -5.727502 -1.260899 -1.762033 0
M  V30 22 C -6.747909 -1.363428 -0.634993 0
M  V30 23 C -5.876110 0.015377 -2.522702 0
M  V30 24 C -6.015347 -2.444717 -2.676984 0
M  V30 25 C -3.393009 -0.557484 -0.962014 0
M  V30 26 N 1.478843 0.095881 0.953975 0
M  V30 27 C 2.713242 0.392218 1.399830 0
M  V30 28 N 3.716236 -0.261660 2.032344 0
M  V30 29 H 2.698010 -1.508784 4.326005 0
M  V30 30 H 1.864739 -2.732627 3.261324 0
M  V30 31 H 1.582216 -0.941557 3.088263 0
M  V30 32 H 3.269813 -2.201918 1.473323 0
M  V30 33 H 4.385604 -3.334202 3.288653 0
M  V30 34 H 4.750159 -1.842956 4.149852 0
M  V30 35 H 5.992280 -2.235988 1.377884 0
M  V30 36 H 6.625184 -3.106284 2.848449 0
M  V30 37 H 7.643124 -0.932382 3.227225 0
M  V30 38 H 5.070446 2.734699 1.712944 0
M  V30 39 H 2.697567 3.674429 0.399897 0
M  V30 40 H 0.471591 3.043161 -0.374771 0
M  V30 41 H -0.439359 -1.350108 0.559439 0
M  V30 42 H -2.273623 -3.286766 0.349841 0
M  V30 43 H -6.730543 -0.509966 0.053955 0
M  V30 44 H -7.724864 -1.558415 -1.091841 0
M  V30 45 H -6.441576 -2.282770 -0.055615 0
M  V30 46 H -6.940869 0.351852 -2.395639 0
M  V30 47 H -5.647980 -0.147991 -3.601636 0
M  V30 48 H -5.244081 0.828410 -2.164011 0
M  V30 49 H -7.111699 -2.532252 -2.724457 0
M  V30 50 H -5.527624 -2.371363 -3.655999 0
M  V30 51 H -5.665086 -3.363693 -2.141794 0
M  V30 52 H -3.440189 0.450627 -1.287638 0
M  V30 END ATOM
M  V30 BEGIN BOND
M  V30 1 1 1 2
M  V30 2 1 2 3
M  V30 3 1 3 4
M  V30 4 1 4 5
M  V30 5 1 5 6
M  V30 6 2 6 7
M  V30 7 1 6 8
M  V30 8 2 8 9
M  V30 9 1 9 10
M  V30 10 2 10 11
M  V30 11 1 11 12
M  V30 12 2 12 13
M  V30 13 1 13 14
M  V30 14 2 14 15
M  V30 15 1 14 16
M  V30 16 1 16 17
M  V30 17 1 17 18
M  V30 18 2 18 19
M  V30 19 1 19 20
M  V30 20 1 20 21
M  V30 21 1 21 22
M  V30 22 1 21 23
M  V30 23 1 21 24
M  V30 24 1 20 25
M  V30 25 1 13 26
M  V30 26 2 26 27
M  V30 27 1 27 28
M  V30 28 1 28 2
M  V30 29 1 28 8
M  V30 30 1 27 10
M  V30 31 2 25 17
M  V30 32 1 1 29
M  V30 33 1 1 30
M  V30 34 1 1 31
M  V30 35 1 2 32
M  V30 36 1 3 33
M  V30 37 1 3 34
M  V30 38 1 4 35
M  V30 39 1 4 36
M  V30 40 1 5 37
M  V30 41 1 9 38
M  V30 42 1 11 39
M  V30 43 1 12 40
M  V30 44 1 16 41
M  V30 45 1 18 42
M  V30 46 1 22 43
M  V30 47 1 22 44
M  V30 48 1 22 45
M  V30 49 1 23 46
M  V30 50 1 23 47
M  V30 51 1 23 48
M  V30 52 1 24 49
M  V30 53 1 24 50
M  V30 54 1 24 51
M  V30 55 1 25 52
M  V30 END BOND
M  V30 END CTAB
M  END
>  <Dataset>  (796) 
ChEMBL_Kinases

>  <Ligand_Instance>  (796) 
nan

>  <PDB_ID>  (796) 
nan

>  <Standardized_SMILES>  (796) 
CC1CCNC(=O)c2cc3ccc(C(=O)Nc4cnn(C(C)(C)C)c4)nc3n21

>  <Name>  (796) 
nan

>  <Pocket>  (796) 
nan

>  <ATP_Site>  (796) 
nan

>  <Peripheral>  (796) 
nan

>  <Num_H_Atoms_ProtBoundConf>  (796) 
nan

>  <Num_Resolved_Atoms>  (796) 
nan

>  <Num_Not_Resolved_Atoms>  (796) 
nan

$$$$
CHEMBL3673605
     RDKit          3D

  0  0  0  0  0  0  0  0  0  0999 V3000
M  V30 BEGIN CTAB
M  V30 COUNTS 46 49 0 0 0
M  V30 BEGIN ATOM
M  V30 1 C 3.949500 -7.057707 -0.134796 0
M  V30 2 N 2.798615 -6.202255 -0.459092 0
M  V30 3 C 2.677824 -4.878128 -0.258870 0
M  V30 4 C 1.409121 -4.527688 -0.728941 0
M  V30 5 N 1.068280 -3.138531 -0.609470 0
M  V30 6 C 1.360213 -2.214339 -1.653463 0
M  V30 7 O 1.933355 -2.606160 -2.720016 0
M  V30 8 C 0.991752 -0.803655 -1.484189 0
M  V30 9 C 1.278882 0.085080 -2.502290 0
M  V30 10 C 0.916594 1.416596 -2.311652 0
M  V30 11 C 0.292076 1.809834 -1.134751 0
M  V30 12 C -0.131800 3.075606 -0.781642 0
M  V30 13 C -0.674899 2.881532 0.480772 0
M  V30 14 N -0.582318 1.573779 0.863645 0
M  V30 15 C 0.018267 0.894150 -0.133466 0
M  V30 16 N 0.384569 -0.381820 -0.357537 0
M  V30 17 C -0.963490 0.828711 2.022007 0
M  V30 18 C -1.579725 1.542956 3.130417 0
M  V30 19 C -0.467407 2.231668 3.932828 0
M  V30 20 C -2.121078 0.483898 4.106763 0
M  V30 21 C -2.661418 2.495946 2.927809 0
M  V30 22 N -2.292281 3.773117 2.322924 0
M  V30 23 C -1.277129 3.951411 1.307206 0
M  V30 24 O -0.840668 5.084881 1.071695 0
M  V30 25 C 0.813531 -5.683191 -1.200142 0
M  V30 26 N 1.695489 -6.694707 -1.019108 0
M  V30 27 H 4.870667 -6.416409 -0.242364 0
M  V30 28 H 4.019864 -7.920076 -0.813326 0
M  V30 29 H 3.914796 -7.345878 0.933430 0
M  V30 30 H 3.486378 -4.326586 0.187803 0
M  V30 31 H 0.591604 -2.821676 0.281872 0
M  V30 32 H 1.769104 -0.292272 -3.395466 0
M  V30 33 H 1.137248 2.116171 -3.101516 0
M  V30 34 H -0.109673 4.025631 -1.253353 0
M  V30 35 H -0.027608 0.329384 2.404336 0
M  V30 36 H -1.617928 -0.024040 1.710084 0
M  V30 37 H -0.738640 2.245726 5.022620 0
M  V30 38 H -0.391377 3.257632 3.548581 0
M  V30 39 H 0.504464 1.697269 3.767366 0
M  V30 40 H -1.540275 -0.452285 4.056187 0
M  V30 41 H -2.262538 0.874933 5.117578 0
M  V30 42 H -3.152759 0.240214 3.716303 0
M  V30 43 H -3.114381 2.734298 3.913585 0
M  V30 44 H -3.501781 1.999882 2.358613 0
M  V30 45 H -2.759091 4.664866 2.600995 0
M  V30 46 H -0.185634 -5.574239 -1.602067 0
M  V30 END ATOM
M  V30 BEGIN BOND
M  V30 1 1 1 2
M  V30 2 1 2 3
M  V30 3 2 3 4
M  V30 4 1 4 5
M  V30 5 1 5 6
M  V30 6 2 6 7
M  V30 7 1 6 8
M  V30 8 2 8 9
M  V30 9 1 9 10
M  V30 10 2 10 11
M  V30 11 1 11 12
M  V30 12 2 12 13
M  V30 13 1 13 14
M  V30 14 1 14 15
M  V30 15 2 15 16
M  V30 16 1 14 17
M  V30 17 1 17 18
M  V30 18 1 18 19
M  V30 19 1 18 20
M  V30 20 1 18 21
M  V30 21 1 21 22
M  V30 22 1 22 23
M  V30 23 2 23 24
M  V30 24 1 4 25
M  V30 25 2 25 26
M  V30 26 1 26 2
M  V30 27 1 16 8
M  V30 28 1 15 11
M  V30 29 1 23 13
M  V30 30 1 1 27
M  V30 31 1 1 28
M  V30 32 1 1 29
M  V30 33 1 3 30
M  V30 34 1 5 31
M  V30 35 1 9 32
M  V30 36 1 10 33
M  V30 37 1 12 34
M  V30 38 1 17 35
M  V30 39 1 17 36
M  V30 40 1 19 37
M  V30 41 1 19 38
M  V30 42 1 19 39
M  V30 43 1 20 40
M  V30 44 1 20 41
M  V30 45 1 20 42
M  V30 46 1 21 43
M  V30 47 1 21 44
M  V30 48 1 22 45
M  V30 49 1 25 46
M  V30 END BOND
M  V30 END CTAB
M  END
>  <Dataset>  (797) 
ChEMBL_Kinases

>  <Ligand_Instance>  (797) 
nan

>  <PDB_ID>  (797) 
nan

>  <Standardized_SMILES>  (797) 
Cn1cc(NC(=O)c2ccc3cc4n(c3n2)CC(C)(C)CNC4=O)cn1

>  <Name>  (797) 
nan

>  <Pocket>  (797) 
nan

>  <ATP_Site>  (797) 
nan

>  <Peripheral>  (797) 
nan

>  <Num_H_Atoms_ProtBoundConf>  (797) 
nan

>  <Num_Resolved_Atoms>  (797) 
nan

>  <Num_Not_Resolved_Atoms>  (797) 
nan

$$$$
CHEMBL3673604
     RDKit          3D

  0  0  0  0  0  0  0  0  0  0999 V3000
M  V30 BEGIN CTAB
M  V30 COUNTS 40 43 0 0 0
M  V30 BEGIN ATOM
M  V30 1 C 2.973022 -7.071086 0.171306 0
M  V30 2 N 3.096525 -5.609169 0.162017 0
M  V30 3 C 2.189559 -4.596940 0.061286 0
M  V30 4 C 2.927561 -3.413482 0.114384 0
M  V30 5 N 2.107349 -2.231893 0.019451 0
M  V30 6 C 1.740137 -1.564275 -1.167975 0
M  V30 7 O 2.143097 -2.005494 -2.271599 0
M  V30 8 C 0.898061 -0.375382 -1.065767 0
M  V30 9 C 0.531461 0.289308 -2.238096 0
M  V30 10 C -0.275070 1.434513 -2.194679 0
M  V30 11 C -0.702357 1.895475 -0.966352 0
M  V30 12 C -1.482630 2.953807 -0.514542 0
M  V30 13 C -1.561361 2.898137 0.874285 0
M  V30 14 N -0.843372 1.826237 1.269266 0
M  V30 15 C -0.327212 1.221895 0.178689 0
M  V30 16 N 0.449370 0.123047 0.105140 0
M  V30 17 C -0.703549 1.457607 2.668461 0
M  V30 18 C -2.072897 1.292805 3.241464 0
M  V30 19 C -2.691984 2.513322 3.830012 0
M  V30 20 N -2.681005 3.679374 2.998125 0
M  V30 21 C -2.324581 3.895026 1.632092 0
M  V30 22 O -2.673872 4.952415 1.085683 0
M  V30 23 C 4.271687 -3.758354 0.247052 0
M  V30 24 N 4.329622 -5.104337 0.271917 0
M  V30 25 H 3.289846 -7.434080 1.172615 0
M  V30 26 H 1.898239 -7.338460 0.047597 0
M  V30 27 H 3.558382 -7.515091 -0.656123 0
M  V30 28 H 1.156973 -4.882030 -0.032742 0
M  V30 29 H 1.769494 -1.860722 0.934696 0
M  V30 30 H 0.846179 -0.040002 -3.226925 0
M  V30 31 H -0.573054 1.967518 -3.087499 0
M  V30 32 H -1.944832 3.689865 -1.149522 0
M  V30 33 H -0.151319 2.322162 3.141251 0
M  V30 34 H -0.038777 0.580207 2.816809 0
M  V30 35 H -1.984058 0.550052 4.069358 0
M  V30 36 H -2.764298 0.833651 2.508309 0
M  V30 37 H -2.316533 2.705352 4.867830 0
M  V30 38 H -3.781949 2.259029 3.975808 0
M  V30 39 H -3.001437 4.528220 3.515914 0
M  V30 40 H 4.923064 -2.916673 0.296830 0
M  V30 END ATOM
M  V30 BEGIN BOND
M  V30 1 1 1 2
M  V30 2 1 2 3
M  V30 3 2 3 4
M  V30 4 1 4 5
M  V30 5 1 5 6
M  V30 6 2 6 7
M  V30 7 1 6 8
M  V30 8 2 8 9
M  V30 9 1 9 10
M  V30 10 2 10 11
M  V30 11 1 11 12
M  V30 12 2 12 13
M  V30 13 1 13 14
M  V30 14 1 14 15
M  V30 15 2 15 16
M  V30 16 1 14 17
M  V30 17 1 17 18
M  V30 18 1 18 19
M  V30 19 1 19 20
M  V30 20 1 20 21
M  V30 21 2 21 22
M  V30 22 1 4 23
M  V30 23 2 23 24
M  V30 24 1 24 2
M  V30 25 1 16 8
M  V30 26 1 15 11
M  V30 27 1 21 13
M  V30 28 1 1 25
M  V30 29 1 1 26
M  V30 30 1 1 27
M  V30 31 1 3 28
M  V30 32 1 5 29
M  V30 33 1 9 30
M  V30 34 1 10 31
M  V30 35 1 12 32
M  V30 36 1 17 33
M  V30 37 1 17 34
M  V30 38 1 18 35
M  V30 39 1 18 36
M  V30 40 1 19 37
M  V30 41 1 19 38
M  V30 42 1 20 39
M  V30 43 1 23 40
M  V30 END BOND
M  V30 END CTAB
M  END
>  <Dataset>  (798) 
ChEMBL_Kinases

>  <Ligand_Instance>  (798) 
nan

>  <PDB_ID>  (798) 
nan

>  <Standardized_SMILES>  (798) 
Cn1cc(NC(=O)c2ccc3cc4n(c3n2)CCCNC4=O)cn1

>  <Name>  (798) 
nan

>  <Pocket>  (798) 
nan

>  <ATP_Site>  (798) 
nan

>  <Peripheral>  (798) 
nan

>  <Num_H_Atoms_ProtBoundConf>  (798) 
nan

>  <Num_Resolved_Atoms>  (798) 
nan

>  <Num_Not_Resolved_Atoms>  (798) 
nan

$$$$
CHEMBL3673603
     RDKit          3D

  0  0  0  0  0  0  0  0  0  0999 V3000
M  V30 BEGIN CTAB
M  V30 COUNTS 43 46 0 0 0
M  V30 BEGIN ATOM
M  V30 1 C -0.582740 -0.443086 -1.062905 0
M  V30 2 C 0.585842 -0.904499 -1.913183 0
M  V30 3 C 0.132269 -1.513752 -3.206157 0
M  V30 4 C 1.173632 -1.341698 -4.288954 0
M  V30 5 N 2.074300 -2.502114 -4.207447 0
M  V30 6 C 2.535390 -3.148306 -3.026692 0
M  V30 7 O 3.253361 -4.131812 -3.317338 0
M  V30 8 C 2.257654 -2.781687 -1.644129 0
M  V30 9 C 2.900803 -3.470643 -0.642191 0
M  V30 10 C 2.442112 -2.891215 0.545578 0
M  V30 11 C 2.660808 -3.073652 1.892604 0
M  V30 12 C 1.999119 -2.269129 2.791710 0
M  V30 13 C 1.097552 -1.253336 2.438513 0
M  V30 14 C 0.498594 -0.461931 3.537666 0
M  V30 15 O 0.761901 -0.801491 4.713716 0
M  V30 16 N -0.341314 0.638162 3.230382 0
M  V30 17 C -0.940040 1.428619 4.248152 0
M  V30 18 C -0.868742 1.335473 5.617422 0
M  V30 19 N -1.611437 2.309201 6.167842 0
M  V30 20 N -2.178358 3.053307 5.221934 0
M  V30 21 C -3.027301 4.164504 5.587584 0
M  V30 22 C -1.768892 2.516046 4.045101 0
M  V30 23 N 0.944419 -1.147477 1.103918 0
M  V30 24 C 1.556983 -1.895559 0.192911 0
M  V30 25 N 1.434907 -1.819241 -1.149198 0
M  V30 26 H -1.402918 -0.087642 -1.712493 0
M  V30 27 H -0.909728 -1.320434 -0.450636 0
M  V30 28 H -0.332103 0.363111 -0.360923 0
M  V30 29 H 1.193553 -0.010576 -2.142940 0
M  V30 30 H -0.762995 -0.973742 -3.549430 0
M  V30 31 H -0.062980 -2.602094 -3.106174 0
M  V30 32 H 1.734241 -0.389296 -4.217069 0
M  V30 33 H 0.731103 -1.363101 -5.302606 0
M  V30 34 H 2.409298 -2.888302 -5.142063 0
M  V30 35 H 3.597276 -4.268852 -0.645774 0
M  V30 36 H 3.342684 -3.841655 2.197711 0
M  V30 37 H 2.218685 -2.467232 3.843902 0
M  V30 38 H -0.511173 0.856377 2.242017 0
M  V30 39 H -0.321328 0.616410 6.179438 0
M  V30 40 H -3.597975 3.928005 6.499253 0
M  V30 41 H -2.480673 5.111568 5.786853 0
M  V30 42 H -3.766967 4.422453 4.787217 0
M  V30 43 H -2.093857 2.940936 3.105670 0
M  V30 END ATOM
M  V30 BEGIN BOND
M  V30 1 1 1 2
M  V30 2 1 2 3
M  V30 3 1 3 4
M  V30 4 1 4 5
M  V30 5 1 5 6
M  V30 6 2 6 7
M  V30 7 1 6 8
M  V30 8 2 8 9
M  V30 9 1 9 10
M  V30 10 2 10 11
M  V30 11 1 11 12
M  V30 12 2 12 13
M  V30 13 1 13 14
M  V30 14 2 14 15
M  V30 15 1 14 16
M  V30 16 1 16 17
M  V30 17 1 17 18
M  V30 18 2 18 19
M  V30 19 1 19 20
M  V30 20 1 20 21
M  V30 21 1 20 22
M  V30 22 1 13 23
M  V30 23 2 23 24
M  V30 24 1 24 25
M  V30 25 1 25 2
M  V30 26 1 25 8
M  V30 27 1 24 10
M  V30 28 2 22 17
M  V30 29 1 1 26
M  V30 30 1 1 27
M  V30 31 1 1 28
M  V30 32 1 2 29
M  V30 33 1 3 30
M  V30 34 1 3 31
M  V30 35 1 4 32
M  V30 36 1 4 33
M  V30 37 1 5 34
M  V30 38 1 9 35
M  V30 39 1 11 36
M  V30 40 1 12 37
M  V30 41 1 16 38
M  V30 42 1 18 39
M  V30 43 1 21 40
M  V30 44 1 21 41
M  V30 45 1 21 42
M  V30 46 1 22 43
M  V30 END BOND
M  V30 END CTAB
M  END
>  <Dataset>  (799) 
ChEMBL_Kinases

>  <Ligand_Instance>  (799) 
nan

>  <PDB_ID>  (799) 
nan

>  <Standardized_SMILES>  (799) 
CC1CCNC(=O)c2cc3ccc(C(=O)Nc4cnn(C)c4)nc3n21

>  <Name>  (799) 
nan

>  <Pocket>  (799) 
nan

>  <ATP_Site>  (799) 
nan

>  <Peripheral>  (799) 
nan

>  <Num_H_Atoms_ProtBoundConf>  (799) 
nan

>  <Num_Resolved_Atoms>  (799) 
nan

>  <Num_Not_Resolved_Atoms>  (799) 
nan

$$$$
CHEMBL3673602
     RDKit          3D

  0  0  0  0  0  0  0  0  0  0999 V3000
M  V30 BEGIN CTAB
M  V30 COUNTS 51 55 0 0 0
M  V30 BEGIN ATOM
M  V30 1 C 2.509912 -0.804421 3.560571 0
M  V30 2 C 2.865116 -2.176981 2.970383 0
M  V30 3 C 1.851619 -3.146750 3.551184 0
M  V30 4 C 4.194437 -2.549923 3.470189 0
M  V30 5 N 5.347585 -2.095417 2.721259 0
M  V30 6 C 5.558575 -1.107464 1.699361 0
M  V30 7 O 6.723239 -0.752850 1.419614 0
M  V30 8 C 4.418598 -0.512781 0.982960 0
M  V30 9 C 4.580561 0.658449 0.244467 0
M  V30 10 C 3.356757 0.976156 -0.309997 0
M  V30 11 C 2.839050 1.967550 -1.118024 0
M  V30 12 C 1.491596 1.963926 -1.492012 0
M  V30 13 C 0.646456 0.954488 -1.052627 0
M  V30 14 C -0.757407 0.979285 -1.461446 0
M  V30 15 O -1.213839 1.891238 -2.199101 0
M  V30 16 N -1.547142 -0.081924 -0.972105 0
M  V30 17 C -2.934054 -0.341946 -1.185646 0
M  V30 18 C -3.405452 -1.105177 -2.233935 0
M  V30 19 N -4.729647 -1.302017 -2.363546 0
M  V30 20 C -5.626569 -0.781530 -1.506074 0
M  V30 21 C -6.965046 -0.999757 -1.665000 0
M  V30 22 C -7.865585 -0.455543 -0.772856 0
M  V30 23 C -7.456620 0.311175 0.287791 0
M  V30 24 C -6.096892 0.564076 0.494361 0
M  V30 25 C -5.219122 -0.005069 -0.431170 0
M  V30 26 C -3.857430 0.196583 -0.298990 0
M  V30 27 N 1.204828 0.013226 -0.266788 0
M  V30 28 C 2.475636 -0.002946 0.099039 0
M  V30 29 N 3.121329 -0.893961 0.875643 0
M  V30 30 C 2.621724 -2.081383 1.530688 0
M  V30 31 H 2.707175 0.011035 2.819623 0
M  V30 32 H 1.430915 -0.718683 3.790815 0
M  V30 33 H 3.081531 -0.569808 4.463295 0
M  V30 34 H 1.440537 -2.765743 4.490994 0
M  V30 35 H 2.370024 -4.114843 3.760917 0
M  V30 36 H 1.019459 -3.360975 2.821157 0
M  V30 37 H 4.263974 -3.675234 3.485651 0
M  V30 38 H 4.266727 -2.256930 4.545455 0
M  V30 39 H 6.214256 -2.610122 2.995818 0
M  V30 40 H 5.469393 1.220805 0.116468 0
M  V30 41 H 3.516991 2.749761 -1.452063 0
M  V30 42 H 1.161888 2.770203 -2.123647 0
M  V30 43 H -1.231911 -0.865968 -0.359487 0
M  V30 44 H -2.636555 -1.494123 -2.886230 0
M  V30 45 H -7.251018 -1.617403 -2.524529 0
M  V30 46 H -8.895168 -0.681142 -0.978578 0
M  V30 47 H -8.164319 0.730239 0.976426 0
M  V30 48 H -5.727002 1.162510 1.316287 0
M  V30 49 H -3.480542 0.790509 0.515593 0
M  V30 50 H 3.031534 -3.002253 1.028034 0
M  V30 51 H 1.527606 -2.106853 1.344467 0
M  V30 END ATOM
M  V30 BEGIN BOND
M  V30 1 1 1 2
M  V30 2 1 2 3
M  V30 3 1 2 4
M  V30 4 1 4 5
M  V30 5 1 5 6
M  V30 6 2 6 7
M  V30 7 1 6 8
M  V30 8 2 8 9
M  V30 9 1 9 10
M  V30 10 2 10 11
M  V30 11 1 11 12
M  V30 12 2 12 13
M  V30 13 1 13 14
M  V30 14 2 14 15
M  V30 15 1 14 16
M  V30 16 1 16 17
M  V30 17 2 17 18
M  V30 18 1 18 19
M  V30 19 2 19 20
M  V30 20 1 20 21
M  V30 21 2 21 22
M  V30 22 1 22 23
M  V30 23 2 23 24
M  V30 24 1 24 25
M  V30 25 2 25 26
M  V30 26 1 13 27
M  V30 27 2 27 28
M  V30 28 1 28 29
M  V30 29 1 29 30
M  V30 30 1 30 2
M  V30 31 1 29 8
M  V30 32 1 28 10
M  V30 33 1 26 17
M  V30 34 1 25 20
M  V30 35 1 1 31
M  V30 36 1 1 32
M  V30 37 1 1 33
M  V30 38 1 3 34
M  V30 39 1 3 35
M  V30 40 1 3 36
M  V30 41 1 4 37
M  V30 42 1 4 38
M  V30 43 1 5 39
M  V30 44 1 9 40
M  V30 45 1 11 41
M  V30 46 1 12 42
M  V30 47 1 16 43
M  V30 48 1 18 44
M  V30 49 1 21 45
M  V30 50 1 22 46
M  V30 51 1 23 47
M  V30 52 1 24 48
M  V30 53 1 26 49
M  V30 54 1 30 50
M  V30 55 1 30 51
M  V30 END BOND
M  V30 END CTAB
M  END
>  <Dataset>  (800) 
ChEMBL_Kinases

>  <Ligand_Instance>  (800) 
nan

>  <PDB_ID>  (800) 
nan

>  <Standardized_SMILES>  (800) 
CC1(C)CNC(=O)c2cc3ccc(C(=O)Nc4cnc5ccccc5c4)nc3n2C1

>  <Name>  (800) 
nan

>  <Pocket>  (800) 
nan

>  <ATP_Site>  (800) 
nan

>  <Peripheral>  (800) 
nan

>  <Num_H_Atoms_ProtBoundConf>  (800) 
nan

>  <Num_Resolved_Atoms>  (800) 
nan

>  <Num_Not_Resolved_Atoms>  (800) 
nan

$$$$
CHEMBL3673584
     RDKit          3D

  0  0  0  0  0  0  0  0  0  0999 V3000
M  V30 BEGIN CTAB
M  V30 COUNTS 48 51 0 0 0
M  V30 BEGIN ATOM
M  V30 1 C 5.066316 -5.397962 -0.262248 0
M  V30 2 C 4.064374 -4.620213 -1.061063 0
M  V30 3 C 2.752849 -5.400154 -1.079004 0
M  V30 4 C 4.493609 -4.409806 -2.475733 0
M  V30 5 C 3.843748 -3.278932 -0.428063 0
M  V30 6 C 2.854936 -3.085179 0.540054 0
M  V30 7 C 2.961195 -1.748103 0.872233 0
M  V30 8 N 2.186418 -1.001328 1.821872 0
M  V30 9 C 1.020986 -0.404174 1.261721 0
M  V30 10 O 0.890500 -0.646276 0.031286 0
M  V30 11 C 0.083991 0.401784 2.042913 0
M  V30 12 C 0.228832 0.665192 3.389257 0
M  V30 13 C -0.702121 1.436549 4.054084 0
M  V30 14 C -1.765256 1.922080 3.318395 0
M  V30 15 N -2.810099 2.699195 3.729488 0
M  V30 16 C -3.606334 2.928178 2.669350 0
M  V30 17 N -3.106322 2.319999 1.579156 0
M  V30 18 C -1.964626 1.690278 1.959663 0
M  V30 19 C -1.001876 0.912416 1.347173 0
M  V30 20 C -3.481222 2.193407 0.193549 0
M  V30 21 C -4.389954 3.357339 -0.142752 0
M  V30 22 C -5.800513 3.113048 0.381922 0
M  V30 23 N -5.921129 3.716041 1.715002 0
M  V30 24 C -4.848715 3.723727 2.672592 0
M  V30 25 O -4.905333 4.495755 3.690365 0
M  V30 26 N 3.957114 -1.211196 0.132326 0
M  V30 27 O 4.473857 -2.138088 -0.638833 0
M  V30 28 H 6.097379 -5.341521 -0.647870 0
M  V30 29 H 4.993816 -5.119585 0.809548 0
M  V30 30 H 4.779014 -6.476776 -0.309808 0
M  V30 31 H 2.731088 -6.177336 -1.846840 0
M  V30 32 H 1.963861 -4.645887 -1.368187 0
M  V30 33 H 2.445195 -5.731222 -0.066099 0
M  V30 34 H 3.587096 -4.393008 -3.115161 0
M  V30 35 H 5.028764 -3.441156 -2.541955 0
M  V30 36 H 5.168814 -5.233844 -2.789782 0
M  V30 37 H 2.126121 -3.738902 0.997738 0
M  V30 38 H 2.398099 -0.867486 2.839387 0
M  V30 39 H 1.076066 0.260386 3.907937 0
M  V30 40 H -0.615426 1.658586 5.103371 0
M  V30 41 H -1.128355 0.714853 0.294245 0
M  V30 42 H -2.610911 2.220115 -0.490332 0
M  V30 43 H -4.068829 1.235115 0.119113 0
M  V30 44 H -4.043896 4.297877 0.340219 0
M  V30 45 H -4.448606 3.530031 -1.239020 0
M  V30 46 H -6.040760 2.036147 0.381422 0
M  V30 47 H -6.491989 3.624257 -0.290126 0
M  V30 48 H -6.777742 4.188567 2.092218 0
M  V30 END ATOM
M  V30 BEGIN BOND
M  V30 1 1 1 2
M  V30 2 1 2 3
M  V30 3 1 2 4
M  V30 4 1 2 5
M  V30 5 2 5 6
M  V30 6 1 6 7
M  V30 7 1 7 8
M  V30 8 1 8 9
M  V30 9 2 9 10
M  V30 10 1 9 11
M  V30 11 2 11 12
M  V30 12 1 12 13
M  V30 13 2 13 14
M  V30 14 1 14 15
M  V30 15 2 15 16
M  V30 16 1 16 17
M  V30 17 1 17 18
M  V30 18 2 18 19
M  V30 19 1 17 20
M  V30 20 1 20 21
M  V30 21 1 21 22
M  V30 22 1 22 23
M  V30 23 1 23 24
M  V30 24 2 24 25
M  V30 25 2 7 26
M  V30 26 1 26 27
M  V30 27 1 27 5
M  V30 28 1 19 11
M  V30 29 1 18 14
M  V30 30 1 24 16
M  V30 31 1 1 28
M  V30 32 1 1 29
M  V30 33 1 1 30
M  V30 34 1 3 31
M  V30 35 1 3 32
M  V30 36 1 3 33
M  V30 37 1 4 34
M  V30 38 1 4 35
M  V30 39 1 4 36
M  V30 40 1 6 37
M  V30 41 1 8 38
M  V30 42 1 12 39
M  V30 43 1 13 40
M  V30 44 1 19 41
M  V30 45 1 20 42
M  V30 46 1 20 43
M  V30 47 1 21 44
M  V30 48 1 21 45
M  V30 49 1 22 46
M  V30 50 1 22 47
M  V30 51 1 23 48
M  V30 END BOND
M  V30 END CTAB
M  END
>  <Dataset>  (801) 
ChEMBL_Kinases

>  <Ligand_Instance>  (801) 
nan

>  <PDB_ID>  (801) 
nan

>  <Standardized_SMILES>  (801) 
CC(C)(C)c1cc(NC(=O)c2ccc3nc4n(c3c2)CCCNC4=O)no1

>  <Name>  (801) 
nan

>  <Pocket>  (801) 
nan

>  <ATP_Site>  (801) 
nan

>  <Peripheral>  (801) 
nan

>  <Num_H_Atoms_ProtBoundConf>  (801) 
nan

>  <Num_Resolved_Atoms>  (801) 
nan

>  <Num_Not_Resolved_Atoms>  (801) 
nan

$$$$
CHEMBL3673585
     RDKit          3D

  0  0  0  0  0  0  0  0  0  0999 V3000
M  V30 BEGIN CTAB
M  V30 COUNTS 47 51 0 0 0
M  V30 BEGIN ATOM
M  V30 1 O 1.491874 -0.690039 0.297823 0
M  V30 2 C 1.443302 -0.336197 1.520356 0
M  V30 3 N 2.605257 0.392276 1.907191 0
M  V30 4 C 3.470355 0.492770 0.770996 0
M  V30 5 C 4.434304 -0.457122 0.504200 0
M  V30 6 C 5.286016 -0.375159 -0.598487 0
M  V30 7 C 5.102378 0.729296 -1.416726 0
M  V30 8 C 4.142150 1.686580 -1.161369 0
M  V30 9 C 4.005228 2.822565 -2.065540 0
M  V30 10 C 3.115242 3.863488 -1.973481 0
M  V30 11 N 3.306619 4.720567 -3.010498 0
M  V30 12 C 4.327836 4.196739 -3.747204 0
M  V30 13 N 4.751568 3.040155 -3.168992 0
M  V30 14 C 3.313506 1.580232 -0.063512 0
M  V30 15 C 0.322889 -0.638643 2.436638 0
M  V30 16 C 0.242230 -0.269357 3.763778 0
M  V30 17 C -0.887761 -0.638876 4.479975 0
M  V30 18 C -1.919907 -1.356389 3.908688 0
M  V30 19 N -3.088363 -1.831016 4.350901 0
M  V30 20 C -3.710699 -2.471300 3.336759 0
M  V30 21 N -2.952510 -2.419804 2.222654 0
M  V30 22 C -1.834046 -1.726530 2.569997 0
M  V30 23 C -0.706648 -1.355580 1.862790 0
M  V30 24 C -3.166265 -2.949057 0.876565 0
M  V30 25 C -4.643982 -2.956827 0.570094 0
M  V30 26 C -5.364662 -4.128042 1.147575 0
M  V30 27 N -5.757193 -3.931109 2.525072 0
M  V30 28 C -5.012581 -3.120582 3.441110 0
M  V30 29 O -5.599351 -2.938474 4.542895 0
M  V30 30 H 2.662405 0.732539 2.907479 0
M  V30 31 H 4.541916 -1.301249 1.168979 0
M  V30 32 H 6.031931 -1.137543 -0.779199 0
M  V30 33 H 5.746208 0.827970 -2.284826 0
M  V30 34 H 2.353210 4.028364 -1.211056 0
M  V30 35 H 2.798940 5.620641 -3.246227 0
M  V30 36 H 4.697389 4.683904 -4.650658 0
M  V30 37 H 2.563850 2.322072 0.141032 0
M  V30 38 H 1.077730 0.288130 4.150993 0
M  V30 39 H -0.948034 -0.351753 5.507681 0
M  V30 40 H -0.686904 -1.669238 0.817899 0
M  V30 41 H -2.668238 -2.236119 0.188881 0
M  V30 42 H -2.692263 -3.918589 0.718756 0
M  V30 43 H -4.743117 -3.029059 -0.535077 0
M  V30 44 H -5.105143 -2.023783 0.935321 0
M  V30 45 H -4.815187 -5.080656 0.995523 0
M  V30 46 H -6.315240 -4.240607 0.569929 0
M  V30 47 H -6.626152 -4.393856 2.895919 0
M  V30 END ATOM
M  V30 BEGIN BOND
M  V30 1 2 1 2
M  V30 2 1 2 3
M  V30 3 1 3 4
M  V30 4 2 4 5
M  V30 5 1 5 6
M  V30 6 2 6 7
M  V30 7 1 7 8
M  V30 8 1 8 9
M  V30 9 2 9 10
M  V30 10 1 10 11
M  V30 11 1 11 12
M  V30 12 2 12 13
M  V30 13 2 8 14
M  V30 14 1 2 15
M  V30 15 2 15 16
M  V30 16 1 16 17
M  V30 17 2 17 18
M  V30 18 1 18 19
M  V30 19 2 19 20
M  V30 20 1 20 21
M  V30 21 1 21 22
M  V30 22 2 22 23
M  V30 23 1 21 24
M  V30 24 1 24 25
M  V30 25 1 25 26
M  V30 26 1 26 27
M  V30 27 1 27 28
M  V30 28 2 28 29
M  V30 29 1 14 4
M  V30 30 1 23 15
M  V30 31 1 13 9
M  V30 32 1 22 18
M  V30 33 1 28 20
M  V30 34 1 3 30
M  V30 35 1 5 31
M  V30 36 1 6 32
M  V30 37 1 7 33
M  V30 38 1 10 34
M  V30 39 1 11 35
M  V30 40 1 12 36
M  V30 41 1 14 37
M  V30 42 1 16 38
M  V30 43 1 17 39
M  V30 44 1 23 40
M  V30 45 1 24 41
M  V30 46 1 24 42
M  V30 47 1 25 43
M  V30 48 1 25 44
M  V30 49 1 26 45
M  V30 50 1 26 46
M  V30 51 1 27 47
M  V30 END BOND
M  V30 END CTAB
M  END
>  <Dataset>  (802) 
ChEMBL_Kinases

>  <Ligand_Instance>  (802) 
nan

>  <PDB_ID>  (802) 
nan

>  <Standardized_SMILES>  (802) 
O=C(Nc1cccc(-c2c[nH]cn2)c1)c1ccc2nc3n(c2c1)CCCNC3=O

>  <Name>  (802) 
nan

>  <Pocket>  (802) 
nan

>  <ATP_Site>  (802) 
nan

>  <Peripheral>  (802) 
nan

>  <Num_H_Atoms_ProtBoundConf>  (802) 
nan

>  <Num_Resolved_Atoms>  (802) 
nan

>  <Num_Not_Resolved_Atoms>  (802) 
nan

$$$$
CHEMBL3673586
     RDKit          3D

  0  0  0  0  0  0  0  0  0  0999 V3000
M  V30 BEGIN CTAB
M  V30 COUNTS 45 49 0 0 0
M  V30 BEGIN ATOM
M  V30 1 O 0.853737 2.147154 1.862896 0
M  V30 2 C 0.750483 0.942666 1.452441 0
M  V30 3 N 1.640587 0.545655 0.424159 0
M  V30 4 C 2.491671 1.664069 0.075528 0
M  V30 5 C 3.713397 1.960380 0.654083 0
M  V30 6 N 4.378180 3.045181 0.207687 0
M  V30 7 C 3.897905 3.837881 -0.769099 0
M  V30 8 C 4.608921 4.944024 -1.201952 0
M  V30 9 C 4.080417 5.731445 -2.206871 0
M  V30 10 C 2.866548 5.484075 -2.820472 0
M  V30 11 C 2.174300 4.375182 -2.372714 0
M  V30 12 C 2.674710 3.566675 -1.369335 0
M  V30 13 C 1.963672 2.452971 -0.930269 0
M  V30 14 C -0.242440 0.019978 2.021049 0
M  V30 15 C -1.064450 0.503021 3.020036 0
M  V30 16 C -2.002649 -0.358808 3.561549 0
M  V30 17 C -2.054195 -1.647178 3.065544 0
M  V30 18 C -2.901683 -2.667887 3.452082 0
M  V30 19 C -2.540989 -3.738257 2.650054 0
M  V30 20 N -1.546611 -3.417910 1.824857 0
M  V30 21 C -1.229714 -2.124652 2.066527 0
M  V30 22 N -0.330813 -1.246694 1.569826 0
M  V30 23 C -0.792799 -4.107504 0.804245 0
M  V30 24 C -0.893560 -5.606712 0.989701 0
M  V30 25 C -2.232822 -6.143706 0.600502 0
M  V30 26 N -3.188110 -6.095425 1.699171 0
M  V30 27 C -3.187584 -5.067354 2.711803 0
M  V30 28 O -3.798043 -5.292580 3.785351 0
M  V30 29 H 1.519388 -0.454812 0.117482 0
M  V30 30 H 4.035240 1.284941 1.427523 0
M  V30 31 H 5.553491 5.211589 -0.786363 0
M  V30 32 H 4.605695 6.613447 -2.580077 0
M  V30 33 H 2.464633 6.106262 -3.603962 0
M  V30 34 H 1.203189 4.108913 -2.807259 0
M  V30 35 H 1.015660 2.266720 -1.415202 0
M  V30 36 H -0.954447 1.524293 3.346401 0
M  V30 37 H -2.636076 0.026084 4.336718 0
M  V30 38 H -3.677961 -2.667128 4.202552 0
M  V30 39 H -1.269006 -3.883772 -0.182212 0
M  V30 40 H 0.250482 -3.767646 0.732464 0
M  V30 41 H -0.150232 -6.049097 0.264640 0
M  V30 42 H -0.536872 -5.936333 1.987233 0
M  V30 43 H -2.638530 -5.466323 -0.193994 0
M  V30 44 H -2.106143 -7.185418 0.226488 0
M  V30 45 H -3.937743 -6.810411 1.819334 0
M  V30 END ATOM
M  V30 BEGIN BOND
M  V30 1 2 1 2
M  V30 2 1 2 3
M  V30 3 1 3 4
M  V30 4 2 4 5
M  V30 5 1 5 6
M  V30 6 2 6 7
M  V30 7 1 7 8
M  V30 8 2 8 9
M  V30 9 1 9 10
M  V30 10 2 10 11
M  V30 11 1 11 12
M  V30 12 2 12 13
M  V30 13 1 2 14
M  V30 14 2 14 15
M  V30 15 1 15 16
M  V30 16 2 16 17
M  V30 17 1 17 18
M  V30 18 2 18 19
M  V30 19 1 19 20
M  V30 20 1 20 21
M  V30 21 2 21 22
M  V30 22 1 20 23
M  V30 23 1 23 24
M  V30 24 1 24 25
M  V30 25 1 25 26
M  V30 26 1 26 27
M  V30 27 2 27 28
M  V30 28 1 13 4
M  V30 29 1 22 14
M  V30 30 1 12 7
M  V30 31 1 21 17
M  V30 32 1 27 19
M  V30 33 1 3 29
M  V30 34 1 5 30
M  V30 35 1 8 31
M  V30 36 1 9 32
M  V30 37 1 10 33
M  V30 38 1 11 34
M  V30 39 1 13 35
M  V30 40 1 15 36
M  V30 41 1 16 37
M  V30 42 1 18 38
M  V30 43 1 23 39
M  V30 44 1 23 40
M  V30 45 1 24 41
M  V30 46 1 24 42
M  V30 47 1 25 43
M  V30 48 1 25 44
M  V30 49 1 26 45
M  V30 END BOND
M  V30 END CTAB
M  END
>  <Dataset>  (803) 
ChEMBL_Kinases

>  <Ligand_Instance>  (803) 
nan

>  <PDB_ID>  (803) 
nan

>  <Standardized_SMILES>  (803) 
O=C(Nc1cnc2ccccc2c1)c1ccc2cc3n(c2n1)CCCNC3=O

>  <Name>  (803) 
nan

>  <Pocket>  (803) 
nan

>  <ATP_Site>  (803) 
nan

>  <Peripheral>  (803) 
nan

>  <Num_H_Atoms_ProtBoundConf>  (803) 
nan

>  <Num_Resolved_Atoms>  (803) 
nan

>  <Num_Not_Resolved_Atoms>  (803) 
nan

$$$$
CHEMBL3673587
     RDKit          3D

  0  0  0  0  0  0  0  0  0  0999 V3000
M  V30 BEGIN CTAB
M  V30 COUNTS 49 53 0 0 0
M  V30 BEGIN ATOM
M  V30 1 C -0.579515 -5.540177 -4.626157 0
M  V30 2 C 0.790415 -5.253592 -4.093387 0
M  V30 3 N 1.177534 -4.429265 -3.368919 0
M  V30 4 C 2.440689 -4.265711 -2.955409 0
M  V30 5 C 2.904970 -3.224408 -2.045850 0
M  V30 6 C 4.219495 -3.103760 -1.653791 0
M  V30 7 C 4.653560 -2.118719 -0.794525 0
M  V30 8 C 3.770404 -1.192009 -0.279816 0
M  V30 9 C 2.445302 -1.292561 -0.658764 0
M  V30 10 N 1.527734 -0.341069 -0.132724 0
M  V30 11 C 1.099839 0.914698 -0.587953 0
M  V30 12 O 1.543617 1.409536 -1.666257 0
M  V30 13 C 0.123624 1.610478 0.244784 0
M  V30 14 C -0.313273 2.850261 -0.183379 0
M  V30 15 C -1.249213 3.587673 0.554333 0
M  V30 16 C -1.716758 3.016412 1.733396 0
M  V30 17 C -2.620926 3.447893 2.688350 0
M  V30 18 C -2.696490 2.458661 3.652584 0
M  V30 19 N -1.873936 1.443748 3.320700 0
M  V30 20 C -1.272440 1.779147 2.148494 0
M  V30 21 N -0.374062 1.105454 1.410954 0
M  V30 22 C -1.584403 0.176894 3.988538 0
M  V30 23 C -1.770512 0.393445 5.471826 0
M  V30 24 C -3.215551 0.233097 5.864061 0
M  V30 25 N -3.852250 1.540815 5.840588 0
M  V30 26 C -3.559002 2.540721 4.847778 0
M  V30 27 O -4.086010 3.666416 4.964361 0
M  V30 28 C 2.065979 -2.287556 -1.513268 0
M  V30 29 C 3.381033 -5.237187 -3.491632 0
M  V30 30 S 2.280855 -6.272364 -4.541037 0
M  V30 31 H -0.776289 -4.871713 -5.468084 0
M  V30 32 H -0.693201 -6.625206 -4.859974 0
M  V30 33 H -1.270761 -5.332484 -3.812751 0
M  V30 34 H 4.966988 -3.779841 -2.005832 0
M  V30 35 H 5.691179 -2.048544 -0.504408 0
M  V30 36 H 4.118013 -0.435064 0.383673 0
M  V30 37 H 1.177247 -0.785031 0.764746 0
M  V30 38 H 0.053266 3.299133 -1.108610 0
M  V30 39 H -1.603029 4.545249 0.247656 0
M  V30 40 H -3.181051 4.371434 2.713856 0
M  V30 41 H -0.575564 -0.138139 3.709863 0
M  V30 42 H -2.314379 -0.598328 3.655050 0
M  V30 43 H -1.441285 1.409793 5.790133 0
M  V30 44 H -1.113642 -0.313459 6.040648 0
M  V30 45 H -3.217207 -0.204446 6.905224 0
M  V30 46 H -3.773560 -0.449990 5.163282 0
M  V30 47 H -4.552582 1.814312 6.544464 0
M  V30 48 H 1.016645 -2.316787 -1.774441 0
M  V30 49 H 4.421401 -5.265309 -3.276777 0
M  V30 END ATOM
M  V30 BEGIN BOND
M  V30 1 1 1 2
M  V30 2 2 2 3
M  V30 3 1 3 4
M  V30 4 1 4 5
M  V30 5 2 5 6
M  V30 6 1 6 7
M  V30 7 2 7 8
M  V30 8 1 8 9
M  V30 9 1 9 10
M  V30 10 1 10 11
M  V30 11 2 11 12
M  V30 12 1 11 13
M  V30 13 2 13 14
M  V30 14 1 14 15
M  V30 15 2 15 16
M  V30 16 1 16 17
M  V30 17 2 17 18
M  V30 18 1 18 19
M  V30 19 1 19 20
M  V30 20 2 20 21
M  V30 21 1 19 22
M  V30 22 1 22 23
M  V30 23 1 23 24
M  V30 24 1 24 25
M  V30 25 1 25 26
M  V30 26 2 26 27
M  V30 27 2 9 28
M  V30 28 2 4 29
M  V30 29 1 29 30
M  V30 30 1 30 2
M  V30 31 1 28 5
M  V30 32 1 21 13
M  V30 33 1 20 16
M  V30 34 1 26 18
M  V30 35 1 1 31
M  V30 36 1 1 32
M  V30 37 1 1 33
M  V30 38 1 6 34
M  V30 39 1 7 35
M  V30 40 1 8 36
M  V30 41 1 10 37
M  V30 42 1 14 38
M  V30 43 1 15 39
M  V30 44 1 17 40
M  V30 45 1 22 41
M  V30 46 1 22 42
M  V30 47 1 23 43
M  V30 48 1 23 44
M  V30 49 1 24 45
M  V30 50 1 24 46
M  V30 51 1 25 47
M  V30 52 1 28 48
M  V30 53 1 29 49
M  V30 END BOND
M  V30 END CTAB
M  END
>  <Dataset>  (804) 
ChEMBL_Kinases

>  <Ligand_Instance>  (804) 
nan

>  <PDB_ID>  (804) 
nan

>  <Standardized_SMILES>  (804) 
Cc1nc(-c2cccc(NC(=O)c3ccc4cc5n(c4n3)CCCNC5=O)c2)cs1

>  <Name>  (804) 
nan

>  <Pocket>  (804) 
nan

>  <ATP_Site>  (804) 
nan

>  <Peripheral>  (804) 
nan

>  <Num_H_Atoms_ProtBoundConf>  (804) 
nan

>  <Num_Resolved_Atoms>  (804) 
nan

>  <Num_Not_Resolved_Atoms>  (804) 
nan

$$$$
CHEMBL3673588
     RDKit          3D

  0  0  0  0  0  0  0  0  0  0999 V3000
M  V30 BEGIN CTAB
M  V30 COUNTS 40 43 0 0 0
M  V30 BEGIN ATOM
M  V30 1 O -0.498944 -3.494479 -1.763270 0
M  V30 2 C -0.090710 -2.616541 -0.965512 0
M  V30 3 N 1.177167 -2.754074 -0.386389 0
M  V30 4 C 2.225932 -3.704434 -0.461872 0
M  V30 5 C 2.213057 -4.749061 0.429033 0
M  V30 6 C 3.265627 -5.655435 0.313289 0
M  V30 7 C 4.253740 -5.480106 -0.659991 0
M  V30 8 C 4.213279 -4.402216 -1.534364 0
M  V30 9 F 5.191279 -4.273058 -2.460294 0
M  V30 10 C 3.180988 -3.491870 -1.438906 0
M  V30 11 C -0.858897 -1.434859 -0.588353 0
M  V30 12 C -2.106719 -1.308661 -1.164417 0
M  V30 13 C -2.873108 -0.191485 -0.829070 0
M  V30 14 C -2.361791 0.736346 0.056285 0
M  V30 15 C -2.915550 1.905465 0.538484 0
M  V30 16 C -1.956728 2.423205 1.388601 0
M  V30 17 N -0.863484 1.627791 1.439343 0
M  V30 18 C -1.110094 0.585004 0.617733 0
M  V30 19 N -0.418361 -0.494653 0.267785 0
M  V30 20 C 0.391821 1.689570 2.143977 0
M  V30 21 C 0.675888 3.023876 2.749331 0
M  V30 22 C -0.247042 3.405587 3.879924 0
M  V30 23 N -1.333201 4.178216 3.263437 0
M  V30 24 C -2.077505 3.663775 2.147083 0
M  V30 25 O -3.017212 4.418296 1.734037 0
M  V30 26 H 1.591943 -2.053544 0.297227 0
M  V30 27 H 1.429913 -4.852248 1.170291 0
M  V30 28 H 3.316894 -6.507187 0.988102 0
M  V30 29 H 5.040008 -6.246288 -0.671343 0
M  V30 30 H 3.127903 -2.639990 -2.112308 0
M  V30 31 H -2.491585 -2.045444 -1.856268 0
M  V30 32 H -3.846811 -0.101321 -1.284106 0
M  V30 33 H -3.878754 2.331084 0.311363 0
M  V30 34 H 0.415197 0.906631 2.951905 0
M  V30 35 H 1.187579 1.465734 1.429371 0
M  V30 36 H 0.653391 3.811551 1.986176 0
M  V30 37 H 1.695611 2.947807 3.206331 0
M  V30 38 H 0.237615 3.944510 4.705045 0
M  V30 39 H -0.671098 2.462505 4.321565 0
M  V30 40 H -1.663760 5.121557 3.546570 0
M  V30 END ATOM
M  V30 BEGIN BOND
M  V30 1 2 1 2
M  V30 2 1 2 3
M  V30 3 1 3 4
M  V30 4 2 4 5
M  V30 5 1 5 6
M  V30 6 2 6 7
M  V30 7 1 7 8
M  V30 8 1 8 9
M  V30 9 2 8 10
M  V30 10 1 2 11
M  V30 11 2 11 12
M  V30 12 1 12 13
M  V30 13 2 13 14
M  V30 14 1 14 15
M  V30 15 2 15 16
M  V30 16 1 16 17
M  V30 17 1 17 18
M  V30 18 2 18 19
M  V30 19 1 17 20
M  V30 20 1 20 21
M  V30 21 1 21 22
M  V30 22 1 22 23
M  V30 23 1 23 24
M  V30 24 2 24 25
M  V30 25 1 10 4
M  V30 26 1 19 11
M  V30 27 1 18 14
M  V30 28 1 24 16
M  V30 29 1 3 26
M  V30 30 1 5 27
M  V30 31 1 6 28
M  V30 32 1 7 29
M  V30 33 1 10 30
M  V30 34 1 12 31
M  V30 35 1 13 32
M  V30 36 1 15 33
M  V30 37 1 20 34
M  V30 38 1 20 35
M  V30 39 1 21 36
M  V30 40 1 21 37
M  V30 41 1 22 38
M  V30 42 1 22 39
M  V30 43 1 23 40
M  V30 END BOND
M  V30 END CTAB
M  END
>  <Dataset>  (805) 
ChEMBL_Kinases

>  <Ligand_Instance>  (805) 
nan

>  <PDB_ID>  (805) 
nan

>  <Standardized_SMILES>  (805) 
O=C(Nc1cccc(F)c1)c1ccc2cc3n(c2n1)CCCNC3=O

>  <Name>  (805) 
nan

>  <Pocket>  (805) 
nan

>  <ATP_Site>  (805) 
nan

>  <Peripheral>  (805) 
nan

>  <Num_H_Atoms_ProtBoundConf>  (805) 
nan

>  <Num_Resolved_Atoms>  (805) 
nan

>  <Num_Not_Resolved_Atoms>  (805) 
nan

$$$$
CHEMBL3673589
     RDKit          3D

  0  0  0  0  0  0  0  0  0  0999 V3000
M  V30 BEGIN CTAB
M  V30 COUNTS 44 47 0 0 0
M  V30 BEGIN ATOM
M  V30 1 N 3.775041 -2.485384 -2.905310 0
M  V30 2 C 2.998287 -1.453333 -2.332887 0
M  V30 3 O 2.424098 -1.845066 -1.284989 0
M  V30 4 C 2.893465 -0.116939 -2.903381 0
M  V30 5 C 3.586481 0.136757 -4.049754 0
M  V30 6 C 3.465326 1.414363 -4.564700 0
M  V30 7 C 2.693130 2.403666 -3.975657 0
M  V30 8 C 2.010744 2.067970 -2.800390 0
M  V30 9 C 2.100971 0.804364 -2.247988 0
M  V30 10 N 1.390022 0.479370 -1.036921 0
M  V30 11 C 2.166998 0.745338 0.135515 0
M  V30 12 O 3.337414 1.211037 0.081475 0
M  V30 13 C 1.556832 0.457096 1.435826 0
M  V30 14 C 2.254092 0.691597 2.605132 0
M  V30 15 C 1.720251 0.434845 3.871124 0
M  V30 16 C 0.437491 -0.074958 3.913996 0
M  V30 17 C -0.442698 -0.459988 4.929710 0
M  V30 18 C -1.611358 -0.901112 4.315929 0
M  V30 19 N -1.493604 -0.806084 2.961685 0
M  V30 20 C -0.259338 -0.309330 2.745782 0
M  V30 21 N 0.289384 -0.048486 1.530409 0
M  V30 22 C -2.462383 -1.154354 1.965132 0
M  V30 23 C -3.269776 -2.369405 2.285658 0
M  V30 24 C -4.466978 -2.065062 3.165297 0
M  V30 25 N -4.043224 -1.764249 4.512592 0
M  V30 26 C -2.777273 -1.389103 5.045520 0
M  V30 27 O -2.650803 -1.493385 6.312952 0
M  V30 28 H 3.475334 -3.290908 -3.524416 0
M  V30 29 H 4.810118 -2.675871 -2.841356 0
M  V30 30 H 4.202145 -0.610151 -4.542025 0
M  V30 31 H 3.993227 1.667445 -5.470333 0
M  V30 32 H 2.595686 3.401928 -4.373942 0
M  V30 33 H 1.416071 2.844399 -2.354658 0
M  V30 34 H 0.417702 0.089746 -0.915114 0
M  V30 35 H 3.275624 1.097808 2.564517 0
M  V30 36 H 2.246627 0.610615 4.789082 0
M  V30 37 H -0.224866 -0.411530 5.989182 0
M  V30 38 H -1.922911 -1.382782 1.002542 0
M  V30 39 H -3.137217 -0.315215 1.757094 0
M  V30 40 H -2.682221 -3.199203 2.694488 0
M  V30 41 H -3.701741 -2.740540 1.321277 0
M  V30 42 H -5.199841 -2.872818 3.140921 0
M  V30 43 H -4.943986 -1.145253 2.732454 0
M  V30 44 H -4.844460 -1.848655 5.196117 0
M  V30 END ATOM
M  V30 BEGIN BOND
M  V30 1 1 1 2
M  V30 2 2 2 3
M  V30 3 1 2 4
M  V30 4 2 4 5
M  V30 5 1 5 6
M  V30 6 2 6 7
M  V30 7 1 7 8
M  V30 8 2 8 9
M  V30 9 1 9 10
M  V30 10 1 10 11
M  V30 11 2 11 12
M  V30 12 1 11 13
M  V30 13 2 13 14
M  V30 14 1 14 15
M  V30 15 2 15 16
M  V30 16 1 16 17
M  V30 17 2 17 18
M  V30 18 1 18 19
M  V30 19 1 19 20
M  V30 20 2 20 21
M  V30 21 1 19 22
M  V30 22 1 22 23
M  V30 23 1 23 24
M  V30 24 1 24 25
M  V30 25 1 25 26
M  V30 26 2 26 27
M  V30 27 1 9 4
M  V30 28 1 21 13
M  V30 29 1 20 16
M  V30 30 1 26 18
M  V30 31 1 1 28
M  V30 32 1 1 29
M  V30 33 1 5 30
M  V30 34 1 6 31
M  V30 35 1 7 32
M  V30 36 1 8 33
M  V30 37 1 10 34
M  V30 38 1 14 35
M  V30 39 1 15 36
M  V30 40 1 17 37
M  V30 41 1 22 38
M  V30 42 1 22 39
M  V30 43 1 23 40
M  V30 44 1 23 41
M  V30 45 1 24 42
M  V30 46 1 24 43
M  V30 47 1 25 44
M  V30 END BOND
M  V30 END CTAB
M  END
>  <Dataset>  (806) 
ChEMBL_Kinases

>  <Ligand_Instance>  (806) 
nan

>  <PDB_ID>  (806) 
nan

>  <Standardized_SMILES>  (806) 
NC(=O)c1ccccc1NC(=O)c1ccc2cc3n(c2n1)CCCNC3=O

>  <Name>  (806) 
nan

>  <Pocket>  (806) 
nan

>  <ATP_Site>  (806) 
nan

>  <Peripheral>  (806) 
nan

>  <Num_H_Atoms_ProtBoundConf>  (806) 
nan

>  <Num_Resolved_Atoms>  (806) 
nan

>  <Num_Not_Resolved_Atoms>  (806) 
nan

$$$$
CHEMBL3673590
     RDKit          3D

  0  0  0  0  0  0  0  0  0  0999 V3000
M  V30 BEGIN CTAB
M  V30 COUNTS 39 42 0 0 0
M  V30 BEGIN ATOM
M  V30 1 O 0.632645 -0.892466 -3.047087 0
M  V30 2 C 0.413278 -0.965274 -1.814674 0
M  V30 3 N -0.198695 -2.180862 -1.424539 0
M  V30 4 C -0.486443 -3.151789 -2.443309 0
M  V30 5 C 0.382899 -4.147316 -2.842982 0
M  V30 6 C -0.028664 -5.028028 -3.850498 0
M  V30 7 C -1.296247 -4.831860 -4.378948 0
M  V30 8 N -2.123394 -3.851969 -3.969742 0
M  V30 9 C -1.743596 -2.986060 -2.992927 0
M  V30 10 C 0.740231 0.075560 -0.844866 0
M  V30 11 C 1.336659 1.237277 -1.294621 0
M  V30 12 C 1.622149 2.185030 -0.330767 0
M  V30 13 C 1.306794 1.931619 0.993334 0
M  V30 14 C 1.520856 2.767359 2.092678 0
M  V30 15 C 1.024900 2.028601 3.150844 0
M  V30 16 N 0.545963 0.845157 2.757673 0
M  V30 17 C 0.706924 0.754928 1.420799 0
M  V30 18 N 0.446446 -0.140972 0.447517 0
M  V30 19 C -0.067582 -0.293350 3.390743 0
M  V30 20 C 0.171105 -0.276552 4.902893 0
M  V30 21 C -0.622863 0.820926 5.583835 0
M  V30 22 N 0.155163 2.062286 5.633206 0
M  V30 23 C 1.019431 2.484004 4.557920 0
M  V30 24 O 1.906786 3.364332 4.821369 0
M  V30 25 H -0.436396 -2.370794 -0.423384 0
M  V30 26 H 1.335243 -4.170770 -2.336259 0
M  V30 27 H 0.663392 -5.782972 -4.135417 0
M  V30 28 H -1.592240 -5.523806 -5.155359 0
M  V30 29 H -2.450099 -2.220026 -2.706196 0
M  V30 30 H 1.562311 1.385452 -2.341869 0
M  V30 31 H 2.088201 3.098193 -0.666012 0
M  V30 32 H 1.954384 3.751684 2.186939 0
M  V30 33 H 0.370983 -1.249084 3.039598 0
M  V30 34 H -1.167503 -0.340031 3.257319 0
M  V30 35 H -0.109564 -1.239496 5.337590 0
M  V30 36 H 1.246546 -0.076028 5.081506 0
M  V30 37 H -1.549759 1.077804 5.048732 0
M  V30 38 H -0.840520 0.481280 6.608435 0
M  V30 39 H 0.147240 2.727207 6.432639 0
M  V30 END ATOM
M  V30 BEGIN BOND
M  V30 1 2 1 2
M  V30 2 1 2 3
M  V30 3 1 3 4
M  V30 4 2 4 5
M  V30 5 1 5 6
M  V30 6 2 6 7
M  V30 7 1 7 8
M  V30 8 2 8 9
M  V30 9 1 2 10
M  V30 10 2 10 11
M  V30 11 1 11 12
M  V30 12 2 12 13
M  V30 13 1 13 14
M  V30 14 2 14 15
M  V30 15 1 15 16
M  V30 16 1 16 17
M  V30 17 2 17 18
M  V30 18 1 16 19
M  V30 19 1 19 20
M  V30 20 1 20 21
M  V30 21 1 21 22
M  V30 22 1 22 23
M  V30 23 2 23 24
M  V30 24 1 9 4
M  V30 25 1 18 10
M  V30 26 1 17 13
M  V30 27 1 23 15
M  V30 28 1 3 25
M  V30 29 1 5 26
M  V30 30 1 6 27
M  V30 31 1 7 28
M  V30 32 1 9 29
M  V30 33 1 11 30
M  V30 34 1 12 31
M  V30 35 1 14 32
M  V30 36 1 19 33
M  V30 37 1 19 34
M  V30 38 1 20 35
M  V30 39 1 20 36
M  V30 40 1 21 37
M  V30 41 1 21 38
M  V30 42 1 22 39
M  V30 END BOND
M  V30 END CTAB
M  END
>  <Dataset>  (807) 
ChEMBL_Kinases

>  <Ligand_Instance>  (807) 
nan

>  <PDB_ID>  (807) 
nan

>  <Standardized_SMILES>  (807) 
O=C(Nc1cccnc1)c1ccc2cc3n(c2n1)CCCNC3=O

>  <Name>  (807) 
nan

>  <Pocket>  (807) 
nan

>  <ATP_Site>  (807) 
nan

>  <Peripheral>  (807) 
nan

>  <Num_H_Atoms_ProtBoundConf>  (807) 
nan

>  <Num_Resolved_Atoms>  (807) 
nan

>  <Num_Not_Resolved_Atoms>  (807) 
nan

$$$$
CHEMBL3673591
     RDKit          3D

  0  0  0  0  0  0  0  0  0  0999 V3000
M  V30 BEGIN CTAB
M  V30 COUNTS 49 52 0 0 0
M  V30 BEGIN ATOM
M  V30 1 C 0.824553 -7.732654 -4.841485 0
M  V30 2 C 0.436648 -6.849968 -3.642817 0
M  V30 3 O 1.182176 -5.690619 -3.785837 0
M  V30 4 C 1.286804 -4.578181 -3.089407 0
M  V30 5 O 0.460003 -5.359300 -2.549391 0
M  V30 6 C 1.542838 -3.311955 -2.483610 0
M  V30 7 N 0.902735 -2.965425 -1.351579 0
M  V30 8 C 1.300810 -1.738586 -0.973096 0
M  V30 9 N 0.894061 -0.963810 0.149690 0
M  V30 10 C -0.221142 -0.165434 -0.267581 0
M  V30 11 O -0.545344 -0.341661 -1.469196 0
M  V30 12 C -0.924259 0.776066 0.629991 0
M  V30 13 C -1.976897 1.466840 0.067099 0
M  V30 14 C -2.638986 2.351984 0.898992 0
M  V30 15 C -2.279522 2.541240 2.210288 0
M  V30 16 C -2.794654 3.362812 3.202438 0
M  V30 17 C -2.035327 3.135259 4.318376 0
M  V30 18 N -1.092040 2.206144 4.009991 0
M  V30 19 C -1.216582 1.823370 2.725626 0
M  V30 20 N -0.586195 0.975570 1.919875 0
M  V30 21 C -0.033575 1.593758 4.797593 0
M  V30 22 C 0.405391 2.570565 5.874531 0
M  V30 23 C -0.567751 2.481928 7.052240 0
M  V30 24 N -1.540781 3.555188 6.843863 0
M  V30 25 C -2.222834 3.794432 5.620480 0
M  V30 26 O -3.100453 4.673641 5.624968 0
M  V30 27 C 2.208012 -1.396363 -1.953008 0
M  V30 28 N 2.374975 -2.340538 -2.888980 0
M  V30 29 C 3.235643 -2.328203 -4.051887 0
M  V30 30 H 0.940707 -8.784575 -4.522300 0
M  V30 31 H 1.798059 -7.427066 -5.275145 0
M  V30 32 H 0.071994 -7.664264 -5.648002 0
M  V30 33 H 0.665418 -7.454560 -2.723178 0
M  V30 34 H -0.650001 -6.762687 -3.705266 0
M  V30 35 H 1.232387 -0.880859 1.132008 0
M  V30 36 H -2.311159 1.364934 -0.958274 0
M  V30 37 H -3.469660 2.923557 0.523527 0
M  V30 38 H -3.613901 4.026124 3.093818 0
M  V30 39 H 0.848880 1.378594 4.164688 0
M  V30 40 H -0.369642 0.666031 5.292802 0
M  V30 41 H 1.451970 2.369333 6.225637 0
M  V30 42 H 0.438016 3.606622 5.482501 0
M  V30 43 H -0.031549 2.583389 8.010411 0
M  V30 44 H -1.151156 1.543175 6.969687 0
M  V30 45 H -1.744061 4.183224 7.650194 0
M  V30 46 H 2.738292 -0.436400 -1.956066 0
M  V30 47 H 4.244967 -1.922535 -3.809565 0
M  V30 48 H 2.826002 -1.641650 -4.832918 0
M  V30 49 H 3.399028 -3.323937 -4.467127 0
M  V30 END ATOM
M  V30 BEGIN BOND
M  V30 1 1 1 2
M  V30 2 1 2 3
M  V30 3 1 3 4
M  V30 4 2 4 5
M  V30 5 1 4 6
M  V30 6 2 6 7
M  V30 7 1 7 8
M  V30 8 1 8 9
M  V30 9 1 9 10
M  V30 10 2 10 11
M  V30 11 1 10 12
M  V30 12 2 12 13
M  V30 13 1 13 14
M  V30 14 2 14 15
M  V30 15 1 15 16
M  V30 16 2 16 17
M  V30 17 1 17 18
M  V30 18 1 18 19
M  V30 19 2 19 20
M  V30 20 1 18 21
M  V30 21 1 21 22
M  V30 22 1 22 23
M  V30 23 1 23 24
M  V30 24 1 24 25
M  V30 25 2 25 26
M  V30 26 2 8 27
M  V30 27 1 27 28
M  V30 28 1 28 29
M  V30 29 1 28 6
M  V30 30 1 20 12
M  V30 31 1 19 15
M  V30 32 1 25 17
M  V30 33 1 1 30
M  V30 34 1 1 31
M  V30 35 1 1 32
M  V30 36 1 2 33
M  V30 37 1 2 34
M  V30 38 1 9 35
M  V30 39 1 13 36
M  V30 40 1 14 37
M  V30 41 1 16 38
M  V30 42 1 21 39
M  V30 43 1 21 40
M  V30 44 1 22 41
M  V30 45 1 22 42
M  V30 46 1 23 43
M  V30 47 1 23 44
M  V30 48 1 24 45
M  V30 49 1 27 46
M  V30 50 1 29 47
M  V30 51 1 29 48
M  V30 52 1 29 49
M  V30 END BOND
M  V30 END CTAB
M  END
>  <Dataset>  (808) 
ChEMBL_Kinases

>  <Ligand_Instance>  (808) 
nan

>  <PDB_ID>  (808) 
nan

>  <Standardized_SMILES>  (808) 
CCOC(=O)c1nc(NC(=O)c2ccc3cc4n(c3n2)CCCNC4=O)cn1C

>  <Name>  (808) 
nan

>  <Pocket>  (808) 
nan

>  <ATP_Site>  (808) 
nan

>  <Peripheral>  (808) 
nan

>  <Num_H_Atoms_ProtBoundConf>  (808) 
nan

>  <Num_Resolved_Atoms>  (808) 
nan

>  <Num_Not_Resolved_Atoms>  (808) 
nan

$$$$
CHEMBL3673601
     RDKit          3D

  0  0  0  0  0  0  0  0  0  0999 V3000
M  V30 BEGIN CTAB
M  V30 COUNTS 42 45 0 0 0
M  V30 BEGIN ATOM
M  V30 1 C 0.443377 -7.003405 -1.216966 0
M  V30 2 C 1.312607 -5.820006 -1.140613 0
M  V30 3 C 2.697842 -5.992001 -1.191804 0
M  V30 4 C 3.609651 -4.934286 -1.127139 0
M  V30 5 N 3.110263 -3.684357 -1.008896 0
M  V30 6 C 1.770642 -3.457772 -0.954327 0
M  V30 7 N 1.325353 -2.112729 -0.829510 0
M  V30 8 C 0.989572 -1.094691 -1.738765 0
M  V30 9 O 1.059304 -1.300729 -2.978305 0
M  V30 10 C 0.569406 0.172672 -1.147321 0
M  V30 11 C 0.237718 1.178786 -2.031023 0
M  V30 12 C -0.171826 2.414554 -1.524063 0
M  V30 13 C -0.247360 2.637273 -0.154815 0
M  V30 14 C -0.589921 3.669153 0.697181 0
M  V30 15 C -0.454801 3.255411 2.008196 0
M  V30 16 N -0.030942 1.974458 1.977697 0
M  V30 17 C 0.096541 1.594449 0.679062 0
M  V30 18 N 0.490547 0.405569 0.190559 0
M  V30 19 C 0.235208 1.165244 3.155693 0
M  V30 20 C -0.948938 1.288320 4.105164 0
M  V30 21 C -0.710948 2.367522 5.142286 0
M  V30 22 N -0.828281 3.689072 4.524413 0
M  V30 23 C -0.738396 4.107796 3.162286 0
M  V30 24 O -0.919744 5.333819 2.915420 0
M  V30 25 C 0.867534 -4.499435 -1.017875 0
M  V30 26 H 0.616917 -7.701960 -0.376003 0
M  V30 27 H 0.683223 -7.496373 -2.199864 0
M  V30 28 H -0.619956 -6.694187 -1.184355 0
M  V30 29 H 3.110446 -7.000896 -1.287500 0
M  V30 30 H 4.671251 -5.147736 -1.173235 0
M  V30 31 H 1.296352 -2.029033 0.210371 0
M  V30 32 H 0.281526 1.050706 -3.098978 0
M  V30 33 H -0.442344 3.234826 -2.170604 0
M  V30 34 H -0.913321 4.648087 0.331700 0
M  V30 35 H 1.129911 1.492089 3.710893 0
M  V30 36 H 0.280541 0.074852 2.890704 0
M  V30 37 H -1.156311 0.329413 4.641418 0
M  V30 38 H -1.850534 1.538889 3.529438 0
M  V30 39 H -1.497417 2.235845 5.910611 0
M  V30 40 H 0.311654 2.212993 5.551191 0
M  V30 41 H -1.011023 4.450025 5.225945 0
M  V30 42 H -0.200431 -4.344773 -0.976554 0
M  V30 END ATOM
M  V30 BEGIN BOND
M  V30 1 1 1 2
M  V30 2 2 2 3
M  V30 3 1 3 4
M  V30 4 2 4 5
M  V30 5 1 5 6
M  V30 6 1 6 7
M  V30 7 1 7 8
M  V30 8 2 8 9
M  V30 9 1 8 10
M  V30 10 2 10 11
M  V30 11 1 11 12
M  V30 12 2 12 13
M  V30 13 1 13 14
M  V30 14 2 14 15
M  V30 15 1 15 16
M  V30 16 1 16 17
M  V30 17 2 17 18
M  V30 18 1 16 19
M  V30 19 1 19 20
M  V30 20 1 20 21
M  V30 21 1 21 22
M  V30 22 1 22 23
M  V30 23 2 23 24
M  V30 24 2 6 25
M  V30 25 1 25 2
M  V30 26 1 18 10
M  V30 27 1 17 13
M  V30 28 1 23 15
M  V30 29 1 1 26
M  V30 30 1 1 27
M  V30 31 1 1 28
M  V30 32 1 3 29
M  V30 33 1 4 30
M  V30 34 1 7 31
M  V30 35 1 11 32
M  V30 36 1 12 33
M  V30 37 1 14 34
M  V30 38 1 19 35
M  V30 39 1 19 36
M  V30 40 1 20 37
M  V30 41 1 20 38
M  V30 42 1 21 39
M  V30 43 1 21 40
M  V30 44 1 22 41
M  V30 45 1 25 42
M  V30 END BOND
M  V30 END CTAB
M  END
>  <Dataset>  (809) 
ChEMBL_Kinases

>  <Ligand_Instance>  (809) 
nan

>  <PDB_ID>  (809) 
nan

>  <Standardized_SMILES>  (809) 
Cc1ccnc(NC(=O)c2ccc3cc4n(c3n2)CCCNC4=O)c1

>  <Name>  (809) 
nan

>  <Pocket>  (809) 
nan

>  <ATP_Site>  (809) 
nan

>  <Peripheral>  (809) 
nan

>  <Num_H_Atoms_ProtBoundConf>  (809) 
nan

>  <Num_Resolved_Atoms>  (809) 
nan

>  <Num_Not_Resolved_Atoms>  (809) 
nan

$$$$
CHEMBL3673593
     RDKit          3D

  0  0  0  0  0  0  0  0  0  0999 V3000
M  V30 BEGIN CTAB
M  V30 COUNTS 51 55 0 0 0
M  V30 BEGIN ATOM
M  V30 1 C 5.758189 -3.612239 2.961723 0
M  V30 2 C 6.447075 -2.280015 3.054846 0
M  V30 3 C 7.886364 -2.357027 2.561036 0
M  V30 4 N 5.725925 -1.224066 2.379037 0
M  V30 5 N 6.314377 -0.204367 1.774324 0
M  V30 6 C 5.375133 0.601097 1.244340 0
M  V30 7 C 4.125840 0.040178 1.542492 0
M  V30 8 C 2.820792 0.420543 1.260120 0
M  V30 9 C 1.793785 -0.386113 1.717571 0
M  V30 10 N 0.424570 -0.075206 1.475488 0
M  V30 11 C -0.484903 0.695981 2.252405 0
M  V30 12 O -0.096448 1.215888 3.330927 0
M  V30 13 C -1.853682 0.844963 1.741680 0
M  V30 14 C -2.723611 1.596866 2.508471 0
M  V30 15 C -4.029415 1.752265 2.043296 0
M  V30 16 C -4.433824 1.173363 0.857991 0
M  V30 17 C -5.611961 1.134278 0.140552 0
M  V30 18 C -5.380022 0.376292 -0.989703 0
M  V30 19 N -4.093033 -0.071503 -1.020490 0
M  V30 20 C -3.519516 0.421472 0.115800 0
M  V30 21 N -2.251597 0.281659 0.585872 0
M  V30 22 C -3.349506 -0.880998 -1.952903 0
M  V30 23 C -3.984782 -0.754314 -3.311127 0
M  V30 24 C -5.209711 -1.596375 -3.472270 0
M  V30 25 N -6.410925 -0.917769 -3.003234 0
M  V30 26 C -6.412319 0.105250 -2.011595 0
M  V30 27 O -7.404209 0.904749 -1.965011 0
M  V30 28 C 2.066010 -1.550716 2.443400 0
M  V30 29 N 3.354909 -1.906703 2.710192 0
M  V30 30 C 4.384747 -1.127421 2.269669 0
M  V30 31 H 6.525755 -4.366482 3.262235 0
M  V30 32 H 5.459920 -3.884913 1.939997 0
M  V30 33 H 4.928971 -3.715522 3.667998 0
M  V30 34 H 6.502157 -2.012583 4.131184 0
M  V30 35 H 8.602306 -2.502416 3.408474 0
M  V30 36 H 8.011758 -3.257947 1.924950 0
M  V30 37 H 8.107822 -1.408653 2.052365 0
M  V30 38 H 5.484798 1.531713 0.676533 0
M  V30 39 H 2.615255 1.309246 0.706331 0
M  V30 40 H 0.155365 -0.536738 0.559954 0
M  V30 41 H -2.479273 2.080210 3.446439 0
M  V30 42 H -4.756005 2.338357 2.614131 0
M  V30 43 H -6.545549 1.610044 0.413534 0
M  V30 44 H -2.316295 -0.461103 -2.002339 0
M  V30 45 H -3.354980 -1.943687 -1.644669 0
M  V30 46 H -4.180743 0.296040 -3.583768 0
M  V30 47 H -3.241525 -1.133800 -4.047710 0
M  V30 48 H -5.074005 -2.569130 -2.928015 0
M  V30 49 H -5.365059 -1.774976 -4.557811 0
M  V30 50 H -7.338132 -1.147092 -3.371380 0
M  V30 51 H 1.276909 -2.197288 2.811329 0
M  V30 END ATOM
M  V30 BEGIN BOND
M  V30 1 1 1 2
M  V30 2 1 2 3
M  V30 3 1 2 4
M  V30 4 1 4 5
M  V30 5 2 5 6
M  V30 6 1 6 7
M  V30 7 2 7 8
M  V30 8 1 8 9
M  V30 9 1 9 10
M  V30 10 1 10 11
M  V30 11 2 11 12
M  V30 12 1 11 13
M  V30 13 2 13 14
M  V30 14 1 14 15
M  V30 15 2 15 16
M  V30 16 1 16 17
M  V30 17 2 17 18
M  V30 18 1 18 19
M  V30 19 1 19 20
M  V30 20 2 20 21
M  V30 21 1 19 22
M  V30 22 1 22 23
M  V30 23 1 23 24
M  V30 24 1 24 25
M  V30 25 1 25 26
M  V30 26 2 26 27
M  V30 27 2 9 28
M  V30 28 1 28 29
M  V30 29 2 29 30
M  V30 30 1 30 4
M  V30 31 1 30 7
M  V30 32 1 21 13
M  V30 33 1 20 16
M  V30 34 1 26 18
M  V30 35 1 1 31
M  V30 36 1 1 32
M  V30 37 1 1 33
M  V30 38 1 2 34
M  V30 39 1 3 35
M  V30 40 1 3 36
M  V30 41 1 3 37
M  V30 42 1 6 38
M  V30 43 1 8 39
M  V30 44 1 10 40
M  V30 45 1 14 41
M  V30 46 1 15 42
M  V30 47 1 17 43
M  V30 48 1 22 44
M  V30 49 1 22 45
M  V30 50 1 23 46
M  V30 51 1 23 47
M  V30 52 1 24 48
M  V30 53 1 24 49
M  V30 54 1 25 50
M  V30 55 1 28 51
M  V30 END BOND
M  V30 END CTAB
M  END
>  <Dataset>  (810) 
ChEMBL_Kinases

>  <Ligand_Instance>  (810) 
nan

>  <PDB_ID>  (810) 
nan

>  <Standardized_SMILES>  (810) 
CC(C)n1ncc2cc(NC(=O)c3ccc4cc5n(c4n3)CCCNC5=O)cnc21

>  <Name>  (810) 
nan

>  <Pocket>  (810) 
nan

>  <ATP_Site>  (810) 
nan

>  <Peripheral>  (810) 
nan

>  <Num_H_Atoms_ProtBoundConf>  (810) 
nan

>  <Num_Resolved_Atoms>  (810) 
nan

>  <Num_Not_Resolved_Atoms>  (810) 
nan

$$$$
CHEMBL3673594
     RDKit          3D

  0  0  0  0  0  0  0  0  0  0999 V3000
M  V30 BEGIN CTAB
M  V30 COUNTS 57 61 0 0 0
M  V30 BEGIN ATOM
M  V30 1 C 6.367785 -1.256758 3.949006 0
M  V30 2 C 7.246352 -0.736504 2.831516 0
M  V30 3 C 8.287693 0.205164 3.390208 0
M  V30 4 N 6.410959 -0.046225 1.860229 0
M  V30 5 N 6.788187 0.886756 0.998339 0
M  V30 6 C 5.748349 1.306516 0.248462 0
M  V30 7 C 4.663680 0.571432 0.691791 0
M  V30 8 C 3.349414 0.611392 0.256575 0
M  V30 9 C 2.425118 -0.223037 0.851711 0
M  V30 10 N 1.030400 -0.338404 0.554633 0
M  V30 11 C 0.214303 0.539623 1.320423 0
M  V30 12 O 0.705105 1.329258 2.169304 0
M  V30 13 C -1.229145 0.517736 1.109864 0
M  V30 14 C -2.053754 1.362117 1.840608 0
M  V30 15 C -3.418938 1.326986 1.626950 0
M  V30 16 C -3.971324 0.465817 0.699220 0
M  V30 17 C -5.252821 0.195862 0.263181 0
M  V30 18 C -5.166304 -0.785452 -0.700260 0
M  V30 19 N -3.830764 -1.121085 -0.858687 0
M  V30 20 C -3.120425 -0.358638 -0.008269 0
M  V30 21 N -1.791345 -0.311934 0.212155 0
M  V30 22 C -3.164294 -2.126006 -1.769701 0
M  V30 23 C -4.262106 -2.625171 -2.423395 0
M  V30 24 C -4.706614 -3.297397 -1.175782 0
M  V30 25 C -4.437988 -1.332334 -3.135846 0
M  V30 26 C -5.342267 -3.152919 -3.098301 0
M  V30 27 N -6.444296 -2.346210 -2.441983 0
M  V30 28 C -6.366947 -1.322396 -1.390974 0
M  V30 29 O -7.460576 -0.824375 -1.015738 0
M  V30 30 C 2.876715 -1.067645 1.869394 0
M  V30 31 N 4.163312 -1.085542 2.273275 0
M  V30 32 C 5.088848 -0.272961 1.701338 0
M  V30 33 H 5.919510 -2.233984 3.686757 0
M  V30 34 H 6.956225 -1.301679 4.891629 0
M  V30 35 H 5.540601 -0.525741 4.147727 0
M  V30 36 H 7.738986 -1.596371 2.331902 0
M  V30 37 H 9.223836 -0.314494 3.669279 0
M  V30 38 H 7.875345 0.616440 4.344541 0
M  V30 39 H 8.464930 1.080163 2.731278 0
M  V30 40 H 5.741956 2.052306 -0.532677 0
M  V30 41 H 2.951661 1.232880 -0.511832 0
M  V30 42 H 0.632051 -1.006417 -0.161297 0
M  V30 43 H -1.605238 2.032546 2.565259 0
M  V30 44 H -4.091373 1.975803 2.183369 0
M  V30 45 H -6.155162 0.647437 0.593559 0
M  V30 46 H -2.480866 -2.777574 -1.134754 0
M  V30 47 H -2.319001 -1.597961 -2.318621 0
M  V30 48 H -4.161546 -4.274053 -1.323904 0
M  V30 49 H -4.367737 -3.053643 -0.160415 0
M  V30 50 H -5.724378 -3.661930 -0.973844 0
M  V30 51 H -5.367230 -0.994634 -3.616221 0
M  V30 52 H -3.795084 -1.558573 -4.029909 0
M  V30 53 H -3.990986 -0.373446 -2.840349 0
M  V30 54 H -5.465542 -3.063289 -4.223828 0
M  V30 55 H -5.628523 -4.250583 -3.040293 0
M  V30 56 H -7.442278 -2.472881 -2.718034 0
M  V30 57 H 2.265544 -1.781736 2.432524 0
M  V30 END ATOM
M  V30 BEGIN BOND
M  V30 1 1 1 2
M  V30 2 1 2 3
M  V30 3 1 2 4
M  V30 4 1 4 5
M  V30 5 2 5 6
M  V30 6 1 6 7
M  V30 7 2 7 8
M  V30 8 1 8 9
M  V30 9 1 9 10
M  V30 10 1 10 11
M  V30 11 2 11 12
M  V30 12 1 11 13
M  V30 13 2 13 14
M  V30 14 1 14 15
M  V30 15 2 15 16
M  V30 16 1 16 17
M  V30 17 2 17 18
M  V30 18 1 18 19
M  V30 19 1 19 20
M  V30 20 2 20 21
M  V30 21 1 19 22
M  V30 22 1 22 23
M  V30 23 1 23 24
M  V30 24 1 23 25
M  V30 25 1 23 26
M  V30 26 1 26 27
M  V30 27 1 27 28
M  V30 28 2 28 29
M  V30 29 2 9 30
M  V30 30 1 30 31
M  V30 31 2 31 32
M  V30 32 1 32 4
M  V30 33 1 32 7
M  V30 34 1 21 13
M  V30 35 1 20 16
M  V30 36 1 28 18
M  V30 37 1 1 33
M  V30 38 1 1 34
M  V30 39 1 1 35
M  V30 40 1 2 36
M  V30 41 1 3 37
M  V30 42 1 3 38
M  V30 43 1 3 39
M  V30 44 1 6 40
M  V30 45 1 8 41
M  V30 46 1 10 42
M  V30 47 1 14 43
M  V30 48 1 15 44
M  V30 49 1 17 45
M  V30 50 1 22 46
M  V30 51 1 22 47
M  V30 52 1 24 48
M  V30 53 1 24 49
M  V30 54 1 24 50
M  V30 55 1 25 51
M  V30 56 1 25 52
M  V30 57 1 25 53
M  V30 58 1 26 54
M  V30 59 1 26 55
M  V30 60 1 27 56
M  V30 61 1 30 57
M  V30 END BOND
M  V30 END CTAB
M  END
>  <Dataset>  (811) 
ChEMBL_Kinases

>  <Ligand_Instance>  (811) 
nan

>  <PDB_ID>  (811) 
nan

>  <Standardized_SMILES>  (811) 
CC(C)n1ncc2cc(NC(=O)c3ccc4cc5n(c4n3)CC(C)(C)CNC5=O)cnc21

>  <Name>  (811) 
nan

>  <Pocket>  (811) 
nan

>  <ATP_Site>  (811) 
nan

>  <Peripheral>  (811) 
nan

>  <Num_H_Atoms_ProtBoundConf>  (811) 
nan

>  <Num_Resolved_Atoms>  (811) 
nan

>  <Num_Not_Resolved_Atoms>  (811) 
nan

$$$$
CHEMBL3673595
     RDKit          3D

  0  0  0  0  0  0  0  0  0  0999 V3000
M  V30 BEGIN CTAB
M  V30 COUNTS 59 64 0 0 0
M  V30 BEGIN ATOM
M  V30 1 C 4.123623 0.979758 2.300075 0
M  V30 2 C 3.779949 1.777213 1.083909 0
M  V30 3 C 4.923111 2.077991 0.172326 0
M  V30 4 C 6.199805 2.439090 0.878480 0
M  V30 5 N 6.061006 3.741865 1.453734 0
M  V30 6 C 4.951707 4.608418 1.734455 0
M  V30 7 O 5.197234 5.815246 2.022790 0
M  V30 8 C 3.536449 4.192271 1.711289 0
M  V30 9 C 2.484923 5.066630 1.994358 0
M  V30 10 C 1.315658 4.334944 1.876692 0
M  V30 11 C -0.036754 4.610599 2.025193 0
M  V30 12 C -1.016897 3.637529 1.835117 0
M  V30 13 C -0.594456 2.369130 1.488656 0
M  V30 14 C -1.657769 1.383293 1.300290 0
M  V30 15 O -2.864703 1.604437 1.425727 0
M  V30 16 N -1.229933 0.078654 0.945401 0
M  V30 17 C -1.863731 -1.154400 0.669585 0
M  V30 18 C -2.196560 -1.358035 -0.662639 0
M  V30 19 N -2.806529 -2.512821 -1.013600 0
M  V30 20 C -3.093958 -3.460369 -0.100025 0
M  V30 21 C -2.775700 -3.288097 1.233908 0
M  V30 22 C -3.157008 -4.378828 2.001218 0
M  V30 23 N -3.706923 -5.199252 1.094619 0
M  V30 24 N -3.682261 -4.692978 -0.120595 0
M  V30 25 C -4.197630 -5.322592 -1.342895 0
M  V30 26 C -4.469349 -6.784041 -1.053849 0
M  V30 27 C -3.188454 -7.580399 -1.246329 0
M  V30 28 O -2.937877 -7.663622 -2.597114 0
M  V30 29 C -3.037960 -6.461854 -3.272564 0
M  V30 30 C -3.078683 -5.265052 -2.357524 0
M  V30 31 C -2.144058 -2.113684 1.654596 0
M  V30 32 N 0.699057 2.124855 1.351560 0
M  V30 33 C 1.680459 3.030101 1.524334 0
M  V30 34 N 3.025219 2.984423 1.434507 0
M  V30 35 H 4.175920 -0.085356 2.036884 0
M  V30 36 H 3.241233 1.068980 2.997164 0
M  V30 37 H 4.974930 1.363753 2.888144 0
M  V30 38 H 3.079902 1.126132 0.481887 0
M  V30 39 H 5.110700 1.198336 -0.505934 0
M  V30 40 H 4.609623 2.891632 -0.515561 0
M  V30 41 H 7.000752 2.455102 0.082476 0
M  V30 42 H 6.502232 1.650700 1.567216 0
M  V30 43 H 6.995274 4.122492 1.719551 0
M  V30 44 H 2.549216 6.114669 2.256561 0
M  V30 45 H -0.340392 5.618079 2.298599 0
M  V30 46 H -2.059899 3.910832 1.965009 0
M  V30 47 H -0.202287 -0.172215 0.822893 0
M  V30 48 H -1.991909 -0.641048 -1.426292 0
M  V30 49 H -3.033694 -4.516590 3.065271 0
M  V30 50 H -5.071631 -4.766303 -1.693247 0
M  V30 51 H -5.181912 -7.139651 -1.826281 0
M  V30 52 H -4.945595 -6.955083 -0.087591 0
M  V30 53 H -3.370371 -8.619301 -0.874085 0
M  V30 54 H -2.390571 -7.060548 -0.667718 0
M  V30 55 H -3.906653 -6.412777 -3.967187 0
M  V30 56 H -2.123845 -6.347802 -3.886119 0
M  V30 57 H -2.098294 -5.174881 -1.844202 0
M  V30 58 H -3.237479 -4.374127 -2.997618 0
M  V30 59 H -1.857387 -1.890381 2.674043 0
M  V30 END ATOM
M  V30 BEGIN BOND
M  V30 1 1 1 2
M  V30 2 1 2 3
M  V30 3 1 3 4
M  V30 4 1 4 5
M  V30 5 1 5 6
M  V30 6 2 6 7
M  V30 7 1 6 8
M  V30 8 2 8 9
M  V30 9 1 9 10
M  V30 10 2 10 11
M  V30 11 1 11 12
M  V30 12 2 12 13
M  V30 13 1 13 14
M  V30 14 2 14 15
M  V30 15 1 14 16
M  V30 16 1 16 17
M  V30 17 2 17 18
M  V30 18 1 18 19
M  V30 19 2 19 20
M  V30 20 1 20 21
M  V30 21 1 21 22
M  V30 22 2 22 23
M  V30 23 1 23 24
M  V30 24 1 24 25
M  V30 25 1 25 26
M  V30 26 1 26 27
M  V30 27 1 27 28
M  V30 28 1 28 29
M  V30 29 1 29 30
M  V30 30 2 21 31
M  V30 31 1 13 32
M  V30 32 2 32 33
M  V30 33 1 33 34
M  V30 34 1 34 2
M  V30 35 1 34 8
M  V30 36 1 33 10
M  V30 37 1 31 17
M  V30 38 1 24 20
M  V30 39 1 30 25
M  V30 40 1 1 35
M  V30 41 1 1 36
M  V30 42 1 1 37
M  V30 43 1 2 38
M  V30 44 1 3 39
M  V30 45 1 3 40
M  V30 46 1 4 41
M  V30 47 1 4 42
M  V30 48 1 5 43
M  V30 49 1 9 44
M  V30 50 1 11 45
M  V30 51 1 12 46
M  V30 52 1 16 47
M  V30 53 1 18 48
M  V30 54 1 22 49
M  V30 55 1 25 50
M  V30 56 1 26 51
M  V30 57 1 26 52
M  V30 58 1 27 53
M  V30 59 1 27 54
M  V30 60 1 29 55
M  V30 61 1 29 56
M  V30 62 1 30 57
M  V30 63 1 30 58
M  V30 64 1 31 59
M  V30 END BOND
M  V30 END CTAB
M  END
>  <Dataset>  (812) 
ChEMBL_Kinases

>  <Ligand_Instance>  (812) 
nan

>  <PDB_ID>  (812) 
nan

>  <Standardized_SMILES>  (812) 
CC1CCNC(=O)c2cc3ccc(C(=O)Nc4cnc5c(cnn5C5CCOCC5)c4)nc3n21

>  <Name>  (812) 
nan

>  <Pocket>  (812) 
nan

>  <ATP_Site>  (812) 
nan

>  <Peripheral>  (812) 
nan

>  <Num_H_Atoms_ProtBoundConf>  (812) 
nan

>  <Num_Resolved_Atoms>  (812) 
nan

>  <Num_Not_Resolved_Atoms>  (812) 
nan

$$$$
CHEMBL3673596
     RDKit          3D

  0  0  0  0  0  0  0  0  0  0999 V3000
M  V30 BEGIN CTAB
M  V30 COUNTS 56 61 0 0 0
M  V30 BEGIN ATOM
M  V30 1 O 0.383059 -3.294901 2.537625 0
M  V30 2 C -0.200612 -2.845965 1.518154 0
M  V30 3 N 0.141079 -1.584691 0.978105 0
M  V30 4 C 1.065853 -0.556276 1.294322 0
M  V30 5 C 0.908615 0.542131 2.114181 0
M  V30 6 N 1.924601 1.411518 2.281895 0
M  V30 7 C 3.114179 1.258322 1.674826 0
M  V30 8 C 3.315421 0.167740 0.841733 0
M  V30 9 C 4.609133 0.283078 0.374872 0
M  V30 10 N 5.139708 1.394040 0.913154 0
M  V30 11 N 4.253087 2.010125 1.709991 0
M  V30 12 C 4.466335 3.233428 2.459844 0
M  V30 13 C 4.863407 2.968136 3.882458 0
M  V30 14 C 4.463999 4.003176 4.867880 0
M  V30 15 O 3.944297 5.154908 4.294366 0
M  V30 16 C 2.812329 4.746689 3.584423 0
M  V30 17 C 3.328223 4.167119 2.291128 0
M  V30 18 C 2.277355 -0.751953 0.648847 0
M  V30 19 C -1.260557 -3.555427 0.803919 0
M  V30 20 C -1.612129 -4.786505 1.313945 0
M  V30 21 C -2.612380 -5.545601 0.706564 0
M  V30 22 C -3.225361 -5.011937 -0.415166 0
M  V30 23 C -4.221802 -5.460254 -1.251814 0
M  V30 24 C -4.447050 -4.498893 -2.238532 0
M  V30 25 N -3.600650 -3.477788 -2.008377 0
M  V30 26 C -2.866150 -3.777876 -0.918405 0
M  V30 27 N -1.901339 -3.092444 -0.297390 0
M  V30 28 C -3.481982 -2.241953 -2.796727 0
M  V30 29 C -4.883636 -1.827186 -3.249358 0
M  V30 30 C -5.209786 -2.481353 -4.569616 0
M  V30 31 N -5.793012 -3.791316 -4.378955 0
M  V30 32 C -5.439338 -4.644491 -3.298234 0
M  V30 33 O -6.095727 -5.725187 -3.234633 0
M  V30 34 H -0.335349 -1.180584 0.119086 0
M  V30 35 H -0.071563 0.598977 2.566663 0
M  V30 36 H 5.092268 -0.413106 -0.306650 0
M  V30 37 H 5.362064 3.741080 1.994213 0
M  V30 38 H 5.977966 2.800022 3.959982 0
M  V30 39 H 4.431751 1.986619 4.174669 0
M  V30 40 H 3.669096 3.606293 5.556823 0
M  V30 41 H 5.324330 4.328539 5.483015 0
M  V30 42 H 2.158838 5.609685 3.321085 0
M  V30 43 H 2.226050 4.024810 4.176193 0
M  V30 44 H 2.467620 3.687803 1.791397 0
M  V30 45 H 3.567571 5.059140 1.649338 0
M  V30 46 H 2.550686 -1.550408 -0.014149 0
M  V30 47 H -1.125966 -5.197959 2.194592 0
M  V30 48 H -2.927445 -6.512798 1.061472 0
M  V30 49 H -4.710554 -6.408402 -1.115685 0
M  V30 50 H -2.855807 -2.400572 -3.687811 0
M  V30 51 H -3.126177 -1.408422 -2.147326 0
M  V30 52 H -5.583724 -2.225685 -2.468466 0
M  V30 53 H -4.964211 -0.730947 -3.351470 0
M  V30 54 H -4.253421 -2.601988 -5.126066 0
M  V30 55 H -5.909374 -1.825898 -5.124286 0
M  V30 56 H -6.500313 -4.180479 -5.018799 0
M  V30 END ATOM
M  V30 BEGIN BOND
M  V30 1 2 1 2
M  V30 2 1 2 3
M  V30 3 1 3 4
M  V30 4 2 4 5
M  V30 5 1 5 6
M  V30 6 2 6 7
M  V30 7 1 7 8
M  V30 8 1 8 9
M  V30 9 2 9 10
M  V30 10 1 10 11
M  V30 11 1 11 12
M  V30 12 1 12 13
M  V30 13 1 13 14
M  V30 14 1 14 15
M  V30 15 1 15 16
M  V30 16 1 16 17
M  V30 17 2 8 18
M  V30 18 1 2 19
M  V30 19 2 19 20
M  V30 20 1 20 21
M  V30 21 2 21 22
M  V30 22 1 22 23
M  V30 23 2 23 24
M  V30 24 1 24 25
M  V30 25 1 25 26
M  V30 26 2 26 27
M  V30 27 1 25 28
M  V30 28 1 28 29
M  V30 29 1 29 30
M  V30 30 1 30 31
M  V30 31 1 31 32
M  V30 32 2 32 33
M  V30 33 1 18 4
M  V30 34 1 27 19
M  V30 35 1 11 7
M  V30 36 1 17 12
M  V30 37 1 26 22
M  V30 38 1 32 24
M  V30 39 1 3 34
M  V30 40 1 5 35
M  V30 41 1 9 36
M  V30 42 1 12 37
M  V30 43 1 13 38
M  V30 44 1 13 39
M  V30 45 1 14 40
M  V30 46 1 14 41
M  V30 47 1 16 42
M  V30 48 1 16 43
M  V30 49 1 17 44
M  V30 50 1 17 45
M  V30 51 1 18 46
M  V30 52 1 20 47
M  V30 53 1 21 48
M  V30 54 1 23 49
M  V30 55 1 28 50
M  V30 56 1 28 51
M  V30 57 1 29 52
M  V30 58 1 29 53
M  V30 59 1 30 54
M  V30 60 1 30 55
M  V30 61 1 31 56
M  V30 END BOND
M  V30 END CTAB
M  END
>  <Dataset>  (813) 
ChEMBL_Kinases

>  <Ligand_Instance>  (813) 
nan

>  <PDB_ID>  (813) 
nan

>  <Standardized_SMILES>  (813) 
O=C(Nc1cnc2c(cnn2C2CCOCC2)c1)c1ccc2cc3n(c2n1)CCCNC3=O

>  <Name>  (813) 
nan

>  <Pocket>  (813) 
nan

>  <ATP_Site>  (813) 
nan

>  <Peripheral>  (813) 
nan

>  <Num_H_Atoms_ProtBoundConf>  (813) 
nan

>  <Num_Resolved_Atoms>  (813) 
nan

>  <Num_Not_Resolved_Atoms>  (813) 
nan

$$$$
CHEMBL3673597
     RDKit          3D

  0  0  0  0  0  0  0  0  0  0999 V3000
M  V30 BEGIN CTAB
M  V30 COUNTS 62 67 0 0 0
M  V30 BEGIN ATOM
M  V30 1 C 3.950111 2.719800 -0.764588 0
M  V30 2 C 4.357094 2.146312 0.586645 0
M  V30 3 C 4.830196 0.727551 0.329437 0
M  V30 4 C 5.523227 2.883405 1.171022 0
M  V30 5 N 5.239526 4.213170 1.608645 0
M  V30 6 C 4.063774 5.015587 1.821189 0
M  V30 7 O 4.169567 6.190614 2.192455 0
M  V30 8 C 2.724132 4.441877 1.597576 0
M  V30 9 C 1.615066 5.279181 1.483116 0
M  V30 10 C 0.487096 4.507416 1.278761 0
M  V30 11 C -0.869140 4.682593 1.092709 0
M  V30 12 C -1.743622 3.627109 0.909498 0
M  V30 13 C -1.217476 2.348252 0.916122 0
M  V30 14 C -2.164177 1.250454 0.720506 0
M  V30 15 O -3.386396 1.411323 0.550156 0
M  V30 16 N -1.618883 -0.061704 0.731767 0
M  V30 17 C -2.221066 -1.342508 0.576199 0
M  V30 18 C -2.730157 -2.141304 1.581885 0
M  V30 19 N -3.277188 -3.344666 1.286281 0
M  V30 20 C -3.353290 -3.818660 0.022914 0
M  V30 21 C -2.843821 -3.018208 -0.979285 0
M  V30 22 C -3.041447 -3.721278 -2.158581 0
M  V30 23 N -3.646050 -4.894484 -1.860058 0
M  V30 24 N -3.829977 -4.944614 -0.543757 0
M  V30 25 C -4.441668 -6.004007 0.263634 0
M  V30 26 C -4.881648 -7.078762 -0.723808 0
M  V30 27 C -3.703529 -7.909386 -1.183346 0
M  V30 28 O -2.495375 -7.392133 -0.722228 0
M  V30 29 C -2.444286 -7.499578 0.647495 0
M  V30 30 C -3.431344 -6.520238 1.239848 0
M  V30 31 C -2.264954 -1.767934 -0.759327 0
M  V30 32 N 0.105979 2.182163 1.097965 0
M  V30 33 C 0.964643 3.205833 1.277120 0
M  V30 34 N 2.298186 3.158015 1.466688 0
M  V30 35 C 3.186069 2.043139 1.533691 0
M  V30 36 H 3.927144 3.821604 -0.775946 0
M  V30 37 H 4.650007 2.291252 -1.511037 0
M  V30 38 H 2.947044 2.299680 -1.018415 0
M  V30 39 H 4.008703 -0.008973 0.314894 0
M  V30 40 H 5.501577 0.669418 -0.547516 0
M  V30 41 H 5.467863 0.455608 1.219749 0
M  V30 42 H 5.906211 2.281495 2.017207 0
M  V30 43 H 6.279243 2.968213 0.341527 0
M  V30 44 H 6.134543 4.731126 1.830540 0
M  V30 45 H 1.577877 6.360200 1.536159 0
M  V30 46 H -1.199175 5.703216 1.100398 0
M  V30 47 H -2.800621 3.814303 0.767002 0
M  V30 48 H -0.586911 -0.277799 0.872249 0
M  V30 49 H -2.658918 -1.741483 2.583842 0
M  V30 50 H -2.785324 -3.449994 -3.188798 0
M  V30 51 H -5.333575 -5.636258 0.796943 0
M  V30 52 H -5.729354 -7.669427 -0.348177 0
M  V30 53 H -5.258379 -6.537763 -1.619780 0
M  V30 54 H -3.627924 -8.003110 -2.280259 0
M  V30 55 H -3.811008 -8.927117 -0.757899 0
M  V30 56 H -2.600860 -8.536566 1.012520 0
M  V30 57 H -1.398000 -7.247659 0.949916 0
M  V30 58 H -3.905582 -6.981656 2.130072 0
M  V30 59 H -2.834706 -5.656761 1.628592 0
M  V30 60 H -1.889106 -1.203073 -1.601646 0
M  V30 61 H 3.625064 2.007864 2.554110 0
M  V30 62 H 2.683813 1.077092 1.389117 0
M  V30 END ATOM
M  V30 BEGIN BOND
M  V30 1 1 1 2
M  V30 2 1 2 3
M  V30 3 1 2 4
M  V30 4 1 4 5
M  V30 5 1 5 6
M  V30 6 2 6 7
M  V30 7 1 6 8
M  V30 8 2 8 9
M  V30 9 1 9 10
M  V30 10 2 10 11
M  V30 11 1 11 12
M  V30 12 2 12 13
M  V30 13 1 13 14
M  V30 14 2 14 15
M  V30 15 1 14 16
M  V30 16 1 16 17
M  V30 17 2 17 18
M  V30 18 1 18 19
M  V30 19 2 19 20
M  V30 20 1 20 21
M  V30 21 1 21 22
M  V30 22 2 22 23
M  V30 23 1 23 24
M  V30 24 1 24 25
M  V30 25 1 25 26
M  V30 26 1 26 27
M  V30 27 1 27 28
M  V30 28 1 28 29
M  V30 29 1 29 30
M  V30 30 2 21 31
M  V30 31 1 13 32
M  V30 32 2 32 33
M  V30 33 1 33 34
M  V30 34 1 34 35
M  V30 35 1 35 2
M  V30 36 1 34 8
M  V30 37 1 33 10
M  V30 38 1 31 17
M  V30 39 1 24 20
M  V30 40 1 30 25
M  V30 41 1 1 36
M  V30 42 1 1 37
M  V30 43 1 1 38
M  V30 44 1 3 39
M  V30 45 1 3 40
M  V30 46 1 3 41
M  V30 47 1 4 42
M  V30 48 1 4 43
M  V30 49 1 5 44
M  V30 50 1 9 45
M  V30 51 1 11 46
M  V30 52 1 12 47
M  V30 53 1 16 48
M  V30 54 1 18 49
M  V30 55 1 22 50
M  V30 56 1 25 51
M  V30 57 1 26 52
M  V30 58 1 26 53
M  V30 59 1 27 54
M  V30 60 1 27 55
M  V30 61 1 29 56
M  V30 62 1 29 57
M  V30 63 1 30 58
M  V30 64 1 30 59
M  V30 65 1 31 60
M  V30 66 1 35 61
M  V30 67 1 35 62
M  V30 END BOND
M  V30 END CTAB
M  END
>  <Dataset>  (814) 
ChEMBL_Kinases

>  <Ligand_Instance>  (814) 
nan

>  <PDB_ID>  (814) 
nan

>  <Standardized_SMILES>  (814) 
CC1(C)CNC(=O)c2cc3ccc(C(=O)Nc4cnc5c(cnn5C5CCOCC5)c4)nc3n2C1

>  <Name>  (814) 
nan

>  <Pocket>  (814) 
nan

>  <ATP_Site>  (814) 
nan

>  <Peripheral>  (814) 
nan

>  <Num_H_Atoms_ProtBoundConf>  (814) 
nan

>  <Num_Resolved_Atoms>  (814) 
nan

>  <Num_Not_Resolved_Atoms>  (814) 
nan

$$$$
CHEMBL3673598
     RDKit          3D

  0  0  0  0  0  0  0  0  0  0999 V3000
M  V30 BEGIN CTAB
M  V30 COUNTS 59 64 0 0 0
M  V30 BEGIN ATOM
M  V30 1 C 2.706418 1.281974 -0.475744 0
M  V30 2 C 3.480531 2.120613 0.536206 0
M  V30 3 C 4.835182 2.347338 -0.086961 0
M  V30 4 C 5.854653 2.908883 0.849205 0
M  V30 5 N 5.797870 4.363422 0.694263 0
M  V30 6 C 4.576833 5.121874 0.747721 0
M  V30 7 O 4.723410 6.359749 0.745468 0
M  V30 8 C 3.184731 4.631855 0.804465 0
M  V30 9 C 2.120115 5.490776 0.968628 0
M  V30 10 C 0.971897 4.728130 0.980206 0
M  V30 11 C -0.376274 5.020114 1.110003 0
M  V30 12 C -1.308272 3.976283 1.077659 0
M  V30 13 C -0.842323 2.686607 0.916268 0
M  V30 14 C -1.884791 1.664704 0.893916 0
M  V30 15 O -3.097192 1.857690 1.003466 0
M  V30 16 N -1.412133 0.344368 0.729044 0
M  V30 17 C -1.925822 -0.976433 0.637759 0
M  V30 18 C -2.299225 -1.613070 -0.520594 0
M  V30 19 N -2.769647 -2.877835 -0.428668 0
M  V30 20 C -2.884604 -3.529804 0.743358 0
M  V30 21 C -2.527098 -2.947441 1.943904 0
M  V30 22 C -2.741797 -3.824687 2.989199 0
M  V30 23 N -3.222947 -4.912881 2.392755 0
M  V30 24 N -3.319706 -4.777981 1.088257 0
M  V30 25 C -3.785432 -5.700333 0.071982 0
M  V30 26 C -2.662075 -6.552569 -0.470043 0
M  V30 27 C -3.130401 -7.523603 -1.534432 0
M  V30 28 C -2.247474 -8.718423 -1.255586 0
M  V30 29 O -1.375093 -8.375744 -0.238175 0
M  V30 30 C -2.151090 -7.534687 0.580083 0
M  V30 31 C -2.039615 -1.640652 1.861366 0
M  V30 32 N 0.467445 2.469168 0.796692 0
M  V30 33 C 1.403500 3.428556 0.820503 0
M  V30 34 N 2.746533 3.354594 0.712302 0
M  V30 35 H 3.404760 0.714415 -1.156580 0
M  V30 36 H 2.106419 1.943302 -1.106103 0
M  V30 37 H 2.057534 0.608987 0.089665 0
M  V30 38 H 3.592870 1.542634 1.458075 0
M  V30 39 H 5.171794 1.393299 -0.499245 0
M  V30 40 H 4.704461 3.039498 -0.969162 0
M  V30 41 H 5.648894 2.615211 1.915968 0
M  V30 42 H 6.870372 2.561272 0.542658 0
M  V30 43 H 6.681239 4.860350 0.539594 0
M  V30 44 H 2.169708 6.563355 1.070016 0
M  V30 45 H -0.664602 6.057863 1.233186 0
M  V30 46 H -2.375563 4.209549 1.180549 0
M  V30 47 H -0.382867 0.096808 0.627750 0
M  V30 48 H -2.187811 -1.053886 -1.412213 0
M  V30 49 H -2.544362 -3.615751 4.029921 0
M  V30 50 H -4.221665 -5.163551 -0.795349 0
M  V30 51 H -4.558759 -6.380959 0.456854 0
M  V30 52 H -1.822844 -5.951077 -0.875704 0
M  V30 53 H -4.199836 -7.740170 -1.507300 0
M  V30 54 H -2.794790 -7.149882 -2.546318 0
M  V30 55 H -1.685218 -9.068247 -2.132554 0
M  V30 56 H -2.892667 -9.565474 -0.944353 0
M  V30 57 H -1.532217 -6.953815 1.281607 0
M  V30 58 H -2.986592 -8.056970 1.044893 0
M  V30 59 H -1.755496 -1.172254 2.799221 0
M  V30 END ATOM
M  V30 BEGIN BOND
M  V30 1 1 1 2
M  V30 2 1 2 3
M  V30 3 1 3 4
M  V30 4 1 4 5
M  V30 5 1 5 6
M  V30 6 2 6 7
M  V30 7 1 6 8
M  V30 8 2 8 9
M  V30 9 1 9 10
M  V30 10 2 10 11
M  V30 11 1 11 12
M  V30 12 2 12 13
M  V30 13 1 13 14
M  V30 14 2 14 15
M  V30 15 1 14 16
M  V30 16 1 16 17
M  V30 17 2 17 18
M  V30 18 1 18 19
M  V30 19 2 19 20
M  V30 20 1 20 21
M  V30 21 1 21 22
M  V30 22 2 22 23
M  V30 23 1 23 24
M  V30 24 1 24 25
M  V30 25 1 25 26
M  V30 26 1 26 27
M  V30 27 1 27 28
M  V30 28 1 28 29
M  V30 29 1 29 30
M  V30 30 2 21 31
M  V30 31 1 13 32
M  V30 32 2 32 33
M  V30 33 1 33 34
M  V30 34 1 34 2
M  V30 35 1 34 8
M  V30 36 1 33 10
M  V30 37 1 31 17
M  V30 38 1 24 20
M  V30 39 1 30 26
M  V30 40 1 1 35
M  V30 41 1 1 36
M  V30 42 1 1 37
M  V30 43 1 2 38
M  V30 44 1 3 39
M  V30 45 1 3 40
M  V30 46 1 4 41
M  V30 47 1 4 42
M  V30 48 1 5 43
M  V30 49 1 9 44
M  V30 50 1 11 45
M  V30 51 1 12 46
M  V30 52 1 16 47
M  V30 53 1 18 48
M  V30 54 1 22 49
M  V30 55 1 25 50
M  V30 56 1 25 51
M  V30 57 1 26 52
M  V30 58 1 27 53
M  V30 59 1 27 54
M  V30 60 1 28 55
M  V30 61 1 28 56
M  V30 62 1 30 57
M  V30 63 1 30 58
M  V30 64 1 31 59
M  V30 END BOND
M  V30 END CTAB
M  END
>  <Dataset>  (815) 
ChEMBL_Kinases

>  <Ligand_Instance>  (815) 
nan

>  <PDB_ID>  (815) 
nan

>  <Standardized_SMILES>  (815) 
CC1CCNC(=O)c2cc3ccc(C(=O)Nc4cnc5c(cnn5CC5CCOC5)c4)nc3n21

>  <Name>  (815) 
nan

>  <Pocket>  (815) 
nan

>  <ATP_Site>  (815) 
nan

>  <Peripheral>  (815) 
nan

>  <Num_H_Atoms_ProtBoundConf>  (815) 
nan

>  <Num_Resolved_Atoms>  (815) 
nan

>  <Num_Not_Resolved_Atoms>  (815) 
nan

$$$$
CHEMBL3673599
     RDKit          3D

  0  0  0  0  0  0  0  0  0  0999 V3000
M  V30 BEGIN CTAB
M  V30 COUNTS 56 61 0 0 0
M  V30 BEGIN ATOM
M  V30 1 O 0.950676 -3.558800 2.776084 0
M  V30 2 C 0.163836 -3.057131 1.931560 0
M  V30 3 N 0.389081 -1.763044 1.391398 0
M  V30 4 C 1.390671 -0.776940 1.582864 0
M  V30 5 C 1.350098 0.245509 2.534933 0
M  V30 6 N 2.381704 1.109679 2.595210 0
M  V30 7 C 3.430865 0.998898 1.762453 0
M  V30 8 C 3.512919 0.005874 0.808168 0
M  V30 9 C 4.723495 0.271914 0.206370 0
M  V30 10 N 5.289242 1.329005 0.767900 0
M  V30 11 N 4.502089 1.805954 1.746274 0
M  V30 12 C 4.972446 2.954471 2.448898 0
M  V30 13 C 4.599207 4.274049 1.873643 0
M  V30 14 C 3.126171 4.473422 1.804554 0
M  V30 15 C 2.812855 4.192359 0.359953 0
M  V30 16 O 3.972190 4.168405 -0.364623 0
M  V30 17 C 5.051672 4.457128 0.448114 0
M  V30 18 C 2.474556 -0.897973 0.716642 0
M  V30 19 C -1.029115 -3.751284 1.442321 0
M  V30 20 C -1.275344 -4.995265 1.940387 0
M  V30 21 C -2.406676 -5.685446 1.493969 0
M  V30 22 C -3.291084 -5.145872 0.557740 0
M  V30 23 C -4.444142 -5.569550 -0.049529 0
M  V30 24 C -4.813863 -4.516235 -0.891405 0
M  V30 25 N -3.921693 -3.514858 -0.788098 0
M  V30 26 C -2.976440 -3.884247 0.099779 0
M  V30 27 N -1.888128 -3.230415 0.534720 0
M  V30 28 C -3.879230 -2.226848 -1.458324 0
M  V30 29 C -5.283585 -1.759835 -1.827708 0
M  V30 30 C -5.739221 -2.418206 -3.103504 0
M  V30 31 N -6.426031 -3.682910 -2.810426 0
M  V30 32 C -6.010374 -4.551852 -1.741525 0
M  V30 33 O -6.809640 -5.486705 -1.509721 0
M  V30 34 H -0.250789 -1.317201 0.683904 0
M  V30 35 H 0.461713 0.264315 3.172306 0
M  V30 36 H 5.107846 -0.345852 -0.619199 0
M  V30 37 H 6.076010 2.919854 2.651353 0
M  V30 38 H 4.527764 2.896894 3.487331 0
M  V30 39 H 5.017828 5.099912 2.482880 0
M  V30 40 H 2.564811 3.877774 2.519060 0
M  V30 41 H 2.844019 5.545044 2.017507 0
M  V30 42 H 2.079198 4.940862 -0.036015 0
M  V30 43 H 2.270730 3.226015 0.318205 0
M  V30 44 H 5.938105 3.834429 0.208905 0
M  V30 45 H 5.317573 5.518203 0.259874 0
M  V30 46 H 2.570949 -1.662483 -0.041379 0
M  V30 47 H -0.638778 -5.468373 2.660352 0
M  V30 48 H -2.624434 -6.665555 1.869118 0
M  V30 49 H -4.933272 -6.502926 0.103049 0
M  V30 50 H -3.290547 -2.238702 -2.390142 0
M  V30 51 H -3.449055 -1.434712 -0.807832 0
M  V30 52 H -5.999018 -2.051767 -1.034064 0
M  V30 53 H -5.340842 -0.672986 -1.948794 0
M  V30 54 H -4.850677 -2.626052 -3.736213 0
M  V30 55 H -6.428815 -1.729030 -3.626692 0
M  V30 56 H -7.246021 -4.026781 -3.349741 0
M  V30 END ATOM
M  V30 BEGIN BOND
M  V30 1 2 1 2
M  V30 2 1 2 3
M  V30 3 1 3 4
M  V30 4 2 4 5
M  V30 5 1 5 6
M  V30 6 2 6 7
M  V30 7 1 7 8
M  V30 8 1 8 9
M  V30 9 2 9 10
M  V30 10 1 10 11
M  V30 11 1 11 12
M  V30 12 1 12 13
M  V30 13 1 13 14
M  V30 14 1 14 15
M  V30 15 1 15 16
M  V30 16 1 16 17
M  V30 17 2 8 18
M  V30 18 1 2 19
M  V30 19 2 19 20
M  V30 20 1 20 21
M  V30 21 2 21 22
M  V30 22 1 22 23
M  V30 23 2 23 24
M  V30 24 1 24 25
M  V30 25 1 25 26
M  V30 26 2 26 27
M  V30 27 1 25 28
M  V30 28 1 28 29
M  V30 29 1 29 30
M  V30 30 1 30 31
M  V30 31 1 31 32
M  V30 32 2 32 33
M  V30 33 1 18 4
M  V30 34 1 27 19
M  V30 35 1 11 7
M  V30 36 1 17 13
M  V30 37 1 26 22
M  V30 38 1 32 24
M  V30 39 1 3 34
M  V30 40 1 5 35
M  V30 41 1 9 36
M  V30 42 1 12 37
M  V30 43 1 12 38
M  V30 44 1 13 39
M  V30 45 1 14 40
M  V30 46 1 14 41
M  V30 47 1 15 42
M  V30 48 1 15 43
M  V30 49 1 17 44
M  V30 50 1 17 45
M  V30 51 1 18 46
M  V30 52 1 20 47
M  V30 53 1 21 48
M  V30 54 1 23 49
M  V30 55 1 28 50
M  V30 56 1 28 51
M  V30 57 1 29 52
M  V30 58 1 29 53
M  V30 59 1 30 54
M  V30 60 1 30 55
M  V30 61 1 31 56
M  V30 END BOND
M  V30 END CTAB
M  END
>  <Dataset>  (816) 
ChEMBL_Kinases

>  <Ligand_Instance>  (816) 
nan

>  <PDB_ID>  (816) 
nan

>  <Standardized_SMILES>  (816) 
O=C(Nc1cnc2c(cnn2CC2CCOC2)c1)c1ccc2cc3n(c2n1)CCCNC3=O

>  <Name>  (816) 
nan

>  <Pocket>  (816) 
nan

>  <ATP_Site>  (816) 
nan

>  <Peripheral>  (816) 
nan

>  <Num_H_Atoms_ProtBoundConf>  (816) 
nan

>  <Num_Resolved_Atoms>  (816) 
nan

>  <Num_Not_Resolved_Atoms>  (816) 
nan

$$$$
CHEMBL3673600
     RDKit          3D

  0  0  0  0  0  0  0  0  0  0999 V3000
M  V30 BEGIN CTAB
M  V30 COUNTS 62 67 0 0 0
M  V30 BEGIN ATOM
M  V30 1 C 4.662633 0.795104 0.445398 0
M  V30 2 C 4.192854 2.097801 1.108721 0
M  V30 3 C 4.580005 1.930252 2.576693 0
M  V30 4 C 4.992501 3.219205 0.595482 0
M  V30 5 N 4.971235 4.451388 1.314374 0
M  V30 6 C 3.769387 5.056615 1.789826 0
M  V30 7 O 3.901659 6.117183 2.449956 0
M  V30 8 C 2.359966 4.631473 1.630060 0
M  V30 9 C 1.247335 5.456138 1.756618 0
M  V30 10 C 0.207239 4.550278 1.508043 0
M  V30 11 C -1.160965 4.852355 1.506935 0
M  V30 12 C -2.077968 3.826477 1.236756 0
M  V30 13 C -1.556052 2.572344 0.987440 0
M  V30 14 C -2.539201 1.528753 0.709275 0
M  V30 15 O -3.763462 1.703518 0.680064 0
M  V30 16 N -2.012733 0.232419 0.459434 0
M  V30 17 C -2.485594 -1.066874 0.152894 0
M  V30 18 C -2.771879 -1.943202 1.195114 0
M  V30 19 N -3.226217 -3.198355 0.900658 0
M  V30 20 C -3.394044 -3.579513 -0.387451 0
M  V30 21 C -3.105457 -2.697478 -1.411280 0
M  V30 22 C -3.358997 -3.327981 -2.613576 0
M  V30 23 N -3.789387 -4.560803 -2.283591 0
M  V30 24 N -3.813278 -4.717973 -0.975254 0
M  V30 25 C -4.218024 -5.913809 -0.231624 0
M  V30 26 C -3.013970 -6.816195 0.001980 0
M  V30 27 C -2.408378 -7.249135 -1.319311 0
M  V30 28 C -2.023945 -8.696505 -1.068166 0
M  V30 29 O -2.431526 -9.018037 0.203970 0
M  V30 30 C -3.451826 -8.153020 0.557265 0
M  V30 31 C -2.642684 -1.414411 -1.181528 0
M  V30 32 N -0.230481 2.351752 1.004468 0
M  V30 33 C 0.701338 3.289280 1.255945 0
M  V30 34 N 2.043759 3.346101 1.333448 0
M  V30 35 C 2.731483 2.136261 1.101455 0
M  V30 36 H 3.963626 0.449889 -0.337582 0
M  V30 37 H 4.704784 -0.052920 1.171361 0
M  V30 38 H 5.693229 0.906767 0.047130 0
M  V30 39 H 3.922140 1.134244 2.981504 0
M  V30 40 H 5.624641 1.536806 2.632899 0
M  V30 41 H 4.448394 2.901921 3.094216 0
M  V30 42 H 6.060713 2.948012 0.461552 0
M  V30 43 H 4.644896 3.455513 -0.440404 0
M  V30 44 H 5.883632 4.961586 1.517656 0
M  V30 45 H 1.290078 6.492450 1.985635 0
M  V30 46 H -1.504540 5.838973 1.706338 0
M  V30 47 H -3.132645 4.014830 1.226236 0
M  V30 48 H -0.973660 0.036717 0.475185 0
M  V30 49 H -2.653696 -1.683478 2.239822 0
M  V30 50 H -3.223828 -2.879241 -3.597304 0
M  V30 51 H -4.735122 -5.666932 0.693436 0
M  V30 52 H -4.924381 -6.480190 -0.878750 0
M  V30 53 H -2.254736 -6.344572 0.643613 0
M  V30 54 H -3.150256 -7.171566 -2.152678 0
M  V30 55 H -1.522494 -6.640619 -1.522369 0
M  V30 56 H -2.447859 -9.352982 -1.860266 0
M  V30 57 H -0.903438 -8.816698 -1.148682 0
M  V30 58 H -4.403991 -8.497667 0.147350 0
M  V30 59 H -3.457570 -8.085876 1.666825 0
M  V30 60 H -2.404961 -0.692950 -1.954146 0
M  V30 61 H 2.365952 1.331570 1.801267 0
M  V30 62 H 2.404582 1.742767 0.093375 0
M  V30 END ATOM
M  V30 BEGIN BOND
M  V30 1 1 1 2
M  V30 2 1 2 3
M  V30 3 1 2 4
M  V30 4 1 4 5
M  V30 5 1 5 6
M  V30 6 2 6 7
M  V30 7 1 6 8
M  V30 8 2 8 9
M  V30 9 1 9 10
M  V30 10 2 10 11
M  V30 11 1 11 12
M  V30 12 2 12 13
M  V30 13 1 13 14
M  V30 14 2 14 15
M  V30 15 1 14 16
M  V30 16 1 16 17
M  V30 17 2 17 18
M  V30 18 1 18 19
M  V30 19 2 19 20
M  V30 20 1 20 21
M  V30 21 1 21 22
M  V30 22 2 22 23
M  V30 23 1 23 24
M  V30 24 1 24 25
M  V30 25 1 25 26
M  V30 26 1 26 27
M  V30 27 1 27 28
M  V30 28 1 28 29
M  V30 29 1 29 30
M  V30 30 2 21 31
M  V30 31 1 13 32
M  V30 32 2 32 33
M  V30 33 1 33 34
M  V30 34 1 34 35
M  V30 35 1 35 2
M  V30 36 1 34 8
M  V30 37 1 33 10
M  V30 38 1 31 17
M  V30 39 1 24 20
M  V30 40 1 30 26
M  V30 41 1 1 36
M  V30 42 1 1 37
M  V30 43 1 1 38
M  V30 44 1 3 39
M  V30 45 1 3 40
M  V30 46 1 3 41
M  V30 47 1 4 42
M  V30 48 1 4 43
M  V30 49 1 5 44
M  V30 50 1 9 45
M  V30 51 1 11 46
M  V30 52 1 12 47
M  V30 53 1 16 48
M  V30 54 1 18 49
M  V30 55 1 22 50
M  V30 56 1 25 51
M  V30 57 1 25 52
M  V30 58 1 26 53
M  V30 59 1 27 54
M  V30 60 1 27 55
M  V30 61 1 28 56
M  V30 62 1 28 57
M  V30 63 1 30 58
M  V30 64 1 30 59
M  V30 65 1 31 60
M  V30 66 1 35 61
M  V30 67 1 35 62
M  V30 END BOND
M  V30 END CTAB
M  END
>  <Dataset>  (817) 
ChEMBL_Kinases

>  <Ligand_Instance>  (817) 
nan

>  <PDB_ID>  (817) 
nan

>  <Standardized_SMILES>  (817) 
CC1(C)CNC(=O)c2cc3ccc(C(=O)Nc4cnc5c(cnn5CC5CCOC5)c4)nc3n2C1

>  <Name>  (817) 
nan

>  <Pocket>  (817) 
nan

>  <ATP_Site>  (817) 
nan

>  <Peripheral>  (817) 
nan

>  <Num_H_Atoms_ProtBoundConf>  (817) 
nan

>  <Num_Resolved_Atoms>  (817) 
nan

>  <Num_Not_Resolved_Atoms>  (817) 
nan

$$$$
CHEMBL3673592
     RDKit          3D

  0  0  0  0  0  0  0  0  0  0999 V3000
M  V30 BEGIN CTAB
M  V30 COUNTS 54 58 0 0 0
M  V30 BEGIN ATOM
M  V30 1 C 7.400809 -0.328795 4.138957 0
M  V30 2 C 6.939495 -0.732050 2.772521 0
M  V30 3 C 8.040406 -0.565184 1.729749 0
M  V30 4 N 5.863223 0.142589 2.326994 0
M  V30 5 N 5.959146 1.471989 2.301643 0
M  V30 6 C 4.789943 2.001595 1.837086 0
M  V30 7 C 3.928560 0.957272 1.561149 0
M  V30 8 C 2.633459 0.825206 1.079790 0
M  V30 9 C 2.135827 -0.470314 0.952374 0
M  V30 10 N 0.787026 -0.583733 0.449961 0
M  V30 11 C -0.110509 -0.561529 1.544638 0
M  V30 12 O 0.480641 -0.450728 2.658409 0
M  V30 13 C -1.567113 -0.655748 1.415710 0
M  V30 14 C -2.291952 -0.617871 2.589680 0
M  V30 15 C -3.658372 -0.700398 2.554078 0
M  V30 16 C -4.247879 -0.819693 1.316104 0
M  V30 17 C -5.587105 -0.919079 1.010821 0
M  V30 18 C -5.651316 -1.016785 -0.361560 0
M  V30 19 N -4.396442 -0.979975 -0.898238 0
M  V30 20 C -3.529758 -0.859371 0.121579 0
M  V30 21 N -2.189131 -0.774045 0.220172 0
M  V30 22 C -3.864935 -1.040988 -2.244322 0
M  V30 23 C -3.278202 -2.398664 -2.496729 0
M  V30 24 C -4.943314 -0.685753 -3.247520 0
M  V30 25 C -5.975178 -1.747748 -3.435454 0
M  V30 26 N -7.105326 -1.540924 -2.519463 0
M  V30 27 C -6.866124 -1.143715 -1.175727 0
M  V30 28 O -7.911691 -0.824619 -0.514604 0
M  V30 29 C 2.842861 -1.613808 1.271355 0
M  V30 30 N 4.113900 -1.456548 1.742493 0
M  V30 31 C 4.621185 -0.195789 1.875148 0
M  V30 32 H 6.650014 0.339557 4.581218 0
M  V30 33 H 7.560876 -1.239658 4.755876 0
M  V30 34 H 8.333451 0.278635 4.043337 0
M  V30 35 H 6.530125 -1.774742 2.744720 0
M  V30 36 H 7.562151 -0.616386 0.730170 0
M  V30 37 H 8.435711 0.469377 1.868639 0
M  V30 38 H 8.817696 -1.334482 1.876085 0
M  V30 39 H 4.549374 3.049966 1.698074 0
M  V30 40 H 2.088997 1.702751 0.834293 0
M  V30 41 H 0.388493 -0.673870 -0.526896 0
M  V30 42 H -1.819420 -0.523397 3.565191 0
M  V30 43 H -4.245425 -0.672268 3.467730 0
M  V30 44 H -6.422152 -0.922494 1.675847 0
M  V30 45 H -3.061732 -0.288845 -2.395519 0
M  V30 46 H -3.682357 -3.149414 -1.757323 0
M  V30 47 H -2.192763 -2.365772 -2.270489 0
M  V30 48 H -3.432916 -2.731379 -3.541600 0
M  V30 49 H -4.485941 -0.398588 -4.227642 0
M  V30 50 H -5.416511 0.251068 -2.882304 0
M  V30 51 H -6.418761 -1.641316 -4.452540 0
M  V30 52 H -5.497318 -2.732944 -3.266512 0
M  V30 53 H -8.092544 -1.678919 -2.830400 0
M  V30 54 H 2.379779 -2.585131 1.141955 0
M  V30 END ATOM
M  V30 BEGIN BOND
M  V30 1 1 1 2
M  V30 2 1 2 3
M  V30 3 1 2 4
M  V30 4 1 4 5
M  V30 5 2 5 6
M  V30 6 1 6 7
M  V30 7 2 7 8
M  V30 8 1 8 9
M  V30 9 1 9 10
M  V30 10 1 10 11
M  V30 11 2 11 12
M  V30 12 1 11 13
M  V30 13 2 13 14
M  V30 14 1 14 15
M  V30 15 2 15 16
M  V30 16 1 16 17
M  V30 17 2 17 18
M  V30 18 1 18 19
M  V30 19 1 19 20
M  V30 20 2 20 21
M  V30 21 1 19 22
M  V30 22 1 22 23
M  V30 23 1 22 24
M  V30 24 1 24 25
M  V30 25 1 25 26
M  V30 26 1 26 27
M  V30 27 2 27 28
M  V30 28 2 9 29
M  V30 29 1 29 30
M  V30 30 2 30 31
M  V30 31 1 31 4
M  V30 32 1 31 7
M  V30 33 1 21 13
M  V30 34 1 20 16
M  V30 35 1 27 18
M  V30 36 1 1 32
M  V30 37 1 1 33
M  V30 38 1 1 34
M  V30 39 1 2 35
M  V30 40 1 3 36
M  V30 41 1 3 37
M  V30 42 1 3 38
M  V30 43 1 6 39
M  V30 44 1 8 40
M  V30 45 1 10 41
M  V30 46 1 14 42
M  V30 47 1 15 43
M  V30 48 1 17 44
M  V30 49 1 22 45
M  V30 50 1 23 46
M  V30 51 1 23 47
M  V30 52 1 23 48
M  V30 53 1 24 49
M  V30 54 1 24 50
M  V30 55 1 25 51
M  V30 56 1 25 52
M  V30 57 1 26 53
M  V30 58 1 29 54
M  V30 END BOND
M  V30 END CTAB
M  END
>  <Dataset>  (818) 
ChEMBL_Kinases

>  <Ligand_Instance>  (818) 
nan

>  <PDB_ID>  (818) 
nan

>  <Standardized_SMILES>  (818) 
CC(C)n1ncc2cc(NC(=O)c3ccc4cc5n(c4n3)C(C)CCNC5=O)cnc21

>  <Name>  (818) 
nan

>  <Pocket>  (818) 
nan

>  <ATP_Site>  (818) 
nan

>  <Peripheral>  (818) 
nan

>  <Num_H_Atoms_ProtBoundConf>  (818) 
nan

>  <Num_Resolved_Atoms>  (818) 
nan

>  <Num_Not_Resolved_Atoms>  (818) 
nan

$$$$
CHEMBL3673507
     RDKit          3D

  0  0  0  0  0  0  0  0  0  0999 V3000
M  V30 BEGIN CTAB
M  V30 COUNTS 53 57 0 0 0
M  V30 BEGIN ATOM
M  V30 1 F 4.052829 -4.899020 3.845668 0
M  V30 2 C 4.442338 -3.746699 3.248376 0
M  V30 3 C 5.600099 -3.530491 2.539770 0
M  V30 4 C 5.866960 -2.300417 1.984049 0
M  V30 5 C 4.982875 -1.222849 2.112029 0
M  V30 6 C 5.507384 -0.015762 1.427151 0
M  V30 7 N 5.110350 0.044832 0.019144 0
M  V30 8 C 3.800162 0.158507 -0.517020 0
M  V30 9 C 3.667945 0.133536 -1.897682 0
M  V30 10 N 2.429637 0.247308 -2.407174 0
M  V30 11 C 1.372017 0.379488 -1.594675 0
M  V30 12 C 1.437739 0.409600 -0.233778 0
M  V30 13 C 0.418211 0.590009 0.770154 0
M  V30 14 C 0.817697 1.046463 2.029090 0
M  V30 15 C -0.072048 1.229350 3.061848 0
M  V30 16 N -1.380824 0.971911 2.898616 0
M  V30 17 C -1.826781 0.528834 1.711146 0
M  V30 18 N -3.061949 0.186951 1.309285 0
M  V30 19 C -2.988888 -0.218129 0.031626 0
M  V30 20 C -4.144898 -0.676816 -0.771729 0
M  V30 21 C -5.172888 0.400959 -0.969803 0
M  V30 22 C -6.568642 -0.000585 -0.638257 0
M  V30 23 N -6.960837 -1.290475 -1.086500 0
M  V30 24 C -5.992843 -2.320702 -0.915434 0
M  V30 25 C -4.756808 -1.923735 -0.177582 0
M  V30 26 C -1.670998 -0.116590 -0.346335 0
M  V30 27 C -0.920218 0.354759 0.698457 0
M  V30 28 N 2.700418 0.291986 0.206517 0
M  V30 29 C 3.826603 -1.449462 2.823362 0
M  V30 30 C 3.578084 -2.685059 3.370797 0
M  V30 31 F 2.381748 -2.736193 4.046222 0
M  V30 32 H 6.265680 -4.384410 2.457663 0
M  V30 33 H 6.829258 -2.282843 1.448687 0
M  V30 34 H 6.587575 0.100128 1.572238 0
M  V30 35 H 5.007858 0.859264 1.917335 0
M  V30 36 H 5.930155 -0.006388 -0.629699 0
M  V30 37 H 4.484445 0.029764 -2.592241 0
M  V30 38 H 0.424294 0.495520 -2.064383 0
M  V30 39 H 1.864123 1.277108 2.221479 0
M  V30 40 H 0.303203 1.585393 4.010200 0
M  V30 41 H -3.932299 0.226259 1.882854 0
M  V30 42 H -3.779136 -0.953004 -1.788524 0
M  V30 43 H -5.155993 0.819013 -1.992955 0
M  V30 44 H -4.918116 1.271120 -0.295903 0
M  V30 45 H -7.243238 0.742064 -1.128143 0
M  V30 46 H -6.766532 0.119803 0.462227 0
M  V30 47 H -7.443855 -1.358778 -1.984551 0
M  V30 48 H -6.479614 -3.129465 -0.295800 0
M  V30 49 H -5.726332 -2.758183 -1.891075 0
M  V30 50 H -4.924551 -1.763484 0.907497 0
M  V30 51 H -4.048629 -2.775288 -0.262653 0
M  V30 52 H -1.383902 -0.406855 -1.329976 0
M  V30 53 H 3.217196 -0.562231 2.865986 0
M  V30 END ATOM
M  V30 BEGIN BOND
M  V30 1 1 1 2
M  V30 2 2 2 3
M  V30 3 1 3 4
M  V30 4 2 4 5
M  V30 5 1 5 6
M  V30 6 1 6 7
M  V30 7 1 7 8
M  V30 8 2 8 9
M  V30 9 1 9 10
M  V30 10 2 10 11
M  V30 11 1 11 12
M  V30 12 1 12 13
M  V30 13 2 13 14
M  V30 14 1 14 15
M  V30 15 2 15 16
M  V30 16 1 16 17
M  V30 17 1 17 18
M  V30 18 1 18 19
M  V30 19 1 19 20
M  V30 20 1 20 21
M  V30 21 1 21 22
M  V30 22 1 22 23
M  V30 23 1 23 24
M  V30 24 1 24 25
M  V30 25 2 19 26
M  V30 26 1 26 27
M  V30 27 2 12 28
M  V30 28 1 5 29
M  V30 29 2 29 30
M  V30 30 1 30 31
M  V30 31 1 30 2
M  V30 32 1 28 8
M  V30 33 1 27 13
M  V30 34 2 27 17
M  V30 35 1 25 20
M  V30 36 1 3 32
M  V30 37 1 4 33
M  V30 38 1 6 34
M  V30 39 1 6 35
M  V30 40 1 7 36
M  V30 41 1 9 37
M  V30 42 1 11 38
M  V30 43 1 14 39
M  V30 44 1 15 40
M  V30 45 1 18 41
M  V30 46 1 20 42
M  V30 47 1 21 43
M  V30 48 1 21 44
M  V30 49 1 22 45
M  V30 50 1 22 46
M  V30 51 1 23 47
M  V30 52 1 24 48
M  V30 53 1 24 49
M  V30 54 1 25 50
M  V30 55 1 25 51
M  V30 56 1 26 52
M  V30 57 1 29 53
M  V30 END BOND
M  V30 END CTAB
M  END
>  <Dataset>  (819) 
ChEMBL_Kinases

>  <Ligand_Instance>  (819) 
nan

>  <PDB_ID>  (819) 
nan

>  <Standardized_SMILES>  (819) 
Fc1ccc(CNc2cncc(-c3ccnc4[nH]c(C5CCNCC5)cc34)n2)cc1F

>  <Name>  (819) 
nan

>  <Pocket>  (819) 
nan

>  <ATP_Site>  (819) 
nan

>  <Peripheral>  (819) 
nan

>  <Num_H_Atoms_ProtBoundConf>  (819) 
nan

>  <Num_Resolved_Atoms>  (819) 
nan

>  <Num_Not_Resolved_Atoms>  (819) 
nan

$$$$
CHEMBL3673506
     RDKit          3D

  0  0  0  0  0  0  0  0  0  0999 V3000
M  V30 BEGIN CTAB
M  V30 COUNTS 52 56 0 0 0
M  V30 BEGIN ATOM
M  V30 1 C 0.482682 -1.068318 3.893658 0
M  V30 2 C 1.831101 -1.079634 3.599438 0
M  V30 3 C 2.334777 -2.164410 2.879466 0
M  V30 4 C 3.749042 -2.368766 2.461182 0
M  V30 5 N 4.017441 -1.801380 1.167406 0
M  V30 6 C 3.846821 -0.405207 0.955479 0
M  V30 7 C 4.926343 0.426797 1.159033 0
M  V30 8 N 4.771949 1.756133 0.960099 0
M  V30 9 C 3.544977 2.204431 0.565230 0
M  V30 10 C 2.444249 1.403349 0.352221 0
M  V30 11 C 1.157990 1.951480 -0.068567 0
M  V30 12 C 0.944511 3.292749 -0.294604 0
M  V30 13 C -0.273688 3.802617 -0.690564 0
M  V30 14 N -1.301550 2.929676 -0.861605 0
M  V30 15 C -1.108003 1.598311 -0.642125 0
M  V30 16 N -2.029231 0.621534 -0.770031 0
M  V30 17 C -1.445514 -0.563633 -0.461743 0
M  V30 18 C -2.137468 -1.873209 -0.483376 0
M  V30 19 C -3.209158 -1.970654 0.576742 0
M  V30 20 C -4.523550 -1.398088 0.155298 0
M  V30 21 N -4.842287 -1.562688 -1.224326 0
M  V30 22 C -4.113880 -2.642020 -1.810749 0
M  V30 23 C -2.644336 -2.261985 -1.846480 0
M  V30 24 C -0.125584 -0.272423 -0.138992 0
M  V30 25 C 0.109939 1.070563 -0.243975 0
M  V30 26 N 2.685233 0.098568 0.572408 0
M  V30 27 C 1.413386 -3.151855 2.518624 0
M  V30 28 C 0.072652 -3.114116 2.826063 0
M  V30 29 N -0.364900 -2.038550 3.526746 0
M  V30 30 H 0.118089 -0.208885 4.456846 0
M  V30 31 H 2.556340 -0.338537 3.863090 0
M  V30 32 H 3.942535 -3.453829 2.463427 0
M  V30 33 H 4.390642 -1.895806 3.246651 0
M  V30 34 H 4.334264 -2.354372 0.360661 0
M  V30 35 H 5.870630 0.032212 1.468722 0
M  V30 36 H 3.520294 3.265520 0.433776 0
M  V30 37 H 1.741104 4.007258 -0.166883 0
M  V30 38 H -0.392687 4.866362 -0.856120 0
M  V30 39 H -3.038702 0.742895 -1.060613 0
M  V30 40 H -1.388874 -2.651715 -0.186532 0
M  V30 41 H -3.382059 -3.048415 0.788641 0
M  V30 42 H -2.818212 -1.504987 1.490840 0
M  V30 43 H -4.600243 -0.311210 0.419686 0
M  V30 44 H -5.354035 -1.869117 0.731301 0
M  V30 45 H -4.821885 -0.697340 -1.768956 0
M  V30 46 H -4.247824 -3.567533 -1.250476 0
M  V30 47 H -4.454365 -2.784941 -2.854676 0
M  V30 48 H -2.130365 -3.166044 -2.253793 0
M  V30 49 H -2.475432 -1.479713 -2.619205 0
M  V30 50 H 0.624255 -0.992773 0.155869 0
M  V30 51 H 1.762065 -4.010384 1.959415 0
M  V30 52 H -0.605139 -3.894461 2.530063 0
M  V30 END ATOM
M  V30 BEGIN BOND
M  V30 1 2 1 2
M  V30 2 1 2 3
M  V30 3 1 3 4
M  V30 4 1 4 5
M  V30 5 1 5 6
M  V30 6 2 6 7
M  V30 7 1 7 8
M  V30 8 2 8 9
M  V30 9 1 9 10
M  V30 10 1 10 11
M  V30 11 2 11 12
M  V30 12 1 12 13
M  V30 13 2 13 14
M  V30 14 1 14 15
M  V30 15 1 15 16
M  V30 16 1 16 17
M  V30 17 1 17 18
M  V30 18 1 18 19
M  V30 19 1 19 20
M  V30 20 1 20 21
M  V30 21 1 21 22
M  V30 22 1 22 23
M  V30 23 2 17 24
M  V30 24 1 24 25
M  V30 25 2 10 26
M  V30 26 2 3 27
M  V30 27 1 27 28
M  V30 28 2 28 29
M  V30 29 1 29 1
M  V30 30 1 26 6
M  V30 31 1 25 11
M  V30 32 2 25 15
M  V30 33 1 23 18
M  V30 34 1 1 30
M  V30 35 1 2 31
M  V30 36 1 4 32
M  V30 37 1 4 33
M  V30 38 1 5 34
M  V30 39 1 7 35
M  V30 40 1 9 36
M  V30 41 1 12 37
M  V30 42 1 13 38
M  V30 43 1 16 39
M  V30 44 1 18 40
M  V30 45 1 19 41
M  V30 46 1 19 42
M  V30 47 1 20 43
M  V30 48 1 20 44
M  V30 49 1 21 45
M  V30 50 1 22 46
M  V30 51 1 22 47
M  V30 52 1 23 48
M  V30 53 1 23 49
M  V30 54 1 24 50
M  V30 55 1 27 51
M  V30 56 1 28 52
M  V30 END BOND
M  V30 END CTAB
M  END
>  <Dataset>  (820) 
ChEMBL_Kinases

>  <Ligand_Instance>  (820) 
nan

>  <PDB_ID>  (820) 
nan

>  <Standardized_SMILES>  (820) 
c1cc(CNc2cncc(-c3ccnc4[nH]c(C5CCNCC5)cc34)n2)ccn1

>  <Name>  (820) 
nan

>  <Pocket>  (820) 
nan

>  <ATP_Site>  (820) 
nan

>  <Peripheral>  (820) 
nan

>  <Num_H_Atoms_ProtBoundConf>  (820) 
nan

>  <Num_Resolved_Atoms>  (820) 
nan

>  <Num_Not_Resolved_Atoms>  (820) 
nan

$$$$
CHEMBL3673505
     RDKit          3D

  0  0  0  0  0  0  0  0  0  0999 V3000
M  V30 BEGIN CTAB
M  V30 COUNTS 52 56 0 0 0
M  V30 BEGIN ATOM
M  V30 1 C 1.944529 0.057996 5.221504 0
M  V30 2 C 2.560249 -0.686841 6.186103 0
M  V30 3 N 3.878922 -0.899366 6.087891 0
M  V30 4 C 4.582079 -0.378064 5.041906 0
M  V30 5 C 3.975905 0.384321 4.046304 0
M  V30 6 C 4.989021 0.812072 3.054314 0
M  V30 7 N 5.106399 -0.217430 2.033973 0
M  V30 8 C 4.153813 -0.682257 1.094532 0
M  V30 9 C 4.501151 -1.731390 0.263090 0
M  V30 10 N 3.584753 -2.147732 -0.620886 0
M  V30 11 C 2.397815 -1.543264 -0.660218 0
M  V30 12 C 1.992193 -0.519596 0.117641 0
M  V30 13 C 0.770282 0.248058 0.148554 0
M  V30 14 C 0.803929 1.519741 0.732151 0
M  V30 15 C -0.295930 2.336882 0.841315 0
M  V30 16 N -1.474756 1.916530 0.372032 0
M  V30 17 C -1.593947 0.701883 -0.204283 0
M  V30 18 N -2.661038 0.068630 -0.720962 0
M  V30 19 C -2.264182 -1.140365 -1.156367 0
M  V30 20 C -3.148542 -2.149985 -1.794413 0
M  V30 21 C -4.249848 -2.608836 -0.905562 0
M  V30 22 C -5.536607 -1.830306 -1.017981 0
M  V30 23 N -5.945072 -1.538022 -2.350640 0
M  V30 24 C -5.080880 -2.050239 -3.385205 0
M  V30 25 C -3.634922 -1.674248 -3.148486 0
M  V30 26 C -0.916788 -1.223387 -0.887875 0
M  V30 27 C -0.481011 -0.088198 -0.297993 0
M  V30 28 N 2.935204 -0.136720 0.982166 0
M  V30 29 C 2.628691 0.601189 4.147498 0
M  V30 30 H 0.874521 0.285669 5.214313 0
M  V30 31 H 1.985775 -1.090260 7.005604 0
M  V30 32 H 5.634519 -0.658022 5.135703 0
M  V30 33 H 4.539461 1.697481 2.513034 0
M  V30 34 H 5.933474 1.115991 3.494767 0
M  V30 35 H 6.066162 -0.654334 2.034681 0
M  V30 36 H 5.471958 -2.180294 0.339063 0
M  V30 37 H 1.730148 -1.904444 -1.406671 0
M  V30 38 H 1.737145 1.923470 1.130756 0
M  V30 39 H -0.202037 3.308354 1.302692 0
M  V30 40 H -3.622544 0.483936 -0.758143 0
M  V30 41 H -2.520411 -3.060679 -2.031360 0
M  V30 42 H -3.910064 -2.580267 0.147646 0
M  V30 43 H -4.496059 -3.660482 -1.156726 0
M  V30 44 H -6.338360 -2.487277 -0.568589 0
M  V30 45 H -5.544623 -0.943235 -0.325194 0
M  V30 46 H -6.267615 -0.571896 -2.521144 0
M  V30 47 H -5.403467 -1.601050 -4.331853 0
M  V30 48 H -5.158206 -3.138847 -3.474536 0
M  V30 49 H -3.042292 -2.088544 -3.996568 0
M  V30 50 H -3.494508 -0.573511 -3.178283 0
M  V30 51 H -0.392401 -2.119687 -1.140735 0
M  V30 52 H 2.262352 1.200328 3.335128 0
M  V30 END ATOM
M  V30 BEGIN BOND
M  V30 1 2 1 2
M  V30 2 1 2 3
M  V30 3 2 3 4
M  V30 4 1 4 5
M  V30 5 1 5 6
M  V30 6 1 6 7
M  V30 7 1 7 8
M  V30 8 2 8 9
M  V30 9 1 9 10
M  V30 10 2 10 11
M  V30 11 1 11 12
M  V30 12 1 12 13
M  V30 13 2 13 14
M  V30 14 1 14 15
M  V30 15 2 15 16
M  V30 16 1 16 17
M  V30 17 1 17 18
M  V30 18 1 18 19
M  V30 19 1 19 20
M  V30 20 1 20 21
M  V30 21 1 21 22
M  V30 22 1 22 23
M  V30 23 1 23 24
M  V30 24 1 24 25
M  V30 25 2 19 26
M  V30 26 1 26 27
M  V30 27 2 12 28
M  V30 28 2 5 29
M  V30 29 1 29 1
M  V30 30 1 28 8
M  V30 31 1 27 13
M  V30 32 2 27 17
M  V30 33 1 25 20
M  V30 34 1 1 30
M  V30 35 1 2 31
M  V30 36 1 4 32
M  V30 37 1 6 33
M  V30 38 1 6 34
M  V30 39 1 7 35
M  V30 40 1 9 36
M  V30 41 1 11 37
M  V30 42 1 14 38
M  V30 43 1 15 39
M  V30 44 1 18 40
M  V30 45 1 20 41
M  V30 46 1 21 42
M  V30 47 1 21 43
M  V30 48 1 22 44
M  V30 49 1 22 45
M  V30 50 1 23 46
M  V30 51 1 24 47
M  V30 52 1 24 48
M  V30 53 1 25 49
M  V30 54 1 25 50
M  V30 55 1 26 51
M  V30 56 1 29 52
M  V30 END BOND
M  V30 END CTAB
M  END
>  <Dataset>  (821) 
ChEMBL_Kinases

>  <Ligand_Instance>  (821) 
nan

>  <PDB_ID>  (821) 
nan

>  <Standardized_SMILES>  (821) 
c1cncc(CNc2cncc(-c3ccnc4[nH]c(C5CCNCC5)cc34)n2)c1

>  <Name>  (821) 
nan

>  <Pocket>  (821) 
nan

>  <ATP_Site>  (821) 
nan

>  <Peripheral>  (821) 
nan

>  <Num_H_Atoms_ProtBoundConf>  (821) 
nan

>  <Num_Resolved_Atoms>  (821) 
nan

>  <Num_Not_Resolved_Atoms>  (821) 
nan

$$$$
CHEMBL3673504
     RDKit          3D

  0  0  0  0  0  0  0  0  0  0999 V3000
M  V30 BEGIN CTAB
M  V30 COUNTS 53 57 0 0 0
M  V30 BEGIN ATOM
M  V30 1 F 3.571526 -3.353783 2.154170 0
M  V30 2 C 4.391003 -2.892799 1.164656 0
M  V30 3 C 5.194704 -3.666395 0.369632 0
M  V30 4 C 5.961717 -3.040096 -0.585087 0
M  V30 5 C 5.905913 -1.655110 -0.721049 0
M  V30 6 C 5.081225 -0.874834 0.096603 0
M  V30 7 C 5.203179 0.571392 -0.242468 0
M  V30 8 N 4.297346 1.009585 -1.260323 0
M  V30 9 C 2.855721 1.058816 -1.194375 0
M  V30 10 C 2.139522 1.444781 -2.319201 0
M  V30 11 N 0.792757 1.487325 -2.211624 0
M  V30 12 C 0.199783 1.164530 -1.052751 0
M  V30 13 C 0.846582 0.780289 0.075211 0
M  V30 14 C 0.362774 0.454853 1.396065 0
M  V30 15 C 1.256430 0.567670 2.468222 0
M  V30 16 C 0.910134 0.264124 3.762191 0
M  V30 17 N -0.334077 -0.162639 4.039525 0
M  V30 18 C -1.250502 -0.296311 3.047991 0
M  V30 19 N -2.526008 -0.717594 3.085358 0
M  V30 20 C -2.980771 -0.682929 1.822517 0
M  V30 21 C -4.365507 -1.079785 1.453995 0
M  V30 22 C -5.113329 0.060645 0.796598 0
M  V30 23 C -6.545528 -0.373339 0.622404 0
M  V30 24 N -6.683025 -1.590661 -0.115107 0
M  V30 25 C -5.802078 -2.646275 0.242475 0
M  V30 26 C -4.376878 -2.238590 0.494404 0
M  V30 27 C -1.976498 -0.238763 1.021093 0
M  V30 28 C -0.877980 0.012849 1.770338 0
M  V30 29 N 2.179511 0.755329 -0.085464 0
M  V30 30 C 4.323987 -1.523607 1.043512 0
M  V30 31 H 5.167279 -4.731884 0.552739 0
M  V30 32 H 6.578894 -3.685372 -1.187801 0
M  V30 33 H 6.566226 -1.310982 -1.515748 0
M  V30 34 H 6.234929 0.851994 -0.497759 0
M  V30 35 H 4.878270 1.098745 0.709470 0
M  V30 36 H 4.728506 1.331933 -2.159183 0
M  V30 37 H 2.603452 1.706759 -3.255688 0
M  V30 38 H -0.859122 1.250615 -1.031148 0
M  V30 39 H 2.266238 0.910364 2.299037 0
M  V30 40 H 1.644411 0.372320 4.546544 0
M  V30 41 H -3.006708 -1.003072 3.975165 0
M  V30 42 H -4.944531 -1.377921 2.351125 0
M  V30 43 H -5.096935 0.999451 1.369172 0
M  V30 44 H -4.685837 0.174087 -0.225569 0
M  V30 45 H -7.131628 0.401538 0.049093 0
M  V30 46 H -7.053310 -0.419682 1.611447 0
M  V30 47 H -6.815236 -1.452064 -1.139185 0
M  V30 48 H -5.789984 -3.359740 -0.632750 0
M  V30 49 H -6.194341 -3.258403 1.083389 0
M  V30 50 H -3.850931 -3.134449 0.897432 0
M  V30 51 H -3.882547 -1.989106 -0.459827 0
M  V30 52 H -2.142064 -0.158317 -0.029355 0
M  V30 53 H 3.729399 -0.829474 1.617494 0
M  V30 END ATOM
M  V30 BEGIN BOND
M  V30 1 1 1 2
M  V30 2 2 2 3
M  V30 3 1 3 4
M  V30 4 2 4 5
M  V30 5 1 5 6
M  V30 6 1 6 7
M  V30 7 1 7 8
M  V30 8 1 8 9
M  V30 9 2 9 10
M  V30 10 1 10 11
M  V30 11 2 11 12
M  V30 12 1 12 13
M  V30 13 1 13 14
M  V30 14 2 14 15
M  V30 15 1 15 16
M  V30 16 2 16 17
M  V30 17 1 17 18
M  V30 18 1 18 19
M  V30 19 1 19 20
M  V30 20 1 20 21
M  V30 21 1 21 22
M  V30 22 1 22 23
M  V30 23 1 23 24
M  V30 24 1 24 25
M  V30 25 1 25 26
M  V30 26 2 20 27
M  V30 27 1 27 28
M  V30 28 2 13 29
M  V30 29 2 6 30
M  V30 30 1 30 2
M  V30 31 1 29 9
M  V30 32 1 28 14
M  V30 33 2 28 18
M  V30 34 1 26 21
M  V30 35 1 3 31
M  V30 36 1 4 32
M  V30 37 1 5 33
M  V30 38 1 7 34
M  V30 39 1 7 35
M  V30 40 1 8 36
M  V30 41 1 10 37
M  V30 42 1 12 38
M  V30 43 1 15 39
M  V30 44 1 16 40
M  V30 45 1 19 41
M  V30 46 1 21 42
M  V30 47 1 22 43
M  V30 48 1 22 44
M  V30 49 1 23 45
M  V30 50 1 23 46
M  V30 51 1 24 47
M  V30 52 1 25 48
M  V30 53 1 25 49
M  V30 54 1 26 50
M  V30 55 1 26 51
M  V30 56 1 27 52
M  V30 57 1 30 53
M  V30 END BOND
M  V30 END CTAB
M  END
>  <Dataset>  (822) 
ChEMBL_Kinases

>  <Ligand_Instance>  (822) 
nan

>  <PDB_ID>  (822) 
nan

>  <Standardized_SMILES>  (822) 
Fc1cccc(CNc2cncc(-c3ccnc4[nH]c(C5CCNCC5)cc34)n2)c1

>  <Name>  (822) 
nan

>  <Pocket>  (822) 
nan

>  <ATP_Site>  (822) 
nan

>  <Peripheral>  (822) 
nan

>  <Num_H_Atoms_ProtBoundConf>  (822) 
nan

>  <Num_Resolved_Atoms>  (822) 
nan

>  <Num_Not_Resolved_Atoms>  (822) 
nan

$$$$
CHEMBL3673503
     RDKit          3D

  0  0  0  0  0  0  0  0  0  0999 V3000
M  V30 BEGIN CTAB
M  V30 COUNTS 53 57 0 0 0
M  V30 BEGIN ATOM
M  V30 1 F 2.055051 -2.594950 2.202454 0
M  V30 2 C 2.444832 -2.210548 0.964105 0
M  V30 3 C 2.223931 -2.944822 -0.197072 0
M  V30 4 C 2.600171 -2.595245 -1.457979 0
M  V30 5 F 2.314400 -3.421572 -2.513605 0
M  V30 6 C 3.276652 -1.373350 -1.589643 0
M  V30 7 C 3.505228 -0.631606 -0.452895 0
M  V30 8 C 4.224745 0.659077 -0.658461 0
M  V30 9 N 3.228837 1.717646 -0.882925 0
M  V30 10 C 2.283929 2.243172 0.023327 0
M  V30 11 C 2.613990 3.585537 0.287632 0
M  V30 12 N 1.864204 4.331191 1.142009 0
M  V30 13 C 0.786385 3.822834 1.765845 0
M  V30 14 C 0.461677 2.484759 1.499477 0
M  V30 15 C -0.698641 1.880835 2.125691 0
M  V30 16 C -1.349417 2.585581 3.102878 0
M  V30 17 C -2.472258 2.091368 3.730528 0
M  V30 18 N -2.950911 0.861647 3.367439 0
M  V30 19 C -2.331676 0.142246 2.407616 0
M  V30 20 N -2.618828 -1.063212 1.886177 0
M  V30 21 C -1.713985 -1.352437 0.945424 0
M  V30 22 C -1.622823 -2.554583 0.088732 0
M  V30 23 C -2.732930 -2.494589 -0.938467 0
M  V30 24 C -4.068314 -2.849348 -0.350631 0
M  V30 25 N -3.898155 -3.860804 0.645885 0
M  V30 26 C -2.730763 -4.686673 0.419234 0
M  V30 27 C -1.531966 -3.851313 0.817881 0
M  V30 28 C -0.800778 -0.288132 0.854374 0
M  V30 29 C -1.215721 0.652344 1.795928 0
M  V30 30 N 1.206597 1.762618 0.657110 0
M  V30 31 C 3.115675 -1.004229 0.812872 0
M  V30 32 H 1.686255 -3.891425 -0.011451 0
M  V30 33 H 3.563406 -1.130681 -2.617708 0
M  V30 34 H 4.784878 0.870444 0.279624 0
M  V30 35 H 4.888505 0.593960 -1.535886 0
M  V30 36 H 3.209279 2.151566 -1.858272 0
M  V30 37 H 3.434679 4.170708 -0.112010 0
M  V30 38 H 0.236698 4.473011 2.427269 0
M  V30 39 H -1.129297 3.537184 3.506489 0
M  V30 40 H -3.072873 2.527183 4.494641 0
M  V30 41 H -3.424631 -1.625347 2.210549 0
M  V30 42 H -0.668121 -2.493953 -0.532384 0
M  V30 43 H -2.741484 -1.438631 -1.328282 0
M  V30 44 H -2.485312 -3.122000 -1.817326 0
M  V30 45 H -4.500257 -1.917405 0.095203 0
M  V30 46 H -4.765295 -3.165426 -1.163524 0
M  V30 47 H -4.733718 -4.369839 0.929213 0
M  V30 48 H -2.827412 -5.606113 1.024559 0
M  V30 49 H -2.627756 -4.924082 -0.662709 0
M  V30 50 H -1.469771 -3.688523 1.907023 0
M  V30 51 H -0.642224 -4.465733 0.516694 0
M  V30 52 H 0.043775 -0.214390 0.195180 0
M  V30 53 H 3.357603 -0.327932 1.619770 0
M  V30 END ATOM
M  V30 BEGIN BOND
M  V30 1 1 1 2
M  V30 2 2 2 3
M  V30 3 1 3 4
M  V30 4 1 4 5
M  V30 5 2 4 6
M  V30 6 1 6 7
M  V30 7 1 7 8
M  V30 8 1 8 9
M  V30 9 1 9 10
M  V30 10 2 10 11
M  V30 11 1 11 12
M  V30 12 2 12 13
M  V30 13 1 13 14
M  V30 14 1 14 15
M  V30 15 2 15 16
M  V30 16 1 16 17
M  V30 17 2 17 18
M  V30 18 1 18 19
M  V30 19 1 19 20
M  V30 20 1 20 21
M  V30 21 1 21 22
M  V30 22 1 22 23
M  V30 23 1 23 24
M  V30 24 1 24 25
M  V30 25 1 25 26
M  V30 26 1 26 27
M  V30 27 2 21 28
M  V30 28 1 28 29
M  V30 29 2 14 30
M  V30 30 2 7 31
M  V30 31 1 31 2
M  V30 32 1 30 10
M  V30 33 1 29 15
M  V30 34 2 29 19
M  V30 35 1 27 22
M  V30 36 1 3 32
M  V30 37 1 6 33
M  V30 38 1 8 34
M  V30 39 1 8 35
M  V30 40 1 9 36
M  V30 41 1 11 37
M  V30 42 1 13 38
M  V30 43 1 16 39
M  V30 44 1 17 40
M  V30 45 1 20 41
M  V30 46 1 22 42
M  V30 47 1 23 43
M  V30 48 1 23 44
M  V30 49 1 24 45
M  V30 50 1 24 46
M  V30 51 1 25 47
M  V30 52 1 26 48
M  V30 53 1 26 49
M  V30 54 1 27 50
M  V30 55 1 27 51
M  V30 56 1 28 52
M  V30 57 1 31 53
M  V30 END BOND
M  V30 END CTAB
M  END
>  <Dataset>  (823) 
ChEMBL_Kinases

>  <Ligand_Instance>  (823) 
nan

>  <PDB_ID>  (823) 
nan

>  <Standardized_SMILES>  (823) 
Fc1cc(F)cc(CNc2cncc(-c3ccnc4[nH]c(C5CCNCC5)cc34)n2)c1

>  <Name>  (823) 
nan

>  <Pocket>  (823) 
nan

>  <ATP_Site>  (823) 
nan

>  <Peripheral>  (823) 
nan

>  <Num_H_Atoms_ProtBoundConf>  (823) 
nan

>  <Num_Resolved_Atoms>  (823) 
nan

>  <Num_Not_Resolved_Atoms>  (823) 
nan

$$$$
CHEMBL3673502
     RDKit          3D

  0  0  0  0  0  0  0  0  0  0999 V3000
M  V30 BEGIN CTAB
M  V30 COUNTS 57 61 0 0 0
M  V30 BEGIN ATOM
M  V30 1 C -1.521499 -4.695129 4.331444 0
M  V30 2 C -0.402917 -3.986359 3.950890 0
M  V30 3 C -0.297762 -3.239939 2.802315 0
M  V30 4 C 0.890843 -2.493267 2.415304 0
M  V30 5 C 1.999390 -2.508752 3.233794 0
M  V30 6 N 3.107112 -1.812515 2.880264 0
M  V30 7 C 3.128336 -1.112811 1.743740 0
M  V30 8 C 2.037090 -1.084744 0.917739 0
M  V30 9 N 1.984255 -0.349217 -0.292942 0
M  V30 10 C 2.966698 0.579174 -0.799043 0
M  V30 11 C 2.967164 1.793611 0.115715 0
M  V30 12 C 3.993305 2.781819 -0.394747 0
M  V30 13 C 3.843936 4.144874 0.236729 0
M  V30 14 O 2.547401 4.585529 0.340926 0
M  V30 15 C 1.711158 3.672025 0.980818 0
M  V30 16 C 1.598244 2.489028 0.029004 0
M  V30 17 N 0.958948 -1.784666 1.297734 0
M  V30 18 C -1.426334 -3.236102 2.009078 0
M  V30 19 C -1.723384 -2.629315 0.807738 0
M  V30 20 C -3.010429 -2.947688 0.430629 0
M  V30 21 C -3.841110 -2.577802 -0.764192 0
M  V30 22 C -3.154631 -3.176097 -1.957500 0
M  V30 23 C -2.409577 -2.073388 -2.669326 0
M  V30 24 N -3.420519 -1.284989 -3.348575 0
M  V30 25 C -4.232065 -0.648999 -2.344524 0
M  V30 26 C -3.907207 -1.082590 -0.950675 0
M  V30 27 N -3.461221 -3.751106 1.432493 0
M  V30 28 C -2.546814 -3.941862 2.383228 0
M  V30 29 N -2.610421 -4.671724 3.533966 0
M  V30 30 H -1.609376 -5.274896 5.219618 0
M  V30 31 H 0.410352 -4.056390 4.631369 0
M  V30 32 H 2.080655 -3.036173 4.160555 0
M  V30 33 H 4.027065 -0.585594 1.498835 0
M  V30 34 H 1.133316 -0.478636 -0.918616 0
M  V30 35 H 2.731957 0.925870 -1.805549 0
M  V30 36 H 3.962689 0.081843 -0.738304 0
M  V30 37 H 3.121685 1.546800 1.170392 0
M  V30 38 H 3.994242 2.782842 -1.483211 0
M  V30 39 H 4.986954 2.398078 -0.053620 0
M  V30 40 H 4.349727 4.859178 -0.478051 0
M  V30 41 H 4.393078 4.192550 1.193269 0
M  V30 42 H 2.219277 3.273284 1.894550 0
M  V30 43 H 0.750590 4.123123 1.226942 0
M  V30 44 H 0.808216 1.782094 0.353652 0
M  V30 45 H 1.465090 2.898305 -0.981158 0
M  V30 46 H -1.108852 -2.000743 0.208688 0
M  V30 47 H -4.868062 -3.011097 -0.664593 0
M  V30 48 H -3.952540 -3.605492 -2.626257 0
M  V30 49 H -2.500738 -4.031300 -1.700040 0
M  V30 50 H -1.650335 -2.469668 -3.374820 0
M  V30 51 H -1.883471 -1.399549 -1.968688 0
M  V30 52 H -3.053360 -0.669327 -4.077288 0
M  V30 53 H -5.309335 -0.722476 -2.547183 0
M  V30 54 H -3.988744 0.444240 -2.404992 0
M  V30 55 H -4.767401 -0.708340 -0.316070 0
M  V30 56 H -3.026755 -0.553193 -0.538531 0
M  V30 57 H -4.421903 -4.176085 1.458165 0
M  V30 END ATOM
M  V30 BEGIN BOND
M  V30 1 2 1 2
M  V30 2 1 2 3
M  V30 3 1 3 4
M  V30 4 2 4 5
M  V30 5 1 5 6
M  V30 6 2 6 7
M  V30 7 1 7 8
M  V30 8 1 8 9
M  V30 9 1 9 10
M  V30 10 1 10 11
M  V30 11 1 11 12
M  V30 12 1 12 13
M  V30 13 1 13 14
M  V30 14 1 14 15
M  V30 15 1 15 16
M  V30 16 2 8 17
M  V30 17 2 3 18
M  V30 18 1 18 19
M  V30 19 2 19 20
M  V30 20 1 20 21
M  V30 21 1 21 22
M  V30 22 1 22 23
M  V30 23 1 23 24
M  V30 24 1 24 25
M  V30 25 1 25 26
M  V30 26 1 20 27
M  V30 27 1 27 28
M  V30 28 2 28 29
M  V30 29 1 29 1
M  V30 30 1 17 4
M  V30 31 1 28 18
M  V30 32 1 16 11
M  V30 33 1 26 21
M  V30 34 1 1 30
M  V30 35 1 2 31
M  V30 36 1 5 32
M  V30 37 1 7 33
M  V30 38 1 9 34
M  V30 39 1 10 35
M  V30 40 1 10 36
M  V30 41 1 11 37
M  V30 42 1 12 38
M  V30 43 1 12 39
M  V30 44 1 13 40
M  V30 45 1 13 41
M  V30 46 1 15 42
M  V30 47 1 15 43
M  V30 48 1 16 44
M  V30 49 1 16 45
M  V30 50 1 19 46
M  V30 51 1 21 47
M  V30 52 1 22 48
M  V30 53 1 22 49
M  V30 54 1 23 50
M  V30 55 1 23 51
M  V30 56 1 24 52
M  V30 57 1 25 53
M  V30 58 1 25 54
M  V30 59 1 26 55
M  V30 60 1 26 56
M  V30 61 1 27 57
M  V30 END BOND
M  V30 END CTAB
M  END
>  <Dataset>  (824) 
ChEMBL_Kinases

>  <Ligand_Instance>  (824) 
nan

>  <PDB_ID>  (824) 
nan

>  <Standardized_SMILES>  (824) 
c1cc(-c2cncc(NCC3CCOCC3)n2)c2cc(C3CCNCC3)[nH]c2n1

>  <Name>  (824) 
nan

>  <Pocket>  (824) 
nan

>  <ATP_Site>  (824) 
nan

>  <Peripheral>  (824) 
nan

>  <Num_H_Atoms_ProtBoundConf>  (824) 
nan

>  <Num_Resolved_Atoms>  (824) 
nan

>  <Num_Not_Resolved_Atoms>  (824) 
nan

$$$$
CHEMBL3673501
     RDKit          3D

  0  0  0  0  0  0  0  0  0  0999 V3000
M  V30 BEGIN CTAB
M  V30 COUNTS 53 57 0 0 0
M  V30 BEGIN ATOM
M  V30 1 C 1.032907 -3.883009 2.972121 0
M  V30 2 C 2.379060 -4.041687 3.325871 0
M  V30 3 C 3.134442 -2.898441 3.546550 0
M  V30 4 C 2.629691 -1.598403 3.436647 0
M  V30 5 C 3.689234 -0.594945 3.716644 0
M  V30 6 N 4.483674 -0.336360 2.525036 0
M  V30 7 C 3.913424 0.219106 1.347861 0
M  V30 8 C 4.555651 0.230415 0.128377 0
M  V30 9 N 4.007962 0.741998 -0.988185 0
M  V30 10 C 2.762259 1.286541 -0.964593 0
M  V30 11 C 2.098248 1.290320 0.240148 0
M  V30 12 C 0.769585 1.847361 0.572299 0
M  V30 13 C 0.615444 2.986058 1.367294 0
M  V30 14 C -0.664970 3.392058 1.650671 0
M  V30 15 N -1.748457 2.716805 1.180806 0
M  V30 16 C -1.612947 1.623329 0.419685 0
M  V30 17 N -2.548233 0.789718 -0.123591 0
M  V30 18 C -1.879722 -0.189192 -0.782612 0
M  V30 19 C -2.454915 -1.349872 -1.502625 0
M  V30 20 C -3.268010 -0.875956 -2.677974 0
M  V30 21 C -4.744471 -0.943358 -2.389818 0
M  V30 22 N -5.177123 -2.248534 -2.012456 0
M  V30 23 C -4.155131 -3.075659 -1.424802 0
M  V30 24 C -3.238361 -2.248160 -0.583512 0
M  V30 25 C -0.514219 0.029561 -0.655739 0
M  V30 26 C -0.337025 1.163866 0.098092 0
M  V30 27 N 2.670411 0.773544 1.335457 0
M  V30 28 C 1.301456 -1.504562 3.088087 0
M  V30 29 C 0.502912 -2.596118 2.856200 0
M  V30 30 H 0.414340 -4.730454 2.788324 0
M  V30 31 H 2.712215 -5.064709 3.392365 0
M  V30 32 H 4.154917 -3.192475 3.812795 0
M  V30 33 H 4.276196 -0.899539 4.588937 0
M  V30 34 H 3.169404 0.342549 4.000529 0
M  V30 35 H 5.482466 -0.548141 2.489460 0
M  V30 36 H 5.567367 -0.199262 0.046102 0
M  V30 37 H 2.195860 1.729887 -1.758968 0
M  V30 38 H 1.509481 3.484201 1.713725 0
M  V30 39 H -0.768272 4.279187 2.261583 0
M  V30 40 H -3.573633 0.915622 -0.029218 0
M  V30 41 H -1.627746 -1.998409 -1.922558 0
M  V30 42 H -3.012905 -1.490454 -3.579177 0
M  V30 43 H -3.003375 0.169127 -2.954429 0
M  V30 44 H -5.282117 -0.670657 -3.326019 0
M  V30 45 H -4.991229 -0.130137 -1.664957 0
M  V30 46 H -5.911414 -2.118946 -1.260456 0
M  V30 47 H -4.662990 -3.827656 -0.750022 0
M  V30 48 H -3.620993 -3.722071 -2.165172 0
M  V30 49 H -3.856822 -1.681526 0.140526 0
M  V30 50 H -2.578617 -2.946098 -0.032666 0
M  V30 51 H 0.339054 -0.545347 -1.050001 0
M  V30 52 H 0.961594 -0.473984 3.034064 0
M  V30 53 H -0.509491 -2.401114 2.590896 0
M  V30 END ATOM
M  V30 BEGIN BOND
M  V30 1 2 1 2
M  V30 2 1 2 3
M  V30 3 2 3 4
M  V30 4 1 4 5
M  V30 5 1 5 6
M  V30 6 1 6 7
M  V30 7 2 7 8
M  V30 8 1 8 9
M  V30 9 2 9 10
M  V30 10 1 10 11
M  V30 11 1 11 12
M  V30 12 2 12 13
M  V30 13 1 13 14
M  V30 14 2 14 15
M  V30 15 1 15 16
M  V30 16 1 16 17
M  V30 17 1 17 18
M  V30 18 1 18 19
M  V30 19 1 19 20
M  V30 20 1 20 21
M  V30 21 1 21 22
M  V30 22 1 22 23
M  V30 23 1 23 24
M  V30 24 2 18 25
M  V30 25 1 25 26
M  V30 26 2 11 27
M  V30 27 1 4 28
M  V30 28 2 28 29
M  V30 29 1 29 1
M  V30 30 1 27 7
M  V30 31 1 26 12
M  V30 32 2 26 16
M  V30 33 1 24 19
M  V30 34 1 1 30
M  V30 35 1 2 31
M  V30 36 1 3 32
M  V30 37 1 5 33
M  V30 38 1 5 34
M  V30 39 1 6 35
M  V30 40 1 8 36
M  V30 41 1 10 37
M  V30 42 1 13 38
M  V30 43 1 14 39
M  V30 44 1 17 40
M  V30 45 1 19 41
M  V30 46 1 20 42
M  V30 47 1 20 43
M  V30 48 1 21 44
M  V30 49 1 21 45
M  V30 50 1 22 46
M  V30 51 1 23 47
M  V30 52 1 23 48
M  V30 53 1 24 49
M  V30 54 1 24 50
M  V30 55 1 25 51
M  V30 56 1 28 52
M  V30 57 1 29 53
M  V30 END BOND
M  V30 END CTAB
M  END
>  <Dataset>  (825) 
ChEMBL_Kinases

>  <Ligand_Instance>  (825) 
nan

>  <PDB_ID>  (825) 
nan

>  <Standardized_SMILES>  (825) 
c1ccc(CNc2cncc(-c3ccnc4[nH]c(C5CCNCC5)cc34)n2)cc1

>  <Name>  (825) 
nan

>  <Pocket>  (825) 
nan

>  <ATP_Site>  (825) 
nan

>  <Peripheral>  (825) 
nan

>  <Num_H_Atoms_ProtBoundConf>  (825) 
nan

>  <Num_Resolved_Atoms>  (825) 
nan

>  <Num_Not_Resolved_Atoms>  (825) 
nan

$$$$
CHEMBL3673500
     RDKit          3D

  0  0  0  0  0  0  0  0  0  0999 V3000
M  V30 BEGIN CTAB
M  V30 COUNTS 59 63 0 0 0
M  V30 BEGIN ATOM
M  V30 1 C 4.601641 -1.712478 5.051485 0
M  V30 2 S 3.103923 -1.437650 4.171971 0
M  V30 3 O 2.484905 -2.797082 3.874635 0
M  V30 4 O 2.071368 -0.741927 5.047716 0
M  V30 5 N 3.257382 -0.582325 2.722142 0
M  V30 6 C 3.753019 0.713379 2.794334 0
M  V30 7 C 4.054855 1.423820 1.517071 0
M  V30 8 C 4.150268 0.516303 0.326537 0
M  V30 9 C 2.906110 0.513163 -0.479288 0
M  V30 10 C 1.606244 0.573274 -0.029069 0
M  V30 11 C 0.731958 0.538317 -1.084915 0
M  V30 12 C -0.637090 0.558947 -1.088201 0
M  V30 13 C -1.557129 0.621636 0.017629 0
M  V30 14 C -1.418240 1.086931 1.274762 0
M  V30 15 N -2.375844 1.133757 2.207629 0
M  V30 16 C -3.606862 0.689306 1.914323 0
M  V30 17 C -3.809091 0.196608 0.625444 0
M  V30 18 N -5.127162 -0.277742 0.288877 0
M  V30 19 C -5.567343 -0.889213 -0.956981 0
M  V30 20 C -4.891551 -2.183392 -1.192118 0
M  V30 21 C -3.735830 -2.493461 -1.869004 0
M  V30 22 C -3.301653 -3.797753 -1.946342 0
M  V30 23 C -3.962383 -4.863092 -1.374367 0
M  V30 24 C -5.120366 -4.560645 -0.694991 0
M  V30 25 C -5.566197 -3.262593 -0.609390 0
M  V30 26 N -2.803265 0.188186 -0.232499 0
M  V30 27 C -1.157422 0.479059 -2.384541 0
M  V30 28 C -0.401004 0.391828 -3.527356 0
M  V30 29 N 0.937530 0.381721 -3.400246 0
M  V30 30 C 1.537516 0.453402 -2.192547 0
M  V30 31 N 2.830014 0.439523 -1.828215 0
M  V30 32 C 4.543683 -0.898275 0.746069 0
M  V30 33 C 3.413430 -1.403714 1.600579 0
M  V30 34 H 4.298701 -2.009302 6.098442 0
M  V30 35 H 5.139628 -2.602128 4.663705 0
M  V30 36 H 5.277686 -0.847888 5.063419 0
M  V30 37 H 4.621410 0.748376 3.499826 0
M  V30 38 H 2.982410 1.349132 3.326619 0
M  V30 39 H 5.032112 1.939767 1.623855 0
M  V30 40 H 3.312764 2.212790 1.273729 0
M  V30 41 H 4.976467 0.831837 -0.361328 0
M  V30 42 H 1.406392 0.626730 1.003590 0
M  V30 43 H -0.476173 1.487344 1.570907 0
M  V30 44 H -4.367416 0.733128 2.675518 0
M  V30 45 H -5.873894 -0.179010 1.019764 0
M  V30 46 H -6.655955 -0.999529 -0.961985 0
M  V30 47 H -5.254514 -0.188683 -1.791206 0
M  V30 48 H -3.264723 -1.637631 -2.294256 0
M  V30 49 H -2.391324 -3.990629 -2.487128 0
M  V30 50 H -3.579185 -5.856431 -1.466082 0
M  V30 51 H -5.642016 -5.395910 -0.244358 0
M  V30 52 H -6.498337 -3.165025 -0.040739 0
M  V30 53 H -2.236952 0.489252 -2.533309 0
M  V30 54 H -0.877367 0.334402 -4.491353 0
M  V30 55 H 3.605357 0.379801 -2.525770 0
M  V30 56 H 5.481326 -0.853528 1.301409 0
M  V30 57 H 4.607466 -1.498237 -0.185565 0
M  V30 58 H 3.629812 -2.446298 1.963164 0
M  V30 59 H 2.469781 -1.475086 1.017543 0
M  V30 END ATOM
M  V30 BEGIN BOND
M  V30 1 1 1 2
M  V30 2 2 2 3
M  V30 3 2 2 4
M  V30 4 1 2 5
M  V30 5 1 5 6
M  V30 6 1 6 7
M  V30 7 1 7 8
M  V30 8 1 8 9
M  V30 9 2 9 10
M  V30 10 1 10 11
M  V30 11 2 11 12
M  V30 12 1 12 13
M  V30 13 2 13 14
M  V30 14 1 14 15
M  V30 15 2 15 16
M  V30 16 1 16 17
M  V30 17 1 17 18
M  V30 18 1 18 19
M  V30 19 1 19 20
M  V30 20 2 20 21
M  V30 21 1 21 22
M  V30 22 2 22 23
M  V30 23 1 23 24
M  V30 24 2 24 25
M  V30 25 2 17 26
M  V30 26 1 12 27
M  V30 27 2 27 28
M  V30 28 1 28 29
M  V30 29 2 29 30
M  V30 30 1 30 31
M  V30 31 1 8 32
M  V30 32 1 32 33
M  V30 33 1 33 5
M  V30 34 1 31 9
M  V30 35 1 30 11
M  V30 36 1 26 13
M  V30 37 1 25 20
M  V30 38 1 1 34
M  V30 39 1 1 35
M  V30 40 1 1 36
M  V30 41 1 6 37
M  V30 42 1 6 38
M  V30 43 1 7 39
M  V30 44 1 7 40
M  V30 45 1 8 41
M  V30 46 1 10 42
M  V30 47 1 14 43
M  V30 48 1 16 44
M  V30 49 1 18 45
M  V30 50 1 19 46
M  V30 51 1 19 47
M  V30 52 1 21 48
M  V30 53 1 22 49
M  V30 54 1 23 50
M  V30 55 1 24 51
M  V30 56 1 25 52
M  V30 57 1 27 53
M  V30 58 1 28 54
M  V30 59 1 31 55
M  V30 60 1 32 56
M  V30 61 1 32 57
M  V30 62 1 33 58
M  V30 63 1 33 59
M  V30 END BOND
M  V30 END CTAB
M  END
>  <Dataset>  (826) 
ChEMBL_Kinases

>  <Ligand_Instance>  (826) 
nan

>  <PDB_ID>  (826) 
nan

>  <Standardized_SMILES>  (826) 
CS(=O)(=O)N1CCC(c2cc3c(-c4cncc(NCc5ccccc5)n4)ccnc3[nH]2)CC1

>  <Name>  (826) 
nan

>  <Pocket>  (826) 
nan

>  <ATP_Site>  (826) 
nan

>  <Peripheral>  (826) 
nan

>  <Num_H_Atoms_ProtBoundConf>  (826) 
nan

>  <Num_Resolved_Atoms>  (826) 
nan

>  <Num_Not_Resolved_Atoms>  (826) 
nan

$$$$
CHEMBL3673499
     RDKit          3D

  0  0  0  0  0  0  0  0  0  0999 V3000
M  V30 BEGIN CTAB
M  V30 COUNTS 55 59 0 0 0
M  V30 BEGIN ATOM
M  V30 1 C -3.464081 -4.095201 1.221204 0
M  V30 2 S -2.475366 -5.194935 2.242924 0
M  V30 3 O -2.994372 -5.145849 3.664299 0
M  V30 4 O -2.700708 -6.576552 1.754644 0
M  V30 5 N -0.847482 -4.702813 2.164025 0
M  V30 6 C -0.603097 -3.389229 2.650187 0
M  V30 7 C -0.009183 -2.456426 1.643811 0
M  V30 8 C 0.847296 -2.941410 0.758429 0
M  V30 9 C 1.494172 -2.129471 -0.270400 0
M  V30 10 C 1.334626 -0.779678 -0.508469 0
M  V30 11 C 2.119893 -0.356685 -1.561503 0
M  V30 12 C 2.329688 0.858639 -2.182356 0
M  V30 13 C 1.620231 2.047561 -1.716687 0
M  V30 14 C 1.835813 3.288023 -2.263187 0
M  V30 15 C 1.187492 4.428009 -1.835948 0
M  V30 16 C 0.275912 4.315779 -0.806827 0
M  V30 17 C 0.043976 3.073404 -0.241626 0
M  V30 18 N -0.827522 2.713560 0.819050 0
M  V30 19 C -0.861840 2.446071 2.218959 0
M  V30 20 C -2.301861 2.185275 2.599484 0
M  V30 21 C -2.627552 1.863481 4.015797 0
M  V30 22 C -2.788802 0.823852 2.930398 0
M  V30 23 N 0.718241 2.013704 -0.717614 0
M  V30 24 C 3.223939 0.881411 -3.228702 0
M  V30 25 C 3.880376 -0.286452 -3.629062 0
M  V30 26 N 3.650176 -1.448812 -3.001686 0
M  V30 27 C 2.776127 -1.511968 -1.966039 0
M  V30 28 N 2.384740 -2.544285 -1.183110 0
M  V30 29 C 1.158969 -4.401289 0.815481 0
M  V30 30 C -0.223761 -5.060871 0.934153 0
M  V30 31 H -2.984445 -3.959477 0.235005 0
M  V30 32 H -4.462532 -4.545192 1.026972 0
M  V30 33 H -3.537162 -3.114728 1.706853 0
M  V30 34 H -0.004153 -3.377834 3.589026 0
M  V30 35 H -1.602965 -2.939948 2.925802 0
M  V30 36 H -0.246790 -1.394901 1.605814 0
M  V30 37 H 0.664791 -0.188782 0.090505 0
M  V30 38 H 2.531254 3.455395 -3.068936 0
M  V30 39 H 1.298113 5.419776 -2.208472 0
M  V30 40 H -0.310122 5.102544 -0.362751 0
M  V30 41 H -1.693668 2.667490 0.201572 0
M  V30 42 H -0.301257 1.478178 2.392273 0
M  V30 43 H -0.376542 3.192161 2.871043 0
M  V30 44 H -3.021456 2.802508 1.995344 0
M  V30 45 H -3.552358 2.371336 4.401587 0
M  V30 46 H -1.756915 1.754033 4.702686 0
M  V30 47 H -3.838154 0.544072 2.644257 0
M  V30 48 H -2.123251 -0.057829 2.999055 0
M  V30 49 H 3.439565 1.793695 -3.762084 0
M  V30 50 H 4.582526 -0.258833 -4.453684 0
M  V30 51 H 2.751360 -3.534513 -1.301636 0
M  V30 52 H 1.670614 -4.761803 -0.069791 0
M  V30 53 H 1.655166 -4.592980 1.763922 0
M  V30 54 H -0.816615 -4.571361 0.107839 0
M  V30 55 H -0.175957 -6.140787 0.755418 0
M  V30 END ATOM
M  V30 BEGIN BOND
M  V30 1 1 1 2
M  V30 2 2 2 3
M  V30 3 2 2 4
M  V30 4 1 2 5
M  V30 5 1 5 6
M  V30 6 1 6 7
M  V30 7 2 7 8
M  V30 8 1 8 9
M  V30 9 2 9 10
M  V30 10 1 10 11
M  V30 11 2 11 12
M  V30 12 1 12 13
M  V30 13 2 13 14
M  V30 14 1 14 15
M  V30 15 2 15 16
M  V30 16 1 16 17
M  V30 17 1 17 18
M  V30 18 1 18 19
M  V30 19 1 19 20
M  V30 20 1 20 21
M  V30 21 1 21 22
M  V30 22 2 17 23
M  V30 23 1 12 24
M  V30 24 2 24 25
M  V30 25 1 25 26
M  V30 26 2 26 27
M  V30 27 1 27 28
M  V30 28 1 8 29
M  V30 29 1 29 30
M  V30 30 1 30 5
M  V30 31 1 28 9
M  V30 32 1 27 11
M  V30 33 1 23 13
M  V30 34 1 22 20
M  V30 35 1 1 31
M  V30 36 1 1 32
M  V30 37 1 1 33
M  V30 38 1 6 34
M  V30 39 1 6 35
M  V30 40 1 7 36
M  V30 41 1 10 37
M  V30 42 1 14 38
M  V30 43 1 15 39
M  V30 44 1 16 40
M  V30 45 1 18 41
M  V30 46 1 19 42
M  V30 47 1 19 43
M  V30 48 1 20 44
M  V30 49 1 21 45
M  V30 50 1 21 46
M  V30 51 1 22 47
M  V30 52 1 22 48
M  V30 53 1 24 49
M  V30 54 1 25 50
M  V30 55 1 28 51
M  V30 56 1 29 52
M  V30 57 1 29 53
M  V30 58 1 30 54
M  V30 59 1 30 55
M  V30 END BOND
M  V30 END CTAB
M  END
>  <Dataset>  (827) 
ChEMBL_Kinases

>  <Ligand_Instance>  (827) 
nan

>  <PDB_ID>  (827) 
nan

>  <Standardized_SMILES>  (827) 
CS(=O)(=O)N1CC=C(c2cc3c(-c4cccc(NCC5CC5)n4)ccnc3[nH]2)CC1

>  <Name>  (827) 
nan

>  <Pocket>  (827) 
nan

>  <ATP_Site>  (827) 
nan

>  <Peripheral>  (827) 
nan

>  <Num_H_Atoms_ProtBoundConf>  (827) 
nan

>  <Num_Resolved_Atoms>  (827) 
nan

>  <Num_Not_Resolved_Atoms>  (827) 
nan

$$$$
CHEMBL3673498
     RDKit          3D

  0  0  0  0  0  0  0  0  0  0999 V3000
M  V30 BEGIN CTAB
M  V30 COUNTS 58 62 0 0 0
M  V30 BEGIN ATOM
M  V30 1 C 7.038060 -0.991913 2.860493 0
M  V30 2 S 5.409620 -0.296924 3.039128 0
M  V30 3 O 5.073213 -0.340593 4.487086 0
M  V30 4 O 4.416357 -1.143812 2.290231 0
M  V30 5 N 5.411430 1.283344 2.398546 0
M  V30 6 C 5.727845 1.324007 0.995322 0
M  V30 7 C 4.528362 0.899627 0.232368 0
M  V30 8 C 3.296099 1.007355 0.640276 0
M  V30 9 C 2.216867 0.547325 -0.217505 0
M  V30 10 C 0.869058 0.581753 0.057245 0
M  V30 11 C 0.169223 0.060482 -0.998695 0
M  V30 12 C -1.174405 -0.099871 -1.118461 0
M  V30 13 C -2.259104 0.206134 -0.216523 0
M  V30 14 C -2.352812 1.107694 0.806854 0
M  V30 15 C -3.425355 1.372627 1.585365 0
M  V30 16 C -4.569177 0.659269 1.330368 0
M  V30 17 C -4.510572 -0.267410 0.293942 0
M  V30 18 N -5.687412 -1.027283 -0.003051 0
M  V30 19 C -5.848102 -2.083558 -1.005090 0
M  V30 20 C -4.968109 -3.225954 -0.692873 0
M  V30 21 C -3.809250 -3.631206 -1.275426 0
M  V30 22 C -3.099412 -4.734937 -0.867397 0
M  V30 23 C -3.574651 -5.482930 0.188471 0
M  V30 24 C -4.752055 -5.103260 0.808471 0
M  V30 25 C -5.438349 -3.985400 0.368904 0
M  V30 26 Cl -6.905905 -3.712640 1.321888 0
M  V30 27 N -3.405535 -0.454451 -0.413936 0
M  V30 28 C -1.512206 -0.696858 -2.340439 0
M  V30 29 C -0.597322 -1.068860 -3.293714 0
M  V30 30 N 0.703303 -0.854123 -3.054741 0
M  V30 31 C 1.120710 -0.292293 -1.918534 0
M  V30 32 N 2.339958 0.003839 -1.441270 0
M  V30 33 C 2.997198 1.593834 1.964915 0
M  V30 34 C 4.235134 2.050431 2.675666 0
M  V30 35 H 7.446800 -0.854124 1.851445 0
M  V30 36 H 7.044772 -2.089368 3.072722 0
M  V30 37 H 7.734962 -0.537360 3.597782 0
M  V30 38 H 5.939649 2.377076 0.711022 0
M  V30 39 H 6.595185 0.668212 0.802879 0
M  V30 40 H 4.756560 0.475088 -0.728543 0
M  V30 41 H 0.525458 0.961247 0.989308 0
M  V30 42 H -1.489688 1.708955 1.016483 0
M  V30 43 H -3.412430 2.102169 2.374748 0
M  V30 44 H -5.474615 0.796958 1.894011 0
M  V30 45 H -6.553304 -0.806205 0.566844 0
M  V30 46 H -6.899829 -2.346483 -1.071089 0
M  V30 47 H -5.560849 -1.621428 -1.985942 0
M  V30 48 H -3.487046 -3.011747 -2.097834 0
M  V30 49 H -2.195103 -4.935785 -1.425221 0
M  V30 50 H -2.941211 -6.329074 0.428775 0
M  V30 51 H -5.028236 -5.757567 1.618578 0
M  V30 52 H -2.549236 -0.894678 -2.601267 0
M  V30 53 H -0.895968 -1.520968 -4.213152 0
M  V30 54 H 3.232077 -0.162462 -1.940549 0
M  V30 55 H 2.348545 2.480365 1.806753 0
M  V30 56 H 2.409247 0.868662 2.560670 0
M  V30 57 H 4.057729 2.076283 3.769997 0
M  V30 58 H 4.478435 3.110939 2.400963 0
M  V30 END ATOM
M  V30 BEGIN BOND
M  V30 1 1 1 2
M  V30 2 2 2 3
M  V30 3 2 2 4
M  V30 4 1 2 5
M  V30 5 1 5 6
M  V30 6 1 6 7
M  V30 7 2 7 8
M  V30 8 1 8 9
M  V30 9 2 9 10
M  V30 10 1 10 11
M  V30 11 2 11 12
M  V30 12 1 12 13
M  V30 13 2 13 14
M  V30 14 1 14 15
M  V30 15 2 15 16
M  V30 16 1 16 17
M  V30 17 1 17 18
M  V30 18 1 18 19
M  V30 19 1 19 20
M  V30 20 2 20 21
M  V30 21 1 21 22
M  V30 22 2 22 23
M  V30 23 1 23 24
M  V30 24 2 24 25
M  V30 25 1 25 26
M  V30 26 2 17 27
M  V30 27 1 12 28
M  V30 28 2 28 29
M  V30 29 1 29 30
M  V30 30 2 30 31
M  V30 31 1 31 32
M  V30 32 1 8 33
M  V30 33 1 33 34
M  V30 34 1 34 5
M  V30 35 1 32 9
M  V30 36 1 31 11
M  V30 37 1 27 13
M  V30 38 1 25 20
M  V30 39 1 1 35
M  V30 40 1 1 36
M  V30 41 1 1 37
M  V30 42 1 6 38
M  V30 43 1 6 39
M  V30 44 1 7 40
M  V30 45 1 10 41
M  V30 46 1 14 42
M  V30 47 1 15 43
M  V30 48 1 16 44
M  V30 49 1 18 45
M  V30 50 1 19 46
M  V30 51 1 19 47
M  V30 52 1 21 48
M  V30 53 1 22 49
M  V30 54 1 23 50
M  V30 55 1 24 51
M  V30 56 1 28 52
M  V30 57 1 29 53
M  V30 58 1 32 54
M  V30 59 1 33 55
M  V30 60 1 33 56
M  V30 61 1 34 57
M  V30 62 1 34 58
M  V30 END BOND
M  V30 END CTAB
M  END
>  <Dataset>  (828) 
ChEMBL_Kinases

>  <Ligand_Instance>  (828) 
nan

>  <PDB_ID>  (828) 
nan

>  <Standardized_SMILES>  (828) 
CS(=O)(=O)N1CC=C(c2cc3c(-c4cccc(NCc5ccccc5Cl)n4)ccnc3[nH]2)CC1

>  <Name>  (828) 
nan

>  <Pocket>  (828) 
nan

>  <ATP_Site>  (828) 
nan

>  <Peripheral>  (828) 
nan

>  <Num_H_Atoms_ProtBoundConf>  (828) 
nan

>  <Num_Resolved_Atoms>  (828) 
nan

>  <Num_Not_Resolved_Atoms>  (828) 
nan

$$$$
CHEMBL3673497
     RDKit          3D

  0  0  0  0  0  0  0  0  0  0999 V3000
M  V30 BEGIN CTAB
M  V30 COUNTS 58 62 0 0 0
M  V30 BEGIN ATOM
M  V30 1 C 4.979122 -3.645283 2.561987 0
M  V30 2 S 5.276687 -3.376522 0.809637 0
M  V30 3 O 6.714699 -3.015492 0.630097 0
M  V30 4 O 5.021525 -4.646559 0.048031 0
M  V30 5 N 4.280316 -2.153209 0.188630 0
M  V30 6 C 2.898861 -2.395939 0.261990 0
M  V30 7 C 2.020220 -1.334528 -0.213954 0
M  V30 8 C 2.516064 -0.470943 -1.112256 0
M  V30 9 C 1.631028 0.592139 -1.587087 0
M  V30 10 C 0.319277 0.820631 -1.218555 0
M  V30 11 C -0.203948 1.925844 -1.878705 0
M  V30 12 C -1.420379 2.577734 -1.887485 0
M  V30 13 C -2.500234 2.083030 -1.043943 0
M  V30 14 C -3.742576 2.674893 -1.005228 0
M  V30 15 C -4.774839 2.218169 -0.214910 0
M  V30 16 C -4.594339 1.108810 0.597449 0
M  V30 17 C -3.362457 0.537780 0.546621 0
M  V30 18 N -3.067232 -0.618751 1.348851 0
M  V30 19 C -4.028476 -1.230462 2.223097 0
M  V30 20 C -3.491507 -2.415411 2.958954 0
M  V30 21 C -2.649285 -2.172748 4.028114 0
M  V30 22 F -2.308810 -0.915633 4.414464 0
M  V30 23 C -2.082541 -3.169501 4.793098 0
M  V30 24 C -2.361762 -4.485093 4.486928 0
M  V30 25 C -3.208179 -4.754316 3.413309 0
M  V30 26 C -3.761247 -3.735752 2.665077 0
M  V30 27 F -4.593256 -3.937408 1.607737 0
M  V30 28 N -2.407707 1.017910 -0.230504 0
M  V30 29 C -1.525850 3.673365 -2.715363 0
M  V30 30 C -0.480671 4.113654 -3.504260 0
M  V30 31 N 0.681148 3.440960 -3.456126 0
M  V30 32 C 0.859911 2.360138 -2.670734 0
M  V30 33 N 1.921780 1.557102 -2.477193 0
M  V30 34 C 3.899602 -0.540951 -1.639776 0
M  V30 35 C 4.830461 -1.249743 -0.710002 0
M  V30 36 H 4.000140 -3.252638 2.868949 0
M  V30 37 H 5.756042 -3.138060 3.176936 0
M  V30 38 H 5.063607 -4.731816 2.782173 0
M  V30 39 H 2.594413 -3.338458 -0.272046 0
M  V30 40 H 2.645175 -2.605572 1.328370 0
M  V30 41 H 1.010849 -1.284423 0.172209 0
M  V30 42 H -0.204056 0.203685 -0.507900 0
M  V30 43 H -3.973785 3.542658 -1.603551 0
M  V30 44 H -5.754016 2.698953 -0.196113 0
M  V30 45 H -5.387126 0.745023 1.214608 0
M  V30 46 H -2.128604 -1.070321 1.330888 0
M  V30 47 H -4.857509 -1.620259 1.561514 0
M  V30 48 H -4.419815 -0.498113 2.964691 0
M  V30 49 H -1.423643 -2.984136 5.630288 0
M  V30 50 H -1.951405 -5.335294 5.045880 0
M  V30 51 H -3.450042 -5.786980 3.143937 0
M  V30 52 H -2.455673 4.220820 -2.761081 0
M  V30 53 H -0.578974 4.967793 -4.143180 0
M  V30 54 H 2.862995 1.631064 -2.930968 0
M  V30 55 H 4.261507 0.462289 -1.882721 0
M  V30 56 H 3.855913 -1.114136 -2.589433 0
M  V30 57 H 5.377088 -0.449538 -0.134872 0
M  V30 58 H 5.616122 -1.738310 -1.329301 0
M  V30 END ATOM
M  V30 BEGIN BOND
M  V30 1 1 1 2
M  V30 2 2 2 3
M  V30 3 2 2 4
M  V30 4 1 2 5
M  V30 5 1 5 6
M  V30 6 1 6 7
M  V30 7 2 7 8
M  V30 8 1 8 9
M  V30 9 2 9 10
M  V30 10 1 10 11
M  V30 11 2 11 12
M  V30 12 1 12 13
M  V30 13 2 13 14
M  V30 14 1 14 15
M  V30 15 2 15 16
M  V30 16 1 16 17
M  V30 17 1 17 18
M  V30 18 1 18 19
M  V30 19 1 19 20
M  V30 20 2 20 21
M  V30 21 1 21 22
M  V30 22 1 21 23
M  V30 23 2 23 24
M  V30 24 1 24 25
M  V30 25 2 25 26
M  V30 26 1 26 27
M  V30 27 2 17 28
M  V30 28 1 12 29
M  V30 29 2 29 30
M  V30 30 1 30 31
M  V30 31 2 31 32
M  V30 32 1 32 33
M  V30 33 1 8 34
M  V30 34 1 34 35
M  V30 35 1 35 5
M  V30 36 1 33 9
M  V30 37 1 32 11
M  V30 38 1 28 13
M  V30 39 1 26 20
M  V30 40 1 1 36
M  V30 41 1 1 37
M  V30 42 1 1 38
M  V30 43 1 6 39
M  V30 44 1 6 40
M  V30 45 1 7 41
M  V30 46 1 10 42
M  V30 47 1 14 43
M  V30 48 1 15 44
M  V30 49 1 16 45
M  V30 50 1 18 46
M  V30 51 1 19 47
M  V30 52 1 19 48
M  V30 53 1 23 49
M  V30 54 1 24 50
M  V30 55 1 25 51
M  V30 56 1 29 52
M  V30 57 1 30 53
M  V30 58 1 33 54
M  V30 59 1 34 55
M  V30 60 1 34 56
M  V30 61 1 35 57
M  V30 62 1 35 58
M  V30 END BOND
M  V30 END CTAB
M  END
>  <Dataset>  (829) 
ChEMBL_Kinases

>  <Ligand_Instance>  (829) 
nan

>  <PDB_ID>  (829) 
nan

>  <Standardized_SMILES>  (829) 
CS(=O)(=O)N1CC=C(c2cc3c(-c4cccc(NCc5c(F)cccc5F)n4)ccnc3[nH]2)CC1

>  <Name>  (829) 
nan

>  <Pocket>  (829) 
nan

>  <ATP_Site>  (829) 
nan

>  <Peripheral>  (829) 
nan

>  <Num_H_Atoms_ProtBoundConf>  (829) 
nan

>  <Num_Resolved_Atoms>  (829) 
nan

>  <Num_Not_Resolved_Atoms>  (829) 
nan

$$$$
CHEMBL3673496
     RDKit          3D

  0  0  0  0  0  0  0  0  0  0999 V3000
M  V30 BEGIN CTAB
M  V30 COUNTS 43 46 0 0 0
M  V30 BEGIN ATOM
M  V30 1 C 2.150171 -3.028354 2.801425 0
M  V30 2 S 1.846805 -4.721360 2.348525 0
M  V30 3 O 3.204306 -5.286176 1.966185 0
M  V30 4 O 1.317563 -5.459399 3.518085 0
M  V30 5 N 0.858370 -4.743369 0.990192 0
M  V30 6 C 1.358670 -4.140248 -0.184098 0
M  V30 7 C 1.047815 -2.688269 -0.031755 0
M  V30 8 C -0.237922 -2.487906 0.217627 0
M  V30 9 C -0.751852 -1.135414 0.400748 0
M  V30 10 C -0.053436 0.035377 0.349355 0
M  V30 11 C -0.876344 1.112138 0.570955 0
M  V30 12 C -0.697090 2.478369 0.627608 0
M  V30 13 C 0.631278 3.039115 0.420594 0
M  V30 14 C 0.851924 4.398154 0.468825 0
M  V30 15 C 2.084987 4.981253 0.280694 0
M  V30 16 C 3.188898 4.199720 0.027187 0
M  V30 17 C 2.938459 2.846168 -0.015215 0
M  V30 18 F 3.917539 1.942829 -0.253780 0
M  V30 19 N 1.727796 2.306729 0.171653 0
M  V30 20 C -1.832969 3.215141 0.884314 0
M  V30 21 C -3.078851 2.659803 1.076519 0
M  V30 22 N -3.200288 1.305728 1.010058 0
M  V30 23 C -2.127415 0.527384 0.762189 0
M  V30 24 N -2.031896 -0.810546 0.656942 0
M  V30 25 C -1.144336 -3.663130 0.307037 0
M  V30 26 C -0.533648 -4.743528 1.182904 0
M  V30 27 H 2.700736 -2.513819 1.985897 0
M  V30 28 H 2.727703 -2.992677 3.746366 0
M  V30 29 H 1.146403 -2.541751 2.914390 0
M  V30 30 H 2.446576 -4.321360 -0.265145 0
M  V30 31 H 0.812993 -4.540946 -1.069562 0
M  V30 32 H 1.722534 -1.834575 -0.099739 0
M  V30 33 H 0.994042 0.056425 0.158523 0
M  V30 34 H 0.074667 5.104707 0.657524 0
M  V30 35 H 2.248590 6.063544 0.321333 0
M  V30 36 H 4.200540 4.535304 -0.136464 0
M  V30 37 H -1.756456 4.280205 0.940099 0
M  V30 38 H -3.923300 3.301573 1.273509 0
M  V30 39 H -2.858158 -1.468292 0.765449 0
M  V30 40 H -2.158281 -3.401079 0.602472 0
M  V30 41 H -1.148930 -4.103188 -0.724718 0
M  V30 42 H -1.031594 -5.710071 1.027901 0
M  V30 43 H -0.781634 -4.433592 2.236184 0
M  V30 END ATOM
M  V30 BEGIN BOND
M  V30 1 1 1 2
M  V30 2 2 2 3
M  V30 3 2 2 4
M  V30 4 1 2 5
M  V30 5 1 5 6
M  V30 6 1 6 7
M  V30 7 2 7 8
M  V30 8 1 8 9
M  V30 9 2 9 10
M  V30 10 1 10 11
M  V30 11 2 11 12
M  V30 12 1 12 13
M  V30 13 2 13 14
M  V30 14 1 14 15
M  V30 15 2 15 16
M  V30 16 1 16 17
M  V30 17 1 17 18
M  V30 18 2 17 19
M  V30 19 1 12 20
M  V30 20 2 20 21
M  V30 21 1 21 22
M  V30 22 2 22 23
M  V30 23 1 23 24
M  V30 24 1 8 25
M  V30 25 1 25 26
M  V30 26 1 26 5
M  V30 27 1 24 9
M  V30 28 1 23 11
M  V30 29 1 19 13
M  V30 30 1 1 27
M  V30 31 1 1 28
M  V30 32 1 1 29
M  V30 33 1 6 30
M  V30 34 1 6 31
M  V30 35 1 7 32
M  V30 36 1 10 33
M  V30 37 1 14 34
M  V30 38 1 15 35
M  V30 39 1 16 36
M  V30 40 1 20 37
M  V30 41 1 21 38
M  V30 42 1 24 39
M  V30 43 1 25 40
M  V30 44 1 25 41
M  V30 45 1 26 42
M  V30 46 1 26 43
M  V30 END BOND
M  V30 END CTAB
M  END
>  <Dataset>  (830) 
ChEMBL_Kinases

>  <Ligand_Instance>  (830) 
nan

>  <PDB_ID>  (830) 
nan

>  <Standardized_SMILES>  (830) 
CS(=O)(=O)N1CC=C(c2cc3c(-c4cccc(F)n4)ccnc3[nH]2)CC1

>  <Name>  (830) 
nan

>  <Pocket>  (830) 
nan

>  <ATP_Site>  (830) 
nan

>  <Peripheral>  (830) 
nan

>  <Num_H_Atoms_ProtBoundConf>  (830) 
nan

>  <Num_Resolved_Atoms>  (830) 
nan

>  <Num_Not_Resolved_Atoms>  (830) 
nan

$$$$
CHEMBL3673495
     RDKit          3D

  0  0  0  0  0  0  0  0  0  0999 V3000
M  V30 BEGIN CTAB
M  V30 COUNTS 37 40 0 0 0
M  V30 BEGIN ATOM
M  V30 1 F -1.010342 -2.898657 4.097266 0
M  V30 2 C -0.100864 -3.572624 3.337789 0
M  V30 3 C 0.281314 -4.844436 3.674139 0
M  V30 4 C 1.204137 -5.404197 2.821229 0
M  V30 5 C 1.665121 -4.682381 1.731162 0
M  V30 6 C 1.245619 -3.401822 1.438518 0
M  V30 7 C 1.760593 -2.701177 0.290867 0
M  V30 8 C 2.683848 -3.198259 -0.604181 0
M  V30 9 C 3.177384 -2.528144 -1.703157 0
M  V30 10 N 2.723136 -1.272301 -1.933325 0
M  V30 11 C 1.807734 -0.704171 -1.095804 0
M  V30 12 N 1.236796 0.513576 -1.145934 0
M  V30 13 C 0.390079 0.661010 -0.120572 0
M  V30 14 C -0.445755 1.809399 0.226652 0
M  V30 15 C -1.257773 1.852268 1.275316 0
M  V30 16 C -1.985273 3.150886 1.379228 0
M  V30 17 N -2.657871 3.457519 0.140241 0
M  V30 18 C -1.871103 3.225646 -1.030217 0
M  V30 19 C -0.399332 3.023501 -0.639961 0
M  V30 20 C 0.453668 -0.526136 0.582236 0
M  V30 21 C 1.335147 -1.414628 0.002134 0
M  V30 22 N 0.356595 -2.890348 2.278611 0
M  V30 23 H -0.109339 -5.352203 4.528988 0
M  V30 24 H 1.545379 -6.423713 3.044593 0
M  V30 25 H 2.380877 -5.227585 1.143265 0
M  V30 26 H 3.067466 -4.188675 -0.456316 0
M  V30 27 H 3.908147 -2.990441 -2.365942 0
M  V30 28 H 1.411449 1.244087 -1.861977 0
M  V30 29 H -1.271655 0.956927 1.887399 0
M  V30 30 H -1.330794 3.985693 1.691018 0
M  V30 31 H -2.784227 3.027793 2.156699 0
M  V30 32 H -3.617032 3.072921 0.089906 0
M  V30 33 H -1.990710 3.978702 -1.819382 0
M  V30 34 H -2.167288 2.240640 -1.474518 0
M  V30 35 H -0.098123 3.906357 -0.043708 0
M  V30 36 H 0.185496 2.874412 -1.554711 0
M  V30 37 H -0.124858 -0.715862 1.475419 0
M  V30 END ATOM
M  V30 BEGIN BOND
M  V30 1 1 1 2
M  V30 2 2 2 3
M  V30 3 1 3 4
M  V30 4 2 4 5
M  V30 5 1 5 6
M  V30 6 1 6 7
M  V30 7 2 7 8
M  V30 8 1 8 9
M  V30 9 2 9 10
M  V30 10 1 10 11
M  V30 11 1 11 12
M  V30 12 1 12 13
M  V30 13 1 13 14
M  V30 14 2 14 15
M  V30 15 1 15 16
M  V30 16 1 16 17
M  V30 17 1 17 18
M  V30 18 1 18 19
M  V30 19 2 13 20
M  V30 20 1 20 21
M  V30 21 2 6 22
M  V30 22 1 22 2
M  V30 23 1 21 7
M  V30 24 2 21 11
M  V30 25 1 19 14
M  V30 26 1 3 23
M  V30 27 1 4 24
M  V30 28 1 5 25
M  V30 29 1 8 26
M  V30 30 1 9 27
M  V30 31 1 12 28
M  V30 32 1 15 29
M  V30 33 1 16 30
M  V30 34 1 16 31
M  V30 35 1 17 32
M  V30 36 1 18 33
M  V30 37 1 18 34
M  V30 38 1 19 35
M  V30 39 1 19 36
M  V30 40 1 20 37
M  V30 END BOND
M  V30 END CTAB
M  END
>  <Dataset>  (831) 
ChEMBL_Kinases

>  <Ligand_Instance>  (831) 
nan

>  <PDB_ID>  (831) 
nan

>  <Standardized_SMILES>  (831) 
Fc1cccc(-c2ccnc3[nH]c(C4=CCNCC4)cc23)n1

>  <Name>  (831) 
nan

>  <Pocket>  (831) 
nan

>  <ATP_Site>  (831) 
nan

>  <Peripheral>  (831) 
nan

>  <Num_H_Atoms_ProtBoundConf>  (831) 
nan

>  <Num_Resolved_Atoms>  (831) 
nan

>  <Num_Not_Resolved_Atoms>  (831) 
nan

$$$$
CHEMBL3673494
     RDKit          3D

  0  0  0  0  0  0  0  0  0  0999 V3000
M  V30 BEGIN CTAB
M  V30 COUNTS 57 61 0 0 0
M  V30 BEGIN ATOM
M  V30 1 N 2.661598 -1.175722 2.963465 0
M  V30 2 C 3.982024 -1.665045 2.695723 0
M  V30 3 C 5.077007 -0.680860 3.099553 0
M  V30 4 C 4.757543 0.616392 2.427270 0
M  V30 5 C 4.651409 0.533641 0.935277 0
M  V30 6 C 4.333285 -0.765383 0.351032 0
M  V30 7 C 3.099428 -0.762719 -0.507012 0
M  V30 8 C 1.867941 -0.251381 -0.183017 0
M  V30 9 C 0.977490 -0.434323 -1.207300 0
M  V30 10 C -0.344405 -0.080907 -1.263986 0
M  V30 11 C -1.179913 0.576047 -0.291662 0
M  V30 12 C -0.924567 1.384777 0.760357 0
M  V30 13 C -1.806875 1.994207 1.596871 0
M  V30 14 C -3.126612 1.773045 1.357813 0
M  V30 15 C -3.467754 0.954621 0.294583 0
M  V30 16 N -4.845088 0.710753 0.005662 0
M  V30 17 C -5.439651 -0.168937 -0.994753 0
M  V30 18 C -5.109839 -1.576497 -0.648520 0
M  V30 19 C -4.067508 -2.383191 -1.043887 0
M  V30 20 C -3.968822 -3.671583 -0.572958 0
M  V30 21 C -4.887999 -4.206426 0.298010 0
M  V30 22 C -5.947980 -3.444526 0.724174 0
M  V30 23 F -6.862837 -3.954589 1.580788 0
M  V30 24 C -6.032319 -2.148145 0.240116 0
M  V30 25 N -2.522674 0.413303 -0.454107 0
M  V30 26 C -0.934139 -0.461441 -2.476109 0
M  V30 27 C -0.270646 -1.109100 -3.489515 0
M  V30 28 N 1.025548 -1.395167 -3.304798 0
M  V30 29 C 1.684771 -1.078202 -2.186398 0
M  V30 30 N 2.944214 -1.270199 -1.766269 0
M  V30 31 C 4.237202 -1.947705 1.247852 0
M  V30 32 H 2.019955 -1.975073 3.091409 0
M  V30 33 H 2.594326 -0.512533 3.742764 0
M  V30 34 H 4.109872 -2.634017 3.237108 0
M  V30 35 H 4.938562 -0.505940 4.198582 0
M  V30 36 H 6.043483 -1.124172 2.861197 0
M  V30 37 H 5.526215 1.349631 2.750426 0
M  V30 38 H 3.798425 0.966386 2.875522 0
M  V30 39 H 3.885221 1.301917 0.646884 0
M  V30 40 H 5.600390 0.968252 0.525327 0
M  V30 41 H 5.150491 -1.042650 -0.388758 0
M  V30 42 H 1.715738 0.192854 0.752625 0
M  V30 43 H 0.103282 1.596189 0.945928 0
M  V30 44 H -1.479231 2.619508 2.406409 0
M  V30 45 H -3.905705 2.209847 1.963496 0
M  V30 46 H -5.552560 1.243139 0.601189 0
M  V30 47 H -6.522831 -0.016408 -1.050101 0
M  V30 48 H -4.959497 0.039323 -1.980015 0
M  V30 49 H -3.403417 -1.902755 -1.717478 0
M  V30 50 H -3.112471 -4.205758 -0.951942 0
M  V30 51 H -4.762794 -5.218042 0.634785 0
M  V30 52 H -6.901381 -1.606510 0.625532 0
M  V30 53 H -1.982045 -0.252614 -2.683531 0
M  V30 54 H -0.770282 -1.380720 -4.407007 0
M  V30 55 H 3.703543 -1.742476 -2.322859 0
M  V30 56 H 5.202495 -2.535634 1.220755 0
M  V30 57 H 3.462398 -2.670228 0.924586 0
M  V30 END ATOM
M  V30 BEGIN BOND
M  V30 1 1 1 2
M  V30 2 1 2 3
M  V30 3 1 3 4
M  V30 4 1 4 5
M  V30 5 1 5 6
M  V30 6 1 6 7
M  V30 7 2 7 8
M  V30 8 1 8 9
M  V30 9 2 9 10
M  V30 10 1 10 11
M  V30 11 2 11 12
M  V30 12 1 12 13
M  V30 13 2 13 14
M  V30 14 1 14 15
M  V30 15 1 15 16
M  V30 16 1 16 17
M  V30 17 1 17 18
M  V30 18 2 18 19
M  V30 19 1 19 20
M  V30 20 2 20 21
M  V30 21 1 21 22
M  V30 22 1 22 23
M  V30 23 2 22 24
M  V30 24 2 15 25
M  V30 25 1 10 26
M  V30 26 2 26 27
M  V30 27 1 27 28
M  V30 28 2 28 29
M  V30 29 1 29 30
M  V30 30 1 6 31
M  V30 31 1 31 2
M  V30 32 1 30 7
M  V30 33 1 29 9
M  V30 34 1 25 11
M  V30 35 1 24 18
M  V30 36 1 1 32
M  V30 37 1 1 33
M  V30 38 1 2 34
M  V30 39 1 3 35
M  V30 40 1 3 36
M  V30 41 1 4 37
M  V30 42 1 4 38
M  V30 43 1 5 39
M  V30 44 1 5 40
M  V30 45 1 6 41
M  V30 46 1 8 42
M  V30 47 1 12 43
M  V30 48 1 13 44
M  V30 49 1 14 45
M  V30 50 1 16 46
M  V30 51 1 17 47
M  V30 52 1 17 48
M  V30 53 1 19 49
M  V30 54 1 20 50
M  V30 55 1 21 51
M  V30 56 1 24 52
M  V30 57 1 26 53
M  V30 58 1 27 54
M  V30 59 1 30 55
M  V30 60 1 31 56
M  V30 61 1 31 57
M  V30 END BOND
M  V30 END CTAB
M  END
>  <Dataset>  (832) 
ChEMBL_Kinases

>  <Ligand_Instance>  (832) 
nan

>  <PDB_ID>  (832) 
nan

>  <Standardized_SMILES>  (832) 
NC1CCCC(c2cc3c(-c4cccc(NCc5cccc(F)c5)n4)ccnc3[nH]2)C1

>  <Name>  (832) 
nan

>  <Pocket>  (832) 
nan

>  <ATP_Site>  (832) 
nan

>  <Peripheral>  (832) 
nan

>  <Num_H_Atoms_ProtBoundConf>  (832) 
nan

>  <Num_Resolved_Atoms>  (832) 
nan

>  <Num_Not_Resolved_Atoms>  (832) 
nan

$$$$
CHEMBL3673493
     RDKit          3D

  0  0  0  0  0  0  0  0  0  0999 V3000
M  V30 BEGIN CTAB
M  V30 COUNTS 54 58 0 0 0
M  V30 BEGIN ATOM
M  V30 1 F 6.009935 -4.403142 0.279410 0
M  V30 2 C 5.598203 -3.561865 -0.693566 0
M  V30 3 C 5.209418 -4.029919 -1.924021 0
M  V30 4 C 4.802187 -3.109291 -2.864235 0
M  V30 5 C 4.788706 -1.760225 -2.569041 0
M  V30 6 C 5.182804 -1.271313 -1.317636 0
M  V30 7 C 5.110443 0.199105 -1.177789 0
M  V30 8 N 3.824976 0.650486 -0.736320 0
M  V30 9 C 3.072187 0.409685 0.434948 0
M  V30 10 C 1.804469 0.934913 0.718244 0
M  V30 11 C 1.222961 0.597358 1.902511 0
M  V30 12 C -0.094013 1.189266 2.113550 0
M  V30 13 C -0.034718 2.428404 2.752911 0
M  V30 14 C -1.236143 3.076357 3.000528 0
M  V30 15 N -2.419478 2.549727 2.647155 0
M  V30 16 C -2.484316 1.345424 2.025263 0
M  V30 17 N -3.466516 0.538955 1.542494 0
M  V30 18 C -2.956542 -0.570623 1.009614 0
M  V30 19 C -3.781821 -1.648147 0.398378 0
M  V30 20 C -4.557928 -1.183850 -0.788375 0
M  V30 21 C -5.930476 -0.668087 -0.502473 0
M  V30 22 N -6.587698 -1.239883 0.624965 0
M  V30 23 C -6.051094 -2.515537 1.011364 0
M  V30 24 C -4.632167 -2.278896 1.468520 0
M  V30 25 C -1.572805 -0.508786 1.138923 0
M  V30 26 C -1.327944 0.676901 1.764098 0
M  V30 27 C 1.777774 -0.225685 2.859256 0
M  V30 28 Cl 0.970634 -0.608548 4.345743 0
M  V30 29 C 3.020584 -0.691445 2.492071 0
M  V30 30 N 3.645553 -0.395750 1.341666 0
M  V30 31 C 5.581495 -2.220847 -0.409794 0
M  V30 32 H 5.247196 -5.092712 -2.077834 0
M  V30 33 H 4.503368 -3.512373 -3.819787 0
M  V30 34 H 4.447248 -1.150032 -3.397464 0
M  V30 35 H 5.438944 0.715956 -2.087208 0
M  V30 36 H 5.852800 0.468672 -0.374068 0
M  V30 37 H 3.307405 1.295374 -1.397131 0
M  V30 38 H 1.378237 1.575022 -0.031356 0
M  V30 39 H 0.879552 2.917679 3.067840 0
M  V30 40 H -1.202271 4.051283 3.502876 0
M  V30 41 H -4.498304 0.789954 1.598458 0
M  V30 42 H -3.069038 -2.432657 0.057210 0
M  V30 43 H -4.625380 -2.018100 -1.516260 0
M  V30 44 H -3.945234 -0.402874 -1.301583 0
M  V30 45 H -5.946212 0.443510 -0.373569 0
M  V30 46 H -6.600829 -0.846494 -1.389661 0
M  V30 47 H -6.811925 -0.598157 1.389668 0
M  V30 48 H -6.622303 -2.940273 1.842158 0
M  V30 49 H -5.989098 -3.150447 0.107811 0
M  V30 50 H -4.662540 -1.640496 2.371635 0
M  V30 51 H -4.241994 -3.260230 1.808035 0
M  V30 52 H -0.867588 -1.258906 0.804088 0
M  V30 53 H 3.545913 -1.358463 3.194110 0
M  V30 54 H 5.884346 -1.823433 0.542370 0
M  V30 END ATOM
M  V30 BEGIN BOND
M  V30 1 1 1 2
M  V30 2 2 2 3
M  V30 3 1 3 4
M  V30 4 2 4 5
M  V30 5 1 5 6
M  V30 6 1 6 7
M  V30 7 1 7 8
M  V30 8 1 8 9
M  V30 9 2 9 10
M  V30 10 1 10 11
M  V30 11 1 11 12
M  V30 12 2 12 13
M  V30 13 1 13 14
M  V30 14 2 14 15
M  V30 15 1 15 16
M  V30 16 1 16 17
M  V30 17 1 17 18
M  V30 18 1 18 19
M  V30 19 1 19 20
M  V30 20 1 20 21
M  V30 21 1 21 22
M  V30 22 1 22 23
M  V30 23 1 23 24
M  V30 24 2 18 25
M  V30 25 1 25 26
M  V30 26 2 11 27
M  V30 27 1 27 28
M  V30 28 1 27 29
M  V30 29 2 29 30
M  V30 30 2 6 31
M  V30 31 1 31 2
M  V30 32 1 30 9
M  V30 33 1 26 12
M  V30 34 2 26 16
M  V30 35 1 24 19
M  V30 36 1 3 32
M  V30 37 1 4 33
M  V30 38 1 5 34
M  V30 39 1 7 35
M  V30 40 1 7 36
M  V30 41 1 8 37
M  V30 42 1 10 38
M  V30 43 1 13 39
M  V30 44 1 14 40
M  V30 45 1 17 41
M  V30 46 1 19 42
M  V30 47 1 20 43
M  V30 48 1 20 44
M  V30 49 1 21 45
M  V30 50 1 21 46
M  V30 51 1 22 47
M  V30 52 1 23 48
M  V30 53 1 23 49
M  V30 54 1 24 50
M  V30 55 1 24 51
M  V30 56 1 25 52
M  V30 57 1 29 53
M  V30 58 1 31 54
M  V30 END BOND
M  V30 END CTAB
M  END
>  <Dataset>  (833) 
ChEMBL_Kinases

>  <Ligand_Instance>  (833) 
nan

>  <PDB_ID>  (833) 
nan

>  <Standardized_SMILES>  (833) 
Fc1cccc(CNc2cc(-c3ccnc4[nH]c(C5CCNCC5)cc34)c(Cl)cn2)c1

>  <Name>  (833) 
nan

>  <Pocket>  (833) 
nan

>  <ATP_Site>  (833) 
nan

>  <Peripheral>  (833) 
nan

>  <Num_H_Atoms_ProtBoundConf>  (833) 
nan

>  <Num_Resolved_Atoms>  (833) 
nan

>  <Num_Not_Resolved_Atoms>  (833) 
nan

$$$$
CHEMBL3673541
     RDKit          3D

  0  0  0  0  0  0  0  0  0  0999 V3000
M  V30 BEGIN CTAB
M  V30 COUNTS 57 61 0 0 0
M  V30 BEGIN ATOM
M  V30 1 C 5.343496 -3.433439 -1.445958 0
M  V30 2 N 3.912644 -3.368992 -1.222592 0
M  V30 3 C 3.463167 -3.960424 -0.009785 0
M  V30 4 O 4.411197 -4.455969 0.688199 0
M  V30 5 N 2.095454 -3.991943 0.377660 0
M  V30 6 C 0.903696 -3.483364 -0.287139 0
M  V30 7 C 0.348318 -2.421455 0.615857 0
M  V30 8 C 0.459417 -2.523213 1.930876 0
M  V30 9 C -0.099333 -1.460701 2.759325 0
M  V30 10 C -0.751603 -0.327379 2.303475 0
M  V30 11 C -1.147137 0.460853 3.363203 0
M  V30 12 C -1.812523 1.661255 3.485005 0
M  V30 13 C -2.266151 2.383615 2.304592 0
M  V30 14 C -2.932310 3.585144 2.409907 0
M  V30 15 N -3.340503 4.231490 1.303513 0
M  V30 16 C -3.140727 3.778141 0.061539 0
M  V30 17 C -2.465795 2.559731 -0.059760 0
M  V30 18 O -2.222412 2.027104 -1.317830 0
M  V30 19 C -1.547616 0.811331 -1.410581 0
M  V30 20 C -1.357565 0.361374 -2.827599 0
M  V30 21 C -2.324600 -0.430564 -3.424906 0
M  V30 22 C -2.317544 -0.933509 -4.709438 0
M  V30 23 C -1.211188 -0.593154 -5.459209 0
M  V30 24 C -0.203462 0.199414 -4.919519 0
M  V30 25 F 0.891685 0.538065 -5.657463 0
M  V30 26 C -0.260433 0.677334 -3.625640 0
M  V30 27 N -2.074743 1.944551 1.051868 0
M  V30 28 C -2.001642 2.097476 4.776099 0
M  V30 29 C -1.578405 1.424278 5.894298 0
M  V30 30 N -0.924431 0.241212 5.730906 0
M  V30 31 C -0.714995 -0.228597 4.476684 0
M  V30 32 N -0.096572 -1.364093 4.102611 0
M  V30 33 C 1.124057 -3.664031 2.618167 0
M  V30 34 C 1.751873 -4.617761 1.631141 0
M  V30 35 H 5.587483 -2.648598 -2.183485 0
M  V30 36 H 5.889654 -3.170515 -0.497731 0
M  V30 37 H 5.674506 -4.431400 -1.804759 0
M  V30 38 H 3.170552 -2.942632 -1.840738 0
M  V30 39 H 1.143133 -3.070333 -1.280527 0
M  V30 40 H 0.147113 -4.275595 -0.420112 0
M  V30 41 H -0.133405 -1.595148 0.116519 0
M  V30 42 H -0.917783 -0.107997 1.270059 0
M  V30 43 H -3.153772 4.054901 3.357475 0
M  V30 44 H -3.476281 4.312222 -0.812754 0
M  V30 45 H -0.550955 0.804014 -0.923744 0
M  V30 46 H -2.163877 0.035200 -0.923426 0
M  V30 47 H -3.195043 -0.685852 -2.803389 0
M  V30 48 H -3.141504 -1.540708 -5.047386 0
M  V30 49 H -1.153456 -0.960692 -6.474365 0
M  V30 50 H 0.499387 1.296066 -3.164698 0
M  V30 51 H -2.506663 3.015585 4.966776 0
M  V30 52 H -1.747124 1.801898 6.893809 0
M  V30 53 H 0.326092 -2.074220 4.719882 0
M  V30 54 H 0.359454 -4.207682 3.222900 0
M  V30 55 H 1.856693 -3.279657 3.355279 0
M  V30 56 H 2.623375 -5.138609 2.073898 0
M  V30 57 H 1.011122 -5.427776 1.384104 0
M  V30 END ATOM
M  V30 BEGIN BOND
M  V30 1 1 1 2
M  V30 2 1 2 3
M  V30 3 2 3 4
M  V30 4 1 3 5
M  V30 5 1 5 6
M  V30 6 1 6 7
M  V30 7 2 7 8
M  V30 8 1 8 9
M  V30 9 2 9 10
M  V30 10 1 10 11
M  V30 11 2 11 12
M  V30 12 1 12 13
M  V30 13 2 13 14
M  V30 14 1 14 15
M  V30 15 2 15 16
M  V30 16 1 16 17
M  V30 17 1 17 18
M  V30 18 1 18 19
M  V30 19 1 19 20
M  V30 20 2 20 21
M  V30 21 1 21 22
M  V30 22 2 22 23
M  V30 23 1 23 24
M  V30 24 1 24 25
M  V30 25 2 24 26
M  V30 26 2 17 27
M  V30 27 1 12 28
M  V30 28 2 28 29
M  V30 29 1 29 30
M  V30 30 2 30 31
M  V30 31 1 31 32
M  V30 32 1 8 33
M  V30 33 1 33 34
M  V30 34 1 34 5
M  V30 35 1 32 9
M  V30 36 1 31 11
M  V30 37 1 27 13
M  V30 38 1 26 20
M  V30 39 1 1 35
M  V30 40 1 1 36
M  V30 41 1 1 37
M  V30 42 1 2 38
M  V30 43 1 6 39
M  V30 44 1 6 40
M  V30 45 1 7 41
M  V30 46 1 10 42
M  V30 47 1 14 43
M  V30 48 1 16 44
M  V30 49 1 19 45
M  V30 50 1 19 46
M  V30 51 1 21 47
M  V30 52 1 22 48
M  V30 53 1 23 49
M  V30 54 1 26 50
M  V30 55 1 28 51
M  V30 56 1 29 52
M  V30 57 1 32 53
M  V30 58 1 33 54
M  V30 59 1 33 55
M  V30 60 1 34 56
M  V30 61 1 34 57
M  V30 END BOND
M  V30 END CTAB
M  END
>  <Dataset>  (834) 
ChEMBL_Kinases

>  <Ligand_Instance>  (834) 
nan

>  <PDB_ID>  (834) 
nan

>  <Standardized_SMILES>  (834) 
CNC(=O)N1CC=C(c2cc3c(-c4cncc(OCc5cccc(F)c5)n4)ccnc3[nH]2)CC1

>  <Name>  (834) 
nan

>  <Pocket>  (834) 
nan

>  <ATP_Site>  (834) 
nan

>  <Peripheral>  (834) 
nan

>  <Num_H_Atoms_ProtBoundConf>  (834) 
nan

>  <Num_Resolved_Atoms>  (834) 
nan

>  <Num_Not_Resolved_Atoms>  (834) 
nan

$$$$
CHEMBL3672550
     RDKit          3D

  0  0  0  0  0  0  0  0  0  0999 V3000
M  V30 BEGIN CTAB
M  V30 COUNTS 53 58 0 0 0
M  V30 BEGIN ATOM
M  V30 1 N 8.651526 0.330004 0.184205 0
M  V30 2 C 7.736561 -0.368792 0.237198 0
M  V30 3 C 6.592275 -1.226402 0.323386 0
M  V30 4 C 6.791566 -2.605028 0.345591 0
M  V30 5 C 5.702241 -3.432802 0.427729 0
M  V30 6 C 4.427866 -2.897206 0.487160 0
M  V30 7 C 4.255690 -1.516237 0.463379 0
M  V30 8 C 5.338892 -0.672109 0.381285 0
M  V30 9 N 4.840734 0.590655 0.378990 0
M  V30 10 N 3.520755 0.549773 0.455307 0
M  V30 11 C 2.572069 1.505687 0.486794 0
M  V30 12 C 1.232891 1.172160 0.571797 0
M  V30 13 C 0.143424 2.142131 0.612155 0
M  V30 14 C -0.745887 2.059940 -0.447869 0
M  V30 15 C -1.798608 2.947817 -0.471801 0
M  V30 16 C -2.043535 3.913637 0.471129 0
M  V30 17 C -1.128368 3.966123 1.521823 0
M  V30 18 C -0.063042 3.102475 1.589583 0
M  V30 19 C 0.874841 -0.176396 0.624726 0
M  V30 20 C -0.496974 -0.668631 0.717049 0
M  V30 21 C -1.341792 -0.425183 1.789285 0
M  V30 22 C -2.618765 -0.952574 1.746348 0
M  V30 23 C -3.053766 -1.702094 0.672759 0
M  V30 24 C -4.440033 -2.219429 0.732447 0
M  V30 25 N -5.414843 -1.285531 1.272049 0
M  V30 26 C -4.917022 -3.026810 -0.431868 0
M  V30 27 C -4.358088 -4.256346 0.202196 0
M  V30 28 C -4.465027 -3.521249 1.543613 0
M  V30 29 C -2.205998 -1.939100 -0.389714 0
M  V30 30 C -0.916649 -1.424612 -0.379644 0
M  V30 31 N 1.820445 -1.135192 0.593367 0
M  V30 32 C 3.101585 -0.727887 0.510059 0
M  V30 33 H 7.784431 -3.046089 0.299708 0
M  V30 34 H 5.761109 -4.527091 0.451220 0
M  V30 35 H 3.568300 -3.552243 0.551812 0
M  V30 36 H 2.823734 2.565674 0.447149 0
M  V30 37 H -0.702967 1.364694 -1.269203 0
M  V30 38 H -2.536182 2.929906 -1.288097 0
M  V30 39 H -2.877503 4.596619 0.426512 0
M  V30 40 H -1.223014 4.676647 2.307741 0
M  V30 41 H 0.664987 3.112394 2.385861 0
M  V30 42 H -0.945024 0.175874 2.614667 0
M  V30 43 H -3.241011 -0.745445 2.587328 0
M  V30 44 H -5.088981 -0.331465 0.990751 0
M  V30 45 H -5.281614 -1.319558 2.326649 0
M  V30 46 H -6.038037 -3.050931 -0.436737 0
M  V30 47 H -4.564393 -2.731941 -1.422785 0
M  V30 48 H -3.322221 -4.527146 -0.087806 0
M  V30 49 H -5.043103 -5.132996 0.227995 0
M  V30 50 H -3.527387 -3.701579 2.106289 0
M  V30 51 H -5.394011 -3.711283 2.092440 0
M  V30 52 H -2.537179 -2.519006 -1.224400 0
M  V30 53 H -0.288831 -1.639808 -1.240006 0
M  V30 END ATOM
M  V30 BEGIN BOND
M  V30 1 3 1 2
M  V30 2 1 2 3
M  V30 3 2 3 4
M  V30 4 1 4 5
M  V30 5 2 5 6
M  V30 6 1 6 7
M  V30 7 1 7 8
M  V30 8 2 8 9
M  V30 9 1 9 10
M  V30 10 1 10 11
M  V30 11 2 11 12
M  V30 12 1 12 13
M  V30 13 2 13 14
M  V30 14 1 14 15
M  V30 15 2 15 16
M  V30 16 1 16 17
M  V30 17 2 17 18
M  V30 18 1 12 19
M  V30 19 1 19 20
M  V30 20 2 20 21
M  V30 21 1 21 22
M  V30 22 2 22 23
M  V30 23 1 23 24
M  V30 24 1 24 25
M  V30 25 1 24 26
M  V30 26 1 26 27
M  V30 27 1 27 28
M  V30 28 1 23 29
M  V30 29 2 29 30
M  V30 30 2 19 31
M  V30 31 1 31 32
M  V30 32 1 8 3
M  V30 33 1 32 10
M  V30 34 2 32 7
M  V30 35 1 18 13
M  V30 36 1 30 20
M  V30 37 1 28 24
M  V30 38 1 4 33
M  V30 39 1 5 34
M  V30 40 1 6 35
M  V30 41 1 11 36
M  V30 42 1 14 37
M  V30 43 1 15 38
M  V30 44 1 16 39
M  V30 45 1 17 40
M  V30 46 1 18 41
M  V30 47 1 21 42
M  V30 48 1 22 43
M  V30 49 1 25 44
M  V30 50 1 25 45
M  V30 51 1 26 46
M  V30 52 1 26 47
M  V30 53 1 27 48
M  V30 54 1 27 49
M  V30 55 1 28 50
M  V30 56 1 28 51
M  V30 57 1 29 52
M  V30 58 1 30 53
M  V30 END BOND
M  V30 END CTAB
M  END
>  <Dataset>  (835) 
ChEMBL_Kinases

>  <Ligand_Instance>  (835) 
nan

>  <PDB_ID>  (835) 
nan

>  <Standardized_SMILES>  (835) 
N#Cc1cccc2c1nn1cc(-c3ccccc3)c(-c3ccc(C4(N)CCC4)cc3)nc21

>  <Name>  (835) 
nan

>  <Pocket>  (835) 
nan

>  <ATP_Site>  (835) 
nan

>  <Peripheral>  (835) 
nan

>  <Num_H_Atoms_ProtBoundConf>  (835) 
nan

>  <Num_Resolved_Atoms>  (835) 
nan

>  <Num_Not_Resolved_Atoms>  (835) 
nan

$$$$
CHEMBL3672551
     RDKit          3D

  0  0  0  0  0  0  0  0  0  0999 V3000
M  V30 BEGIN CTAB
M  V30 COUNTS 58 63 0 0 0
M  V30 BEGIN ATOM
M  V30 1 C 5.765300 5.610691 0.493145 0
M  V30 2 O 5.182392 4.403048 0.872260 0
M  V30 3 C 5.650381 3.552435 1.835649 0
M  V30 4 O 6.607906 4.337154 2.047535 0
M  V30 5 C 5.069925 2.284331 2.259589 0
M  V30 6 C 5.735787 1.608319 3.260594 0
M  V30 7 C 5.200852 0.407312 3.676107 0
M  V30 8 C 4.060102 -0.073457 3.107275 0
M  V30 9 C 3.453448 0.661623 2.111928 0
M  V30 10 C 3.914061 1.873349 1.629951 0
M  V30 11 N 3.107725 2.320392 0.677320 0
M  V30 12 N 2.105901 1.442442 0.496350 0
M  V30 13 C 1.038667 1.444299 -0.351442 0
M  V30 14 C 0.168100 0.360671 -0.283921 0
M  V30 15 C -0.961902 0.387195 -1.198329 0
M  V30 16 C -1.902230 1.419068 -1.126856 0
M  V30 17 C -3.003702 1.507056 -1.966502 0
M  V30 18 C -3.162864 0.516267 -2.914608 0
M  V30 19 C -2.256003 -0.516279 -3.014356 0
M  V30 20 C -1.153833 -0.590414 -2.162674 0
M  V30 21 C 0.345512 -0.695311 0.595519 0
M  V30 22 C -0.608906 -1.790737 0.604456 0
M  V30 23 C -1.891573 -1.462509 0.942583 0
M  V30 24 C -2.915697 -2.393940 0.996666 0
M  V30 25 C -2.657715 -3.717391 0.701234 0
M  V30 26 C -3.601684 -4.855495 0.699467 0
M  V30 27 N -3.016244 -5.984986 1.396591 0
M  V30 28 C -5.028495 -4.581100 1.054039 0
M  V30 29 C -5.341997 -4.609269 -0.433034 0
M  V30 30 C -4.024149 -5.303632 -0.692324 0
M  V30 31 C -1.348403 -4.076512 0.351745 0
M  V30 32 C -0.354793 -3.120512 0.308757 0
M  V30 33 N 1.431532 -0.648454 1.424143 0
M  V30 34 C 2.291128 0.413685 1.362923 0
M  V30 35 H 5.700821 6.399274 1.267996 0
M  V30 36 H 5.272046 5.941691 -0.465082 0
M  V30 37 H 6.820599 5.430851 0.208240 0
M  V30 38 H 6.637985 1.991945 3.708192 0
M  V30 39 H 5.726102 -0.121234 4.462437 0
M  V30 40 H 3.689128 -1.009956 3.467860 0
M  V30 41 H 0.864716 2.246483 -1.050634 0
M  V30 42 H -1.813191 2.226051 -0.388445 0
M  V30 43 H -3.704376 2.337242 -1.862873 0
M  V30 44 H -4.006340 0.537552 -3.595262 0
M  V30 45 H -2.436384 -1.271750 -3.786217 0
M  V30 46 H -0.444703 -1.417687 -2.257005 0
M  V30 47 H -2.196427 -0.459275 1.190479 0
M  V30 48 H -3.922096 -2.184369 1.253178 0
M  V30 49 H -2.474842 -6.559587 0.695200 0
M  V30 50 H -3.707978 -6.591471 1.860575 0
M  V30 51 H -5.481237 -5.492778 1.519065 0
M  V30 52 H -5.273086 -3.672482 1.598924 0
M  V30 53 H -6.174421 -5.283040 -0.712993 0
M  V30 54 H -5.397808 -3.592225 -0.835014 0
M  V30 55 H -3.393169 -4.814139 -1.452196 0
M  V30 56 H -4.066477 -6.379822 -0.849498 0
M  V30 57 H -1.054806 -5.090828 0.104500 0
M  V30 58 H 0.682019 -3.337634 0.044060 0
M  V30 END ATOM
M  V30 BEGIN BOND
M  V30 1 1 1 2
M  V30 2 1 2 3
M  V30 3 2 3 4
M  V30 4 1 3 5
M  V30 5 2 5 6
M  V30 6 1 6 7
M  V30 7 2 7 8
M  V30 8 1 8 9
M  V30 9 1 9 10
M  V30 10 2 10 11
M  V30 11 1 11 12
M  V30 12 1 12 13
M  V30 13 2 13 14
M  V30 14 1 14 15
M  V30 15 2 15 16
M  V30 16 1 16 17
M  V30 17 2 17 18
M  V30 18 1 18 19
M  V30 19 2 19 20
M  V30 20 1 14 21
M  V30 21 1 21 22
M  V30 22 2 22 23
M  V30 23 1 23 24
M  V30 24 2 24 25
M  V30 25 1 25 26
M  V30 26 1 26 27
M  V30 27 1 26 28
M  V30 28 1 28 29
M  V30 29 1 29 30
M  V30 30 1 25 31
M  V30 31 2 31 32
M  V30 32 2 21 33
M  V30 33 1 33 34
M  V30 34 1 10 5
M  V30 35 1 34 12
M  V30 36 2 34 9
M  V30 37 1 20 15
M  V30 38 1 32 22
M  V30 39 1 30 26
M  V30 40 1 1 35
M  V30 41 1 1 36
M  V30 42 1 1 37
M  V30 43 1 6 38
M  V30 44 1 7 39
M  V30 45 1 8 40
M  V30 46 1 13 41
M  V30 47 1 16 42
M  V30 48 1 17 43
M  V30 49 1 18 44
M  V30 50 1 19 45
M  V30 51 1 20 46
M  V30 52 1 23 47
M  V30 53 1 24 48
M  V30 54 1 27 49
M  V30 55 1 27 50
M  V30 56 1 28 51
M  V30 57 1 28 52
M  V30 58 1 29 53
M  V30 59 1 29 54
M  V30 60 1 30 55
M  V30 61 1 30 56
M  V30 62 1 31 57
M  V30 63 1 32 58
M  V30 END BOND
M  V30 END CTAB
M  END
>  <Dataset>  (836) 
ChEMBL_Kinases

>  <Ligand_Instance>  (836) 
nan

>  <PDB_ID>  (836) 
nan

>  <Standardized_SMILES>  (836) 
COC(=O)c1cccc2c1nn1cc(-c3ccccc3)c(-c3ccc(C4(N)CCC4)cc3)nc21

>  <Name>  (836) 
nan

>  <Pocket>  (836) 
nan

>  <ATP_Site>  (836) 
nan

>  <Peripheral>  (836) 
nan

>  <Num_H_Atoms_ProtBoundConf>  (836) 
nan

>  <Num_Resolved_Atoms>  (836) 
nan

>  <Num_Not_Resolved_Atoms>  (836) 
nan

$$$$
CHEMBL3672552
     RDKit          3D

  0  0  0  0  0  0  0  0  0  0999 V3000
M  V30 BEGIN CTAB
M  V30 COUNTS 53 58 0 0 0
M  V30 BEGIN ATOM
M  V30 1 N -3.847366 -1.173573 4.458894 0
M  V30 2 C -4.056830 -0.830961 3.066300 0
M  V30 3 C -2.826911 -0.640944 2.275510 0
M  V30 4 C -2.497475 0.300339 1.320898 0
M  V30 5 C -1.259143 0.267948 0.713630 0
M  V30 6 C -0.305717 -0.697626 1.031347 0
M  V30 7 C 0.914820 -0.530152 0.264981 0
M  V30 8 N 1.633611 0.620465 0.378291 0
M  V30 9 C 2.775531 0.819766 -0.318058 0
M  V30 10 C 3.687969 1.869119 -0.395668 0
M  V30 11 C 3.636224 3.070939 0.286964 0
M  V30 12 C 4.684581 3.932167 0.012127 0
M  V30 13 C 5.682692 3.585295 -0.876936 0
M  V30 14 C 5.689864 2.362297 -1.539527 0
M  V30 15 O 6.688822 2.020394 -2.426514 0
M  V30 16 C 4.660734 1.475011 -1.292232 0
M  V30 17 N 4.347410 0.248004 -1.731811 0
M  V30 18 N 3.210888 -0.164489 -1.153911 0
M  V30 19 C 2.531584 -1.322296 -1.298837 0
M  V30 20 C 1.370119 -1.520939 -0.588422 0
M  V30 21 C 0.655720 -2.766844 -0.753769 0
M  V30 22 C 1.461885 -3.847896 -0.381768 0
M  V30 23 C 1.000630 -5.165092 -0.449987 0
M  V30 24 C -0.278460 -5.386938 -0.895434 0
M  V30 25 C -1.075512 -4.324465 -1.262684 0
M  V30 26 C -0.626237 -3.019351 -1.197933 0
M  V30 27 C -0.629101 -1.637148 1.981393 0
M  V30 28 C -1.869945 -1.607365 2.592057 0
M  V30 29 C -5.098770 -1.724270 2.402106 0
M  V30 30 C -5.705222 -0.474071 1.811199 0
M  V30 31 C -5.059484 0.295258 2.964128 0
M  V30 32 H -4.280082 -0.486622 5.099165 0
M  V30 33 H -4.111780 -2.160909 4.655921 0
M  V30 34 H -3.285910 0.997933 1.141582 0
M  V30 35 H -1.160362 1.084770 -0.018651 0
M  V30 36 H 2.850992 3.308506 0.967674 0
M  V30 37 H 4.695265 4.889852 0.519425 0
M  V30 38 H 6.478161 4.302537 -1.051362 0
M  V30 39 H 6.605125 2.148092 -3.435724 0
M  V30 40 H 2.906535 -2.100742 -1.981496 0
M  V30 41 H 2.494171 -3.804183 -0.012078 0
M  V30 42 H 1.580566 -6.017485 -0.176913 0
M  V30 43 H -0.658965 -6.384397 -0.958592 0
M  V30 44 H -2.081499 -4.445492 -1.616835 0
M  V30 45 H -1.148091 -2.116910 -1.453600 0
M  V30 46 H 0.160937 -2.343052 2.166068 0
M  V30 47 H -1.974299 -2.406570 3.312650 0
M  V30 48 H -5.783833 -2.151210 3.148774 0
M  V30 49 H -4.624444 -2.416066 1.686378 0
M  V30 50 H -6.815472 -0.412193 1.843295 0
M  V30 51 H -5.343512 -0.186877 0.808061 0
M  V30 52 H -4.678032 1.264710 2.586877 0
M  V30 53 H -5.736315 0.389741 3.840649 0
M  V30 END ATOM
M  V30 BEGIN BOND
M  V30 1 1 1 2
M  V30 2 1 2 3
M  V30 3 2 3 4
M  V30 4 1 4 5
M  V30 5 2 5 6
M  V30 6 1 6 7
M  V30 7 2 7 8
M  V30 8 1 8 9
M  V30 9 2 9 10
M  V30 10 1 10 11
M  V30 11 2 11 12
M  V30 12 1 12 13
M  V30 13 2 13 14
M  V30 14 1 14 15
M  V30 15 1 14 16
M  V30 16 2 16 17
M  V30 17 1 17 18
M  V30 18 1 18 19
M  V30 19 2 19 20
M  V30 20 1 20 21
M  V30 21 2 21 22
M  V30 22 1 22 23
M  V30 23 2 23 24
M  V30 24 1 24 25
M  V30 25 2 25 26
M  V30 26 1 6 27
M  V30 27 2 27 28
M  V30 28 1 2 29
M  V30 29 1 29 30
M  V30 30 1 30 31
M  V30 31 1 31 2
M  V30 32 1 28 3
M  V30 33 1 20 7
M  V30 34 1 26 21
M  V30 35 1 18 9
M  V30 36 1 16 10
M  V30 37 1 1 32
M  V30 38 1 1 33
M  V30 39 1 4 34
M  V30 40 1 5 35
M  V30 41 1 11 36
M  V30 42 1 12 37
M  V30 43 1 13 38
M  V30 44 1 15 39
M  V30 45 1 19 40
M  V30 46 1 22 41
M  V30 47 1 23 42
M  V30 48 1 24 43
M  V30 49 1 25 44
M  V30 50 1 26 45
M  V30 51 1 27 46
M  V30 52 1 28 47
M  V30 53 1 29 48
M  V30 54 1 29 49
M  V30 55 1 30 50
M  V30 56 1 30 51
M  V30 57 1 31 52
M  V30 58 1 31 53
M  V30 END BOND
M  V30 END CTAB
M  END
>  <Dataset>  (837) 
ChEMBL_Kinases

>  <Ligand_Instance>  (837) 
nan

>  <PDB_ID>  (837) 
nan

>  <Standardized_SMILES>  (837) 
NC1(c2ccc(-c3nc4c5cccc(O)c5nn4cc3-c3ccccc3)cc2)CCC1

>  <Name>  (837) 
nan

>  <Pocket>  (837) 
nan

>  <ATP_Site>  (837) 
nan

>  <Peripheral>  (837) 
nan

>  <Num_H_Atoms_ProtBoundConf>  (837) 
nan

>  <Num_Resolved_Atoms>  (837) 
nan

>  <Num_Not_Resolved_Atoms>  (837) 
nan

$$$$
CHEMBL3672553
     RDKit          3D

  0  0  0  0  0  0  0  0  0  0999 V3000
M  V30 BEGIN CTAB
M  V30 COUNTS 60 65 0 0 0
M  V30 BEGIN ATOM
M  V30 1 N 2.376051 0.277886 8.467463 0
M  V30 2 C 2.051428 0.852199 7.211046 0
M  V30 3 O 2.234211 2.096003 7.229239 0
M  V30 4 C 1.571217 0.158825 6.027919 0
M  V30 5 C 1.350334 -1.134206 5.923509 0
M  V30 6 C 0.872695 -1.870727 4.766667 0
M  V30 7 C 0.687677 -3.239911 4.836781 0
M  V30 8 C 0.242228 -3.988030 3.785475 0
M  V30 9 C -0.052708 -3.403818 2.572099 0
M  V30 10 C 0.117299 -2.042450 2.457897 0
M  V30 11 C 0.568977 -1.322846 3.543108 0
M  V30 12 N 0.619484 -0.065991 3.099096 0
M  V30 13 N 0.240261 0.048419 1.841834 0
M  V30 14 C 0.172918 1.167983 1.090115 0
M  V30 15 C -0.260724 1.035615 -0.220494 0
M  V30 16 C -0.324438 2.258746 -1.013300 0
M  V30 17 C -1.546575 2.716159 -1.513459 0
M  V30 18 C -1.532723 3.885961 -2.258296 0
M  V30 19 C -0.428409 4.632561 -2.547320 0
M  V30 20 C 0.788683 4.165890 -2.042050 0
M  V30 21 C 0.812176 3.003511 -1.295518 0
M  V30 22 C -0.601257 -0.211782 -0.699756 0
M  V30 23 C -1.055955 -0.329125 -2.081242 0
M  V30 24 C -2.292192 -0.793315 -2.480335 0
M  V30 25 C -2.620441 -0.861884 -3.817829 0
M  V30 26 C -1.730417 -0.470289 -4.823514 0
M  V30 27 C -2.282074 -0.625271 -6.179205 0
M  V30 28 N -3.149782 -1.787044 -6.312505 0
M  V30 29 C -3.033690 0.605838 -6.692531 0
M  V30 30 C -2.094363 0.711912 -7.869904 0
M  V30 31 C -1.340044 -0.488478 -7.332656 0
M  V30 32 C -0.504450 -0.010561 -4.410680 0
M  V30 33 C -0.182375 0.055687 -3.072920 0
M  V30 34 N -0.507123 -1.292840 0.118177 0
M  V30 35 C -0.088784 -1.187457 1.393315 0
M  V30 36 H 1.483772 -0.215409 8.697639 0
M  V30 37 H 1.573436 -0.266604 8.853542 0
M  V30 38 H 1.377370 0.757584 5.153510 0
M  V30 39 H 1.562308 -1.683082 6.831734 0
M  V30 40 H 0.895223 -3.780169 5.752593 0
M  V30 41 H 0.110444 -5.064334 3.883564 0
M  V30 42 H -0.405917 -3.982196 1.730630 0
M  V30 43 H 0.446492 2.136782 1.492670 0
M  V30 44 H -2.466724 2.177943 -1.325965 0
M  V30 45 H -2.515613 4.197466 -2.624368 0
M  V30 46 H -0.458222 5.538045 -3.130734 0
M  V30 47 H 1.667129 4.751556 -2.267523 0
M  V30 48 H 1.757867 2.639658 -0.902214 0
M  V30 49 H -2.959313 -1.088320 -1.679665 0
M  V30 50 H -3.626483 -1.245149 -4.010057 0
M  V30 51 H -2.815995 -2.590994 -5.750146 0
M  V30 52 H -3.186107 -2.043622 -7.331831 0
M  V30 53 H -2.976665 1.423269 -5.956481 0
M  V30 54 H -4.074116 0.425533 -6.986803 0
M  V30 55 H -1.544238 1.687606 -7.794698 0
M  V30 56 H -2.568051 0.534138 -8.847665 0
M  V30 57 H -1.405762 -1.345012 -8.066541 0
M  V30 58 H -0.304797 -0.209236 -7.142549 0
M  V30 59 H 0.141759 0.277562 -5.223387 0
M  V30 60 H 0.803578 0.428148 -2.809489 0
M  V30 END ATOM
M  V30 BEGIN BOND
M  V30 1 1 1 2
M  V30 2 2 2 3
M  V30 3 1 2 4
M  V30 4 2 4 5
M  V30 5 1 5 6
M  V30 6 2 6 7
M  V30 7 1 7 8
M  V30 8 2 8 9
M  V30 9 1 9 10
M  V30 10 1 10 11
M  V30 11 2 11 12
M  V30 12 1 12 13
M  V30 13 1 13 14
M  V30 14 2 14 15
M  V30 15 1 15 16
M  V30 16 2 16 17
M  V30 17 1 17 18
M  V30 18 2 18 19
M  V30 19 1 19 20
M  V30 20 2 20 21
M  V30 21 1 15 22
M  V30 22 1 22 23
M  V30 23 2 23 24
M  V30 24 1 24 25
M  V30 25 2 25 26
M  V30 26 1 26 27
M  V30 27 1 27 28
M  V30 28 1 27 29
M  V30 29 1 29 30
M  V30 30 1 30 31
M  V30 31 1 26 32
M  V30 32 2 32 33
M  V30 33 2 22 34
M  V30 34 1 34 35
M  V30 35 1 11 6
M  V30 36 1 35 13
M  V30 37 2 35 10
M  V30 38 1 21 16
M  V30 39 1 33 23
M  V30 40 1 31 27
M  V30 41 1 1 36
M  V30 42 1 1 37
M  V30 43 1 4 38
M  V30 44 1 5 39
M  V30 45 1 7 40
M  V30 46 1 8 41
M  V30 47 1 9 42
M  V30 48 1 14 43
M  V30 49 1 17 44
M  V30 50 1 18 45
M  V30 51 1 19 46
M  V30 52 1 20 47
M  V30 53 1 21 48
M  V30 54 1 24 49
M  V30 55 1 25 50
M  V30 56 1 28 51
M  V30 57 1 28 52
M  V30 58 1 29 53
M  V30 59 1 29 54
M  V30 60 1 30 55
M  V30 61 1 30 56
M  V30 62 1 31 57
M  V30 63 1 31 58
M  V30 64 1 32 59
M  V30 65 1 33 60
M  V30 END BOND
M  V30 END CTAB
M  END
>  <Dataset>  (838) 
ChEMBL_Kinases

>  <Ligand_Instance>  (838) 
nan

>  <PDB_ID>  (838) 
nan

>  <Standardized_SMILES>  (838) 
NC(=O)/C=C/c1cccc2c1nn1cc(-c3ccccc3)c(-c3ccc(C4(N)CCC4)cc3)nc21

>  <Name>  (838) 
nan

>  <Pocket>  (838) 
nan

>  <ATP_Site>  (838) 
nan

>  <Peripheral>  (838) 
nan

>  <Num_H_Atoms_ProtBoundConf>  (838) 
nan

>  <Num_Resolved_Atoms>  (838) 
nan

>  <Num_Not_Resolved_Atoms>  (838) 
nan

$$$$
CHEMBL3672554
     RDKit          3D

  0  0  0  0  0  0  0  0  0  0999 V3000
M  V30 BEGIN CTAB
M  V30 COUNTS 59 65 0 0 0
M  V30 BEGIN ATOM
M  V30 1 N 3.257318 -5.995147 1.732440 0
M  V30 2 C 3.528134 -4.590432 1.937756 0
M  V30 3 C 2.407737 -3.689917 1.606740 0
M  V30 4 C 1.813707 -2.672264 2.291668 0
M  V30 5 C 0.781710 -1.960438 1.720605 0
M  V30 6 C 0.280832 -2.217305 0.434580 0
M  V30 7 C -0.804508 -1.328058 0.050901 0
M  V30 8 N -0.457530 -0.033253 0.083857 0
M  V30 9 C -1.276095 0.992068 -0.216168 0
M  V30 10 C -1.111686 2.371656 -0.237647 0
M  V30 11 C 0.007308 3.091732 0.060372 0
M  V30 12 C -0.053860 4.478857 -0.026840 0
M  V30 13 C -1.245863 5.057752 -0.411429 0
M  V30 14 C -1.350340 6.505119 -0.510984 0
M  V30 15 C -2.398754 7.301633 -0.841369 0
M  V30 16 C -2.000567 8.617911 -0.786101 0
M  V30 17 N -0.686367 8.645089 -0.416520 0
M  V30 18 N -0.331888 7.375169 -0.261609 0
M  V30 19 C -2.351153 4.284125 -0.702969 0
M  V30 20 C -2.332493 2.907801 -0.628445 0
M  V30 21 N -3.166899 1.871049 -0.824403 0
M  V30 22 N -2.543006 0.733372 -0.580451 0
M  V30 23 C -2.921776 -0.556278 -0.623697 0
M  V30 24 C -2.100092 -1.623482 -0.320159 0
M  V30 25 C -2.471308 -3.025600 -0.354812 0
M  V30 26 C -3.124981 -3.416529 0.821809 0
M  V30 27 C -3.560586 -4.728628 0.957858 0
M  V30 28 C -3.376204 -5.678230 -0.025196 0
M  V30 29 C -2.725407 -5.295483 -1.200042 0
M  V30 30 C -2.303291 -3.998462 -1.316282 0
M  V30 31 C 0.888395 -3.248322 -0.251164 0
M  V30 32 C 1.920648 -3.959647 0.324902 0
M  V30 33 C 4.796492 -4.066720 1.257479 0
M  V30 34 C 5.302366 -3.528735 2.555150 0
M  V30 35 C 4.216418 -4.368373 3.242482 0
M  V30 36 H 3.282910 -6.302473 0.757020 0
M  V30 37 H 3.814604 -6.570305 2.389656 0
M  V30 38 H 2.236903 -2.526722 3.256308 0
M  V30 39 H 0.381573 -1.163652 2.366988 0
M  V30 40 H 0.927171 2.611683 0.359265 0
M  V30 41 H 0.820986 5.054064 0.206009 0
M  V30 42 H -3.381639 6.898618 -1.101642 0
M  V30 43 H -2.659374 9.453450 -1.007554 0
M  V30 44 H 0.645193 7.075163 0.026579 0
M  V30 45 H -3.296958 4.725869 -1.010740 0
M  V30 46 H -3.947948 -0.809850 -0.916653 0
M  V30 47 H -3.344268 -2.787063 1.683892 0
M  V30 48 H -4.072278 -5.091927 1.844150 0
M  V30 49 H -3.680794 -6.706595 -0.000450 0
M  V30 50 H -2.493907 -5.915107 -2.080427 0
M  V30 51 H -1.778345 -3.578846 -2.189462 0
M  V30 52 H 0.480710 -3.403559 -1.230500 0
M  V30 53 H 2.274473 -4.733430 -0.362518 0
M  V30 54 H 4.617899 -3.258665 0.528667 0
M  V30 55 H 5.386096 -4.871034 0.766386 0
M  V30 56 H 6.336057 -3.868249 2.732331 0
M  V30 57 H 5.171922 -2.449054 2.745842 0
M  V30 58 H 4.707858 -5.266178 3.680714 0
M  V30 59 H 3.733613 -3.783104 4.023376 0
M  V30 END ATOM
M  V30 BEGIN BOND
M  V30 1 1 1 2
M  V30 2 1 2 3
M  V30 3 2 3 4
M  V30 4 1 4 5
M  V30 5 2 5 6
M  V30 6 1 6 7
M  V30 7 2 7 8
M  V30 8 1 8 9
M  V30 9 2 9 10
M  V30 10 1 10 11
M  V30 11 2 11 12
M  V30 12 1 12 13
M  V30 13 1 13 14
M  V30 14 2 14 15
M  V30 15 1 15 16
M  V30 16 2 16 17
M  V30 17 1 17 18
M  V30 18 2 13 19
M  V30 19 1 19 20
M  V30 20 2 20 21
M  V30 21 1 21 22
M  V30 22 1 22 23
M  V30 23 2 23 24
M  V30 24 1 24 25
M  V30 25 2 25 26
M  V30 26 1 26 27
M  V30 27 2 27 28
M  V30 28 1 28 29
M  V30 29 2 29 30
M  V30 30 1 6 31
M  V30 31 2 31 32
M  V30 32 1 2 33
M  V30 33 1 33 34
M  V30 34 1 34 35
M  V30 35 1 35 2
M  V30 36 1 32 3
M  V30 37 1 24 7
M  V30 38 1 30 25
M  V30 39 1 22 9
M  V30 40 1 20 10
M  V30 41 1 18 14
M  V30 42 1 1 36
M  V30 43 1 1 37
M  V30 44 1 4 38
M  V30 45 1 5 39
M  V30 46 1 11 40
M  V30 47 1 12 41
M  V30 48 1 15 42
M  V30 49 1 16 43
M  V30 50 1 18 44
M  V30 51 1 19 45
M  V30 52 1 23 46
M  V30 53 1 26 47
M  V30 54 1 27 48
M  V30 55 1 28 49
M  V30 56 1 29 50
M  V30 57 1 30 51
M  V30 58 1 31 52
M  V30 59 1 32 53
M  V30 60 1 33 54
M  V30 61 1 33 55
M  V30 62 1 34 56
M  V30 63 1 34 57
M  V30 64 1 35 58
M  V30 65 1 35 59
M  V30 END BOND
M  V30 END CTAB
M  END
>  <Dataset>  (839) 
ChEMBL_Kinases

>  <Ligand_Instance>  (839) 
nan

>  <PDB_ID>  (839) 
nan

>  <Standardized_SMILES>  (839) 
NC1(c2ccc(-c3nc4c5ccc(-c6ccn[nH]6)cc5nn4cc3-c3ccccc3)cc2)CCC1

>  <Name>  (839) 
nan

>  <Pocket>  (839) 
nan

>  <ATP_Site>  (839) 
nan

>  <Peripheral>  (839) 
nan

>  <Num_H_Atoms_ProtBoundConf>  (839) 
nan

>  <Num_Resolved_Atoms>  (839) 
nan

>  <Num_Not_Resolved_Atoms>  (839) 
nan

$$$$
CHEMBL3672555
     RDKit          3D

  0  0  0  0  0  0  0  0  0  0999 V3000
M  V30 BEGIN CTAB
M  V30 COUNTS 62 68 0 0 0
M  V30 BEGIN ATOM
M  V30 1 C 7.981512 1.635892 6.393890 0
M  V30 2 C 6.717424 2.083661 5.707780 0
M  V30 3 C 5.904063 1.283053 4.895889 0
M  V30 4 C 4.866137 2.103676 4.486712 0
M  V30 5 C 3.761869 1.676023 3.610037 0
M  V30 6 C 3.680588 0.377884 3.113513 0
M  V30 7 C 2.647403 -0.034375 2.290636 0
M  V30 8 C 1.687503 0.916491 1.981249 0
M  V30 9 C 1.723023 2.216027 2.447957 0
M  V30 10 C 2.781662 2.595894 3.276543 0
M  V30 11 N 0.636878 2.881193 1.958815 0
M  V30 12 N -0.067908 2.044175 1.208838 0
M  V30 13 C -1.208269 2.224697 0.520134 0
M  V30 14 C -1.765195 1.187712 -0.199046 0
M  V30 15 C -2.985090 1.206569 -0.997102 0
M  V30 16 C -4.125841 0.458877 -0.781315 0
M  V30 17 C -5.219155 0.581319 -1.630155 0
M  V30 18 C -5.159414 1.456029 -2.692702 0
M  V30 19 C -4.035338 2.215826 -2.934237 0
M  V30 20 C -2.970061 2.082140 -2.089020 0
M  V30 21 C -1.143826 -0.058816 -0.214385 0
M  V30 22 C -1.609754 -1.252511 -0.919429 0
M  V30 23 C -1.830060 -2.285567 -0.000908 0
M  V30 24 C -2.281057 -3.533429 -0.417327 0
M  V30 25 C -2.512375 -3.747521 -1.759051 0
M  V30 26 C -2.987130 -5.001609 -2.367321 0
M  V30 27 N -3.861940 -4.876668 -3.511666 0
M  V30 28 C -1.771126 -5.851606 -2.741277 0
M  V30 29 C -1.944827 -6.648706 -1.462316 0
M  V30 30 C -3.381023 -6.112246 -1.420998 0
M  V30 31 C -2.290504 -2.719468 -2.651764 0
M  V30 32 C -1.843402 -1.477469 -2.252878 0
M  V30 33 N 0.010367 -0.196885 0.497621 0
M  V30 34 C 0.535108 0.840197 1.195674 0
M  V30 35 N 5.037038 3.322023 5.014467 0
M  V30 36 N 6.141446 3.304202 5.740920 0
M  V30 37 H 7.738613 0.740709 7.011397 0
M  V30 38 H 8.778947 1.410162 5.688753 0
M  V30 39 H 8.237558 2.428142 7.126365 0
M  V30 40 H 6.103958 0.242659 4.674402 0
M  V30 41 H 4.439043 -0.331590 3.372037 0
M  V30 42 H 2.614479 -1.050657 1.922278 0
M  V30 43 H 2.841826 3.613674 3.663505 0
M  V30 44 H -1.756367 3.151455 0.474951 0
M  V30 45 H -4.061966 -0.185260 0.069926 0
M  V30 46 H -6.042687 -0.061661 -1.344834 0
M  V30 47 H -6.057186 1.499049 -3.317472 0
M  V30 48 H -4.002608 2.891594 -3.763768 0
M  V30 49 H -2.102848 2.690892 -2.302906 0
M  V30 50 H -1.684453 -2.243427 1.090154 0
M  V30 51 H -2.460609 -4.347575 0.252076 0
M  V30 52 H -3.506398 -5.380951 -4.340099 0
M  V30 53 H -4.829144 -5.124678 -3.213802 0
M  V30 54 H -0.808355 -5.300867 -2.773570 0
M  V30 55 H -1.879659 -6.420959 -3.683373 0
M  V30 56 H -1.279970 -6.225616 -0.660889 0
M  V30 57 H -1.842896 -7.732000 -1.530868 0
M  V30 58 H -4.020889 -6.859837 -1.933601 0
M  V30 59 H -3.659650 -5.846021 -0.405507 0
M  V30 60 H -2.448774 -2.808716 -3.719170 0
M  V30 61 H -1.636047 -0.608270 -2.844604 0
M  V30 62 H 4.406179 4.140827 4.874545 0
M  V30 END ATOM
M  V30 BEGIN BOND
M  V30 1 1 1 2
M  V30 2 1 2 3
M  V30 3 2 3 4
M  V30 4 1 4 5
M  V30 5 1 5 6
M  V30 6 2 6 7
M  V30 7 1 7 8
M  V30 8 1 8 9
M  V30 9 1 9 10
M  V30 10 2 9 11
M  V30 11 1 11 12
M  V30 12 1 12 13
M  V30 13 2 13 14
M  V30 14 1 14 15
M  V30 15 2 15 16
M  V30 16 1 16 17
M  V30 17 2 17 18
M  V30 18 1 18 19
M  V30 19 2 19 20
M  V30 20 1 14 21
M  V30 21 1 21 22
M  V30 22 2 22 23
M  V30 23 1 23 24
M  V30 24 2 24 25
M  V30 25 1 25 26
M  V30 26 1 26 27
M  V30 27 1 26 28
M  V30 28 1 28 29
M  V30 29 1 29 30
M  V30 30 1 25 31
M  V30 31 2 31 32
M  V30 32 2 21 33
M  V30 33 1 33 34
M  V30 34 1 4 35
M  V30 35 1 35 36
M  V30 36 2 36 2
M  V30 37 2 10 5
M  V30 38 1 34 12
M  V30 39 2 34 8
M  V30 40 1 20 15
M  V30 41 1 32 22
M  V30 42 1 30 26
M  V30 43 1 1 37
M  V30 44 1 1 38
M  V30 45 1 1 39
M  V30 46 1 3 40
M  V30 47 1 6 41
M  V30 48 1 7 42
M  V30 49 1 10 43
M  V30 50 1 13 44
M  V30 51 1 16 45
M  V30 52 1 17 46
M  V30 53 1 18 47
M  V30 54 1 19 48
M  V30 55 1 20 49
M  V30 56 1 23 50
M  V30 57 1 24 51
M  V30 58 1 27 52
M  V30 59 1 27 53
M  V30 60 1 28 54
M  V30 61 1 28 55
M  V30 62 1 29 56
M  V30 63 1 29 57
M  V30 64 1 30 58
M  V30 65 1 30 59
M  V30 66 1 31 60
M  V30 67 1 32 61
M  V30 68 1 35 62
M  V30 END BOND
M  V30 END CTAB
M  END
>  <Dataset>  (840) 
ChEMBL_Kinases

>  <Ligand_Instance>  (840) 
nan

>  <PDB_ID>  (840) 
nan

>  <Standardized_SMILES>  (840) 
Cc1cc(-c2ccc3c(c2)nn2cc(-c4ccccc4)c(-c4ccc(C5(N)CCC5)cc4)nc32)[nH]n1

>  <Name>  (840) 
nan

>  <Pocket>  (840) 
nan

>  <ATP_Site>  (840) 
nan

>  <Peripheral>  (840) 
nan

>  <Num_H_Atoms_ProtBoundConf>  (840) 
nan

>  <Num_Resolved_Atoms>  (840) 
nan

>  <Num_Not_Resolved_Atoms>  (840) 
nan

$$$$
CHEMBL3672556
     RDKit          3D

  0  0  0  0  0  0  0  0  0  0999 V3000
M  V30 BEGIN CTAB
M  V30 COUNTS 59 65 0 0 0
M  V30 BEGIN ATOM
M  V30 1 N 2.137282 -4.321989 4.509948 0
M  V30 2 C 2.774112 -4.062839 3.233108 0
M  V30 3 C 1.914908 -3.236407 2.351113 0
M  V30 4 C 2.328470 -2.249234 1.469500 0
M  V30 5 C 1.396736 -1.560467 0.709544 0
M  V30 6 C 0.031288 -1.844400 0.815177 0
M  V30 7 C -0.742723 -0.991044 -0.080444 0
M  V30 8 N -0.722390 0.347977 0.057630 0
M  V30 9 C -1.418029 1.179845 -0.742671 0
M  V30 10 C -1.618617 2.542504 -0.879199 0
M  V30 11 C -1.071061 3.575118 -0.107774 0
M  V30 12 C -1.434432 4.860941 -0.454823 0
M  V30 13 C -0.871547 5.954730 0.340341 0
M  V30 14 C -1.113848 7.319333 0.149808 0
M  V30 15 C -0.357852 7.888910 1.142531 0
M  V30 16 N 0.278674 6.968280 1.862871 0
M  V30 17 N -0.024485 5.758595 1.383862 0
M  V30 18 C -2.289244 5.152417 -1.499815 0
M  V30 19 C -2.812842 4.099601 -2.242941 0
M  V30 20 C -2.479485 2.787705 -1.935677 0
M  V30 21 N -2.787167 1.570338 -2.422821 0
M  V30 22 N -2.167301 0.628718 -1.726363 0
M  V30 23 C -2.255614 -0.706075 -1.949105 0
M  V30 24 C -1.514675 -1.527566 -1.091254 0
M  V30 25 C -1.595558 -2.955125 -1.312853 0
M  V30 26 C -2.857482 -3.549548 -1.192942 0
M  V30 27 C -3.039402 -4.900883 -1.384948 0
M  V30 28 C -1.936343 -5.661574 -1.701464 0
M  V30 29 C -0.664625 -5.096835 -1.827961 0
M  V30 30 C -0.480650 -3.727602 -1.633338 0
M  V30 31 C -0.369032 -2.813374 1.681180 0
M  V30 32 C 0.559908 -3.498077 2.436955 0
M  V30 33 C 3.202951 -5.329190 2.500512 0
M  V30 34 C 4.607594 -4.746417 2.345769 0
M  V30 35 C 4.202470 -3.648872 3.304896 0
M  V30 36 H 2.770589 -3.978356 5.271136 0
M  V30 37 H 2.098952 -5.372920 4.642129 0
M  V30 38 H 3.373424 -2.076791 1.430938 0
M  V30 39 H 1.866114 -0.809502 0.057238 0
M  V30 40 H -0.402991 3.328549 0.707548 0
M  V30 41 H -1.757708 7.720343 -0.622512 0
M  V30 42 H -0.308711 8.976812 1.293891 0
M  V30 43 H 0.352287 4.887745 1.783345 0
M  V30 44 H -2.555602 6.191979 -1.746009 0
M  V30 45 H -3.495387 4.273827 -3.082368 0
M  V30 46 H -2.854812 -1.123359 -2.733568 0
M  V30 47 H -3.730052 -2.932494 -0.940044 0
M  V30 48 H -4.034616 -5.318207 -1.281897 0
M  V30 49 H -2.079096 -6.720632 -1.851786 0
M  V30 50 H 0.215365 -5.705264 -2.080815 0
M  V30 51 H 0.473906 -3.230178 -1.716068 0
M  V30 52 H -1.439717 -2.952923 1.685772 0
M  V30 53 H 0.154063 -4.246624 3.094422 0
M  V30 54 H 3.127884 -6.254734 3.075057 0
M  V30 55 H 2.737897 -5.444104 1.484232 0
M  V30 56 H 5.351253 -5.478162 2.731313 0
M  V30 57 H 4.884358 -4.421996 1.339875 0
M  V30 58 H 4.483550 -2.630220 3.047427 0
M  V30 59 H 4.627925 -3.905218 4.311940 0
M  V30 END ATOM
M  V30 BEGIN BOND
M  V30 1 1 1 2
M  V30 2 1 2 3
M  V30 3 2 3 4
M  V30 4 1 4 5
M  V30 5 2 5 6
M  V30 6 1 6 7
M  V30 7 2 7 8
M  V30 8 1 8 9
M  V30 9 2 9 10
M  V30 10 1 10 11
M  V30 11 2 11 12
M  V30 12 1 12 13
M  V30 13 2 13 14
M  V30 14 1 14 15
M  V30 15 2 15 16
M  V30 16 1 16 17
M  V30 17 1 12 18
M  V30 18 2 18 19
M  V30 19 1 19 20
M  V30 20 2 20 21
M  V30 21 1 21 22
M  V30 22 1 22 23
M  V30 23 2 23 24
M  V30 24 1 24 25
M  V30 25 2 25 26
M  V30 26 1 26 27
M  V30 27 2 27 28
M  V30 28 1 28 29
M  V30 29 2 29 30
M  V30 30 1 6 31
M  V30 31 2 31 32
M  V30 32 1 2 33
M  V30 33 1 33 34
M  V30 34 1 34 35
M  V30 35 1 35 2
M  V30 36 1 32 3
M  V30 37 1 24 7
M  V30 38 1 30 25
M  V30 39 1 22 9
M  V30 40 1 20 10
M  V30 41 1 17 13
M  V30 42 1 1 36
M  V30 43 1 1 37
M  V30 44 1 4 38
M  V30 45 1 5 39
M  V30 46 1 11 40
M  V30 47 1 14 41
M  V30 48 1 15 42
M  V30 49 1 17 43
M  V30 50 1 18 44
M  V30 51 1 19 45
M  V30 52 1 23 46
M  V30 53 1 26 47
M  V30 54 1 27 48
M  V30 55 1 28 49
M  V30 56 1 29 50
M  V30 57 1 30 51
M  V30 58 1 31 52
M  V30 59 1 32 53
M  V30 60 1 33 54
M  V30 61 1 33 55
M  V30 62 1 34 56
M  V30 63 1 34 57
M  V30 64 1 35 58
M  V30 65 1 35 59
M  V30 END BOND
M  V30 END CTAB
M  END
>  <Dataset>  (841) 
ChEMBL_Kinases

>  <Ligand_Instance>  (841) 
nan

>  <PDB_ID>  (841) 
nan

>  <Standardized_SMILES>  (841) 
NC1(c2ccc(-c3nc4c5cc(-c6ccn[nH]6)ccc5nn4cc3-c3ccccc3)cc2)CCC1

>  <Name>  (841) 
nan

>  <Pocket>  (841) 
nan

>  <ATP_Site>  (841) 
nan

>  <Peripheral>  (841) 
nan

>  <Num_H_Atoms_ProtBoundConf>  (841) 
nan

>  <Num_Resolved_Atoms>  (841) 
nan

>  <Num_Not_Resolved_Atoms>  (841) 
nan

$$$$
CHEMBL3673492
     RDKit          3D

  0  0  0  0  0  0  0  0  0  0999 V3000
M  V30 BEGIN CTAB
M  V30 COUNTS 68 73 0 0 0
M  V30 BEGIN ATOM
M  V30 1 C 4.687969 -0.238309 5.408469 0
M  V30 2 O 4.087894 0.858156 4.802405 0
M  V30 3 C 4.695950 1.584449 3.782804 0
M  V30 4 C 5.937599 1.364732 3.214763 0
M  V30 5 C 6.368604 2.207493 2.200347 0
M  V30 6 C 5.592419 3.264322 1.738025 0
M  V30 7 F 6.088314 4.025377 0.756459 0
M  V30 8 C 4.362322 3.448351 2.330623 0
M  V30 9 C 3.869881 2.631720 3.359558 0
M  V30 10 C 2.568660 2.953307 3.871897 0
M  V30 11 C 2.531698 3.836093 4.937550 0
M  V30 12 C 3.736882 4.407196 5.514057 0
M  V30 13 N 4.691071 4.858249 5.986527 0
M  V30 14 C 1.336663 4.222143 5.512542 0
M  V30 15 N 0.198445 3.712942 5.004776 0
M  V30 16 C 0.214122 2.853061 3.968361 0
M  V30 17 N -0.756395 2.208259 3.277703 0
M  V30 18 C -0.241109 1.438765 2.301931 0
M  V30 19 C -1.015735 0.612892 1.362591 0
M  V30 20 C -2.335919 0.572300 1.397175 0
M  V30 21 C -2.802263 -0.324658 0.350448 0
M  V30 22 C -2.930285 -1.786757 0.773136 0
M  V30 23 N -2.964073 -2.377573 -0.587290 0
M  V30 24 C -2.789080 -3.803370 -0.524225 0
M  V30 25 C -2.880665 -4.484874 -1.822322 0
M  V30 26 O -2.713410 -5.723722 -1.652805 0
M  V30 27 N -3.062708 -4.491400 -3.203412 0
M  V30 28 C -2.999137 -5.759009 -3.885875 0
M  V30 29 C -2.380864 -5.552998 -5.228003 0
M  V30 30 C -2.339991 -4.063072 -5.398226 0
M  V30 31 C -3.319900 -3.612266 -4.332946 0 CFG=1
M  V30 32 C -4.713424 -3.791362 -4.886146 0
M  V30 33 O -4.824258 -2.892838 -5.954282 0
M  V30 34 C -1.717451 -1.844594 -1.168071 0
M  V30 35 C -1.643409 -0.441460 -0.611207 0
M  V30 36 C -0.454518 -0.256368 0.299584 0
M  V30 37 C 1.150531 1.563689 2.327033 0
M  V30 38 C 1.386395 2.442346 3.366164 0
M  V30 39 H 4.280141 -1.180725 4.949468 0
M  V30 40 H 4.356122 -0.251639 6.468459 0
M  V30 41 H 5.795200 -0.237981 5.422128 0
M  V30 42 H 6.453904 0.534393 3.635288 0
M  V30 43 H 7.354393 1.947224 1.825112 0
M  V30 44 H 3.793419 4.300577 1.922533 0
M  V30 45 H 1.288647 4.910365 6.345511 0
M  V30 46 H -1.769281 2.342694 3.531745 0
M  V30 47 H -3.051193 1.068580 2.038023 0
M  V30 48 H -3.730220 0.018336 -0.152858 0
M  V30 49 H -2.044415 -2.089474 1.327106 0
M  V30 50 H -3.881602 -2.009507 1.275432 0
M  V30 51 H -3.558337 -4.205544 0.163757 0
M  V30 52 H -1.773204 -4.056500 -0.093993 0
M  V30 53 H -2.375849 -6.508516 -3.357129 0
M  V30 54 H -4.021237 -6.186235 -3.997654 0
M  V30 55 H -1.345495 -5.960897 -5.318206 0
M  V30 56 H -2.998442 -6.014093 -6.047128 0
M  V30 57 H -2.717633 -3.782222 -6.402480 0
M  V30 58 H -1.317179 -3.712008 -5.196314 0
M  V30 59 H -3.198922 -2.580192 -4.021629 0
M  V30 60 H -4.843404 -4.826661 -5.264347 0
M  V30 61 H -5.495466 -3.541067 -4.157006 0
M  V30 62 H -4.523841 -2.001160 -5.596741 0
M  V30 63 H -1.824318 -1.790555 -2.252479 0
M  V30 64 H -0.843041 -2.444451 -0.831419 0
M  V30 65 H -1.657149 0.329740 -1.404175 0
M  V30 66 H 0.378010 0.246841 -0.248581 0
M  V30 67 H -0.055294 -1.213119 0.691110 0
M  V30 68 H 1.887639 1.091719 1.691116 0
M  V30 END ATOM
M  V30 BEGIN BOND
M  V30 1 1 1 2
M  V30 2 1 2 3
M  V30 3 2 3 4
M  V30 4 1 4 5
M  V30 5 2 5 6
M  V30 6 1 6 7
M  V30 7 1 6 8
M  V30 8 2 8 9
M  V30 9 1 9 10
M  V30 10 2 10 11
M  V30 11 1 11 12
M  V30 12 3 12 13
M  V30 13 1 11 14
M  V30 14 2 14 15
M  V30 15 1 15 16
M  V30 16 1 16 17
M  V30 17 1 17 18
M  V30 18 1 18 19
M  V30 19 2 19 20
M  V30 20 1 20 21
M  V30 21 1 21 22
M  V30 22 1 22 23
M  V30 23 1 23 24
M  V30 24 1 24 25
M  V30 25 2 25 26
M  V30 26 1 25 27
M  V30 27 1 27 28
M  V30 28 1 28 29
M  V30 29 1 29 30
M  V30 30 1 30 31
M  V30 31 1 31 32
M  V30 32 1 32 33
M  V30 33 1 23 34
M  V30 34 1 34 35
M  V30 35 1 35 36
M  V30 36 2 18 37
M  V30 37 1 37 38
M  V30 38 1 9 3
M  V30 39 1 38 10
M  V30 40 2 38 16
M  V30 41 1 36 19
M  V30 42 1 35 21
M  V30 43 1 31 27
M  V30 44 1 1 39
M  V30 45 1 1 40
M  V30 46 1 1 41
M  V30 47 1 4 42
M  V30 48 1 5 43
M  V30 49 1 8 44
M  V30 50 1 14 45
M  V30 51 1 17 46
M  V30 52 1 20 47
M  V30 53 1 21 48
M  V30 54 1 22 49
M  V30 55 1 22 50
M  V30 56 1 24 51
M  V30 57 1 24 52
M  V30 58 1 28 53
M  V30 59 1 28 54
M  V30 60 1 29 55
M  V30 61 1 29 56
M  V30 62 1 30 57
M  V30 63 1 30 58
M  V30 64 1 31 59 CFG=1
M  V30 65 1 32 60
M  V30 66 1 32 61
M  V30 67 1 33 62
M  V30 68 1 34 63
M  V30 69 1 34 64
M  V30 70 1 35 65
M  V30 71 1 36 66
M  V30 72 1 36 67
M  V30 73 1 37 68
M  V30 END BOND
M  V30 END CTAB
M  END
>  <Dataset>  (842) 
ChEMBL_Kinases

>  <Ligand_Instance>  (842) 
nan

>  <PDB_ID>  (842) 
nan

>  <Standardized_SMILES>  (842) 
COc1ccc(F)cc1-c1c(C#N)cnc2[nH]c(C3=CC4CN(CC(=O)N5CCC[C@H]5CO)CC4C3)cc12

>  <Name>  (842) 
nan

>  <Pocket>  (842) 
nan

>  <ATP_Site>  (842) 
nan

>  <Peripheral>  (842) 
nan

>  <Num_H_Atoms_ProtBoundConf>  (842) 
nan

>  <Num_Resolved_Atoms>  (842) 
nan

>  <Num_Not_Resolved_Atoms>  (842) 
nan

$$$$
CHEMBL3672558
     RDKit          3D

  0  0  0  0  0  0  0  0  0  0999 V3000
M  V30 BEGIN CTAB
M  V30 COUNTS 62 67 0 0 0
M  V30 BEGIN ATOM
M  V30 1 C 6.425251 -1.724134 6.553838 0
M  V30 2 O 5.479518 -1.210872 5.635205 0
M  V30 3 C 5.394916 0.116892 5.286709 0
M  V30 4 O 6.202219 0.931255 5.810636 0
M  V30 5 C 4.408467 0.617716 4.335739 0
M  V30 6 C 4.363921 1.895069 4.032089 0
M  V30 7 C 3.432041 2.521654 3.101851 0
M  V30 8 C 3.453351 3.860812 2.840856 0
M  V30 9 C 2.597762 4.502178 1.972845 0
M  V30 10 C 1.641372 3.766024 1.305517 0
M  V30 11 N 0.677522 4.064316 0.415970 0
M  V30 12 N 0.014066 2.973343 0.074037 0
M  V30 13 C -1.020643 2.785067 -0.774841 0
M  V30 14 C -1.539494 1.541368 -0.960711 0
M  V30 15 C -2.652441 1.221002 -1.849558 0
M  V30 16 C -3.904210 1.780196 -1.644685 0
M  V30 17 C -5.012628 1.538290 -2.429237 0
M  V30 18 C -4.861374 0.675703 -3.495817 0
M  V30 19 C -3.624575 0.109465 -3.716221 0
M  V30 20 C -2.522461 0.372251 -2.906977 0
M  V30 21 C -1.009983 0.455191 -0.279551 0
M  V30 22 C -1.432298 -0.939229 -0.351358 0
M  V30 23 C -0.435267 -1.809499 -0.806738 0
M  V30 24 C -0.689330 -3.160759 -0.927035 0
M  V30 25 C -1.919440 -3.693780 -0.606522 0
M  V30 26 C -2.381640 -5.083923 -0.664522 0
M  V30 27 N -3.343858 -5.444730 0.347101 0
M  V30 28 C -2.985863 -5.389704 -2.041708 0
M  V30 29 C -1.757627 -6.154297 -2.442484 0
M  V30 30 C -1.347949 -6.117595 -0.972017 0
M  V30 31 C -2.897193 -2.808857 -0.155257 0
M  V30 32 C -2.648314 -1.453921 -0.032734 0
M  V30 33 N 0.031459 0.679260 0.567595 0
M  V30 34 C 0.545347 1.914575 0.750892 0
M  V30 35 C 1.577758 2.407216 1.534248 0
M  V30 36 C 2.462206 1.820667 2.415632 0
M  V30 37 H 6.229473 -2.812453 6.647710 0
M  V30 38 H 7.462234 -1.573111 6.238355 0
M  V30 39 H 6.290903 -1.303987 7.566412 0
M  V30 40 H 3.697200 -0.038205 3.861330 0
M  V30 41 H 5.087304 2.532591 4.520675 0
M  V30 42 H 4.186399 4.493634 3.337967 0
M  V30 43 H 2.644637 5.561139 1.792349 0
M  V30 44 H -1.476626 3.594865 -1.335134 0
M  V30 45 H -4.041353 2.467098 -0.802086 0
M  V30 46 H -5.962503 2.000099 -2.224742 0
M  V30 47 H -5.711226 0.462359 -4.133795 0
M  V30 48 H -3.487792 -0.570338 -4.549576 0
M  V30 49 H -1.559489 -0.068394 -3.078077 0
M  V30 50 H 0.558475 -1.471375 -1.079397 0
M  V30 51 H 0.023695 -3.887285 -1.268902 0
M  V30 52 H -4.299176 -5.615835 -0.023571 0
M  V30 53 H -3.304897 -4.863141 1.190235 0
M  V30 54 H -3.093791 -4.480123 -2.680187 0
M  V30 55 H -3.934299 -5.937441 -2.025283 0
M  V30 56 H -1.987659 -7.197392 -2.803192 0
M  V30 57 H -1.066671 -5.681352 -3.138438 0
M  V30 58 H -1.541138 -7.089066 -0.471513 0
M  V30 59 H -0.305376 -5.832209 -0.779038 0
M  V30 60 H -3.901929 -3.087080 0.130135 0
M  V30 61 H -3.390066 -0.736169 0.316586 0
M  V30 62 H 2.361901 0.752720 2.552094 0
M  V30 END ATOM
M  V30 BEGIN BOND
M  V30 1 1 1 2
M  V30 2 1 2 3
M  V30 3 2 3 4
M  V30 4 1 3 5
M  V30 5 2 5 6
M  V30 6 1 6 7
M  V30 7 1 7 8
M  V30 8 2 8 9
M  V30 9 1 9 10
M  V30 10 2 10 11
M  V30 11 1 11 12
M  V30 12 1 12 13
M  V30 13 2 13 14
M  V30 14 1 14 15
M  V30 15 2 15 16
M  V30 16 1 16 17
M  V30 17 2 17 18
M  V30 18 1 18 19
M  V30 19 2 19 20
M  V30 20 1 14 21
M  V30 21 1 21 22
M  V30 22 2 22 23
M  V30 23 1 23 24
M  V30 24 2 24 25
M  V30 25 1 25 26
M  V30 26 1 26 27
M  V30 27 1 26 28
M  V30 28 1 28 29
M  V30 29 1 29 30
M  V30 30 1 25 31
M  V30 31 2 31 32
M  V30 32 2 21 33
M  V30 33 1 33 34
M  V30 34 2 34 35
M  V30 35 1 35 36
M  V30 36 2 36 7
M  V30 37 1 35 10
M  V30 38 1 34 12
M  V30 39 1 20 15
M  V30 40 1 32 22
M  V30 41 1 30 26
M  V30 42 1 1 37
M  V30 43 1 1 38
M  V30 44 1 1 39
M  V30 45 1 5 40
M  V30 46 1 6 41
M  V30 47 1 8 42
M  V30 48 1 9 43
M  V30 49 1 13 44
M  V30 50 1 16 45
M  V30 51 1 17 46
M  V30 52 1 18 47
M  V30 53 1 19 48
M  V30 54 1 20 49
M  V30 55 1 23 50
M  V30 56 1 24 51
M  V30 57 1 27 52
M  V30 58 1 27 53
M  V30 59 1 28 54
M  V30 60 1 28 55
M  V30 61 1 29 56
M  V30 62 1 29 57
M  V30 63 1 30 58
M  V30 64 1 30 59
M  V30 65 1 31 60
M  V30 66 1 32 61
M  V30 67 1 36 62
M  V30 END BOND
M  V30 END CTAB
M  END
>  <Dataset>  (843) 
ChEMBL_Kinases

>  <Ligand_Instance>  (843) 
nan

>  <PDB_ID>  (843) 
nan

>  <Standardized_SMILES>  (843) 
COC(=O)/C=C/c1ccc2nn3cc(-c4ccccc4)c(-c4ccc(C5(N)CCC5)cc4)nc3c2c1

>  <Name>  (843) 
nan

>  <Pocket>  (843) 
nan

>  <ATP_Site>  (843) 
nan

>  <Peripheral>  (843) 
nan

>  <Num_H_Atoms_ProtBoundConf>  (843) 
nan

>  <Num_Resolved_Atoms>  (843) 
nan

>  <Num_Not_Resolved_Atoms>  (843) 
nan

$$$$
CHEMBL3672559
     RDKit          3D

  0  0  0  0  0  0  0  0  0  0999 V3000
M  V30 BEGIN CTAB
M  V30 COUNTS 60 65 0 0 0
M  V30 BEGIN ATOM
M  V30 1 N 6.808812 -3.779650 1.554486 0
M  V30 2 C 7.020215 -2.560337 2.247440 0
M  V30 3 O 8.069981 -2.250077 2.853652 0
M  V30 4 C 5.981036 -1.542360 2.300980 0
M  V30 5 C 5.989138 -0.370097 2.882616 0
M  V30 6 C 4.898819 0.593187 2.885785 0
M  V30 7 C 5.025808 1.793290 3.534061 0
M  V30 8 C 4.025188 2.747044 3.572060 0
M  V30 9 C 2.816047 2.505673 2.928499 0
M  V30 10 N 1.659381 3.207302 2.775257 0
M  V30 11 N 0.795259 2.496263 2.049463 0
M  V30 12 C -0.458454 2.753033 1.633345 0
M  V30 13 C -1.166580 1.839056 0.873527 0
M  V30 14 C -2.521830 2.001635 0.366869 0
M  V30 15 C -2.999891 2.247107 -0.902414 0
M  V30 16 C -4.343895 2.353350 -1.161161 0
M  V30 17 C -5.271244 2.214457 -0.131570 0
M  V30 18 C -4.820205 1.969452 1.144135 0
M  V30 19 C -3.463346 1.863094 1.396533 0
M  V30 20 C -0.561307 0.644352 0.544104 0
M  V30 21 C -1.059424 -0.482130 -0.236168 0
M  V30 22 C -1.328166 -0.593382 -1.583725 0
M  V30 23 C -1.809884 -1.776572 -2.107799 0
M  V30 24 C -2.038104 -2.882017 -1.311318 0
M  V30 25 C -2.551305 -4.040379 -2.062954 0
M  V30 26 N -1.993996 -4.235782 -3.393749 0
M  V30 27 C -4.079716 -4.115000 -2.171480 0
M  V30 28 C -3.886024 -5.633697 -2.131650 0
M  V30 29 C -2.602147 -5.349148 -1.337257 0
M  V30 30 C -1.775533 -2.790882 0.033973 0
M  V30 31 C -1.287731 -1.598773 0.578082 0
M  V30 32 N 0.697608 0.426277 0.982324 0
M  V30 33 C 1.381249 1.319684 1.721097 0
M  V30 34 C 2.657321 1.314932 2.270857 0
M  V30 35 C 3.683695 0.407148 2.267049 0
M  V30 36 H 5.911548 -3.900623 1.036611 0
M  V30 37 H 7.589812 -4.504255 1.610936 0
M  V30 38 H 5.036462 -1.772285 1.780947 0
M  V30 39 H 6.906208 -0.130295 3.398533 0
M  V30 40 H 5.939234 2.056475 4.059536 0
M  V30 41 H 4.166189 3.693178 4.102139 0
M  V30 42 H -0.970918 3.672650 1.866406 0
M  V30 43 H -2.221804 2.343749 -1.614751 0
M  V30 44 H -4.576578 2.543654 -2.201062 0
M  V30 45 H -6.298689 2.319518 -0.457332 0
M  V30 46 H -5.610797 1.878929 1.863025 0
M  V30 47 H -3.285890 1.670019 2.455331 0
M  V30 48 H -1.114904 0.317169 -2.119795 0
M  V30 49 H -1.958363 -1.661234 -3.188819 0
M  V30 50 H -2.407949 -3.477736 -3.994300 0
M  V30 51 H -0.957886 -4.135046 -3.310996 0
M  V30 52 H -4.581680 -3.780224 -1.221579 0
M  V30 53 H -4.464437 -3.704280 -3.106568 0
M  V30 54 H -4.661483 -6.173172 -1.569792 0
M  V30 55 H -3.674332 -6.068099 -3.132095 0
M  V30 56 H -2.879255 -5.327336 -0.270000 0
M  V30 57 H -1.817821 -6.088023 -1.576410 0
M  V30 58 H -1.968908 -3.666950 0.599145 0
M  V30 59 H -1.117470 -1.648078 1.657271 0
M  V30 60 H 3.485612 -0.498723 1.733547 0
M  V30 END ATOM
M  V30 BEGIN BOND
M  V30 1 1 1 2
M  V30 2 2 2 3
M  V30 3 1 2 4
M  V30 4 2 4 5
M  V30 5 1 5 6
M  V30 6 1 6 7
M  V30 7 2 7 8
M  V30 8 1 8 9
M  V30 9 2 9 10
M  V30 10 1 10 11
M  V30 11 1 11 12
M  V30 12 2 12 13
M  V30 13 1 13 14
M  V30 14 2 14 15
M  V30 15 1 15 16
M  V30 16 2 16 17
M  V30 17 1 17 18
M  V30 18 2 18 19
M  V30 19 1 13 20
M  V30 20 1 20 21
M  V30 21 2 21 22
M  V30 22 1 22 23
M  V30 23 2 23 24
M  V30 24 1 24 25
M  V30 25 1 25 26
M  V30 26 1 25 27
M  V30 27 1 27 28
M  V30 28 1 28 29
M  V30 29 1 24 30
M  V30 30 2 30 31
M  V30 31 2 20 32
M  V30 32 1 32 33
M  V30 33 2 33 34
M  V30 34 1 34 35
M  V30 35 2 35 6
M  V30 36 1 34 9
M  V30 37 1 33 11
M  V30 38 1 19 14
M  V30 39 1 31 21
M  V30 40 1 29 25
M  V30 41 1 1 36
M  V30 42 1 1 37
M  V30 43 1 4 38
M  V30 44 1 5 39
M  V30 45 1 7 40
M  V30 46 1 8 41
M  V30 47 1 12 42
M  V30 48 1 15 43
M  V30 49 1 16 44
M  V30 50 1 17 45
M  V30 51 1 18 46
M  V30 52 1 19 47
M  V30 53 1 22 48
M  V30 54 1 23 49
M  V30 55 1 26 50
M  V30 56 1 26 51
M  V30 57 1 27 52
M  V30 58 1 27 53
M  V30 59 1 28 54
M  V30 60 1 28 55
M  V30 61 1 29 56
M  V30 62 1 29 57
M  V30 63 1 30 58
M  V30 64 1 31 59
M  V30 65 1 35 60
M  V30 END BOND
M  V30 END CTAB
M  END
>  <Dataset>  (844) 
ChEMBL_Kinases

>  <Ligand_Instance>  (844) 
nan

>  <PDB_ID>  (844) 
nan

>  <Standardized_SMILES>  (844) 
NC(=O)/C=C/c1ccc2nn3cc(-c4ccccc4)c(-c4ccc(C5(N)CCC5)cc4)nc3c2c1

>  <Name>  (844) 
nan

>  <Pocket>  (844) 
nan

>  <ATP_Site>  (844) 
nan

>  <Peripheral>  (844) 
nan

>  <Num_H_Atoms_ProtBoundConf>  (844) 
nan

>  <Num_Resolved_Atoms>  (844) 
nan

>  <Num_Not_Resolved_Atoms>  (844) 
nan

$$$$
CHEMBL367263
     RDKit          3D

  0  0  0  0  0  0  0  0  0  0999 V3000
M  V30 BEGIN CTAB
M  V30 COUNTS 41 44 0 0 0
M  V30 BEGIN ATOM
M  V30 1 N 2.773828 -8.443676 0.738475 0
M  V30 2 C 3.104045 -7.118485 0.273621 0
M  V30 3 O 4.259413 -7.218164 -0.213572 0
M  V30 4 C 2.137036 -6.039410 0.441898 0
M  V30 5 C 0.918716 -6.289305 1.040884 0
M  V30 6 C 0.104954 -5.178474 1.133756 0
M  V30 7 C 0.433046 -3.915159 0.684886 0
M  V30 8 N -0.240945 -2.745757 0.701855 0
M  V30 9 C 0.555576 -1.821024 0.127196 0
M  V30 10 C 0.184318 -0.415373 -0.046557 0
M  V30 11 C -1.062510 -0.029791 0.412165 0
M  V30 12 C -1.460790 1.290754 0.270840 0
M  V30 13 C -0.573760 2.190879 -0.337851 0
M  V30 14 O -1.037454 3.518391 -0.451919 0
M  V30 15 C -0.779809 4.433185 0.588834 0
M  V30 16 C 0.315687 5.263020 0.719619 0
M  V30 17 C 0.387476 6.092092 1.815466 0
M  V30 18 C -0.577044 6.138195 2.790444 0
M  V30 19 C -1.679307 5.295881 2.648528 0
M  V30 20 O -2.664241 5.348589 3.652040 0
M  V30 21 C -1.772184 4.449403 1.548156 0
M  V30 22 C 0.679010 1.791487 -0.795879 0
M  V30 23 C 1.069044 0.461623 -0.648666 0
M  V30 24 N 1.716853 -2.412943 -0.244160 0
M  V30 25 C 1.677186 -3.733996 0.091005 0
M  V30 26 C 2.528312 -4.803163 -0.028412 0
M  V30 27 H 3.175673 -8.900571 1.576904 0
M  V30 28 H 2.079204 -9.081725 0.257924 0
M  V30 29 H 0.624778 -7.262470 1.404884 0
M  V30 30 H -0.879057 -5.323560 1.603894 0
M  V30 31 H -1.196900 -2.645822 1.100681 0
M  V30 32 H -1.772078 -0.693130 0.885443 0
M  V30 33 H -2.420622 1.620330 0.616097 0
M  V30 34 H 1.035683 5.183013 -0.072173 0
M  V30 35 H 1.273642 6.714066 1.852089 0
M  V30 36 H -0.462457 6.822758 3.643084 0
M  V30 37 H -3.064798 4.463857 3.983491 0
M  V30 38 H -2.676848 3.837947 1.543769 0
M  V30 39 H 1.306941 2.546024 -1.254979 0
M  V30 40 H 2.042324 0.153093 -1.004928 0
M  V30 41 H 3.490896 -4.638640 -0.493753 0
M  V30 END ATOM
M  V30 BEGIN BOND
M  V30 1 1 1 2
M  V30 2 2 2 3
M  V30 3 1 2 4
M  V30 4 2 4 5
M  V30 5 1 5 6
M  V30 6 2 6 7
M  V30 7 1 7 8
M  V30 8 1 8 9
M  V30 9 1 9 10
M  V30 10 2 10 11
M  V30 11 1 11 12
M  V30 12 2 12 13
M  V30 13 1 13 14
M  V30 14 1 14 15
M  V30 15 2 15 16
M  V30 16 1 16 17
M  V30 17 2 17 18
M  V30 18 1 18 19
M  V30 19 1 19 20
M  V30 20 2 19 21
M  V30 21 1 13 22
M  V30 22 2 22 23
M  V30 23 2 9 24
M  V30 24 1 24 25
M  V30 25 2 25 26
M  V30 26 1 26 4
M  V30 27 1 25 7
M  V30 28 1 23 10
M  V30 29 1 21 15
M  V30 30 1 1 27
M  V30 31 1 1 28
M  V30 32 1 5 29
M  V30 33 1 6 30
M  V30 34 1 8 31
M  V30 35 1 11 32
M  V30 36 1 12 33
M  V30 37 1 16 34
M  V30 38 1 17 35
M  V30 39 1 18 36
M  V30 40 1 20 37
M  V30 41 1 21 38
M  V30 42 1 22 39
M  V30 43 1 23 40
M  V30 44 1 26 41
M  V30 END BOND
M  V30 END CTAB
M  END
>  <Dataset>  (845) 
ChEMBL_Kinases

>  <Ligand_Instance>  (845) 
nan

>  <PDB_ID>  (845) 
nan

>  <Standardized_SMILES>  (845) 
NC(=O)c1ccc2[nH]c(-c3ccc(Oc4cccc(O)c4)cc3)nc2c1

>  <Name>  (845) 
nan

>  <Pocket>  (845) 
nan

>  <ATP_Site>  (845) 
nan

>  <Peripheral>  (845) 
nan

>  <Num_H_Atoms_ProtBoundConf>  (845) 
nan

>  <Num_Resolved_Atoms>  (845) 
nan

>  <Num_Not_Resolved_Atoms>  (845) 
nan

$$$$
CHEMBL3672894
     RDKit          3D

  0  0  0  0  0  0  0  0  0  0999 V3000
M  V30 BEGIN CTAB
M  V30 COUNTS 59 63 0 0 0
M  V30 BEGIN ATOM
M  V30 1 C 6.729483 -4.905717 1.766792 0
M  V30 2 N 6.479506 -3.538380 1.474532 0
M  V30 3 C 5.746100 -2.846399 2.510196 0
M  V30 4 C 5.543497 -1.380984 2.163436 0
M  V30 5 N 4.920353 -1.201058 0.866289 0
M  V30 6 C 3.705250 -0.534428 0.597851 0
M  V30 7 C 2.941452 0.066191 1.569654 0
M  V30 8 C 1.738763 0.723792 1.290929 0
M  V30 9 C 1.276424 0.787013 -0.006567 0
M  V30 10 C 0.018251 1.481633 -0.258463 0
M  V30 11 O -0.578641 1.984967 0.727852 0
M  V30 12 N -0.589951 1.638973 -1.515859 0
M  V30 13 C -1.821010 2.358893 -1.505781 0
M  V30 14 N -1.945427 3.671866 -1.643713 0
M  V30 15 N -3.231675 4.048729 -1.591410 0
M  V30 16 C -3.965803 2.934846 -1.412707 0
M  V30 17 C -5.312188 2.673162 -1.284647 0
M  V30 18 C -5.785102 1.368551 -1.103962 0
M  V30 19 C -4.934108 0.288355 -1.045531 0
M  V30 20 C -5.372860 -1.100713 -0.857979 0
M  V30 21 C -5.458992 -1.536767 0.545704 0
M  V30 22 C -6.626852 -1.378988 1.250955 0
M  V30 23 C -6.610288 -1.823557 2.576056 0
M  V30 24 F -7.777164 -1.662202 3.269606 0
M  V30 25 C -5.481860 -2.396878 3.164889 0
M  V30 26 C -4.326633 -2.530541 2.399656 0
M  V30 27 F -3.238961 -3.090087 2.988019 0
M  V30 28 C -4.336716 -2.097091 1.101607 0
M  V30 29 C -3.589379 0.577267 -1.176490 0
M  V30 30 C -3.098030 1.850672 -1.355033 0
M  V30 31 C 2.041695 0.185639 -0.977413 0
M  V30 32 C 3.234027 -0.464896 -0.692077 0
M  V30 33 C 5.763804 -1.823498 -0.105206 0
M  V30 34 C 5.780857 -3.321808 0.227709 0
M  V30 35 H 5.876698 -5.534424 1.464193 0
M  V30 36 H 7.693362 -5.289283 1.378275 0
M  V30 37 H 6.809892 -5.006563 2.878288 0
M  V30 38 H 6.230592 -2.864960 3.490662 0
M  V30 39 H 4.747764 -3.322817 2.585129 0
M  V30 40 H 4.929561 -0.969398 2.987621 0
M  V30 41 H 6.534243 -0.879652 2.142716 0
M  V30 42 H 3.238565 0.057748 2.603971 0
M  V30 43 H 1.180453 1.181369 2.117636 0
M  V30 44 H -0.114737 1.230804 -2.349063 0
M  V30 45 H -3.598646 5.023653 -1.673647 0
M  V30 46 H -5.993187 3.525726 -1.330093 0
M  V30 47 H -6.841835 1.194086 -1.006948 0
M  V30 48 H -4.683972 -1.774335 -1.406707 0
M  V30 49 H -6.372172 -1.263703 -1.334518 0
M  V30 50 H -7.513931 -0.940752 0.825789 0
M  V30 51 H -5.544092 -2.718039 4.197100 0
M  V30 52 H -3.430213 -2.209260 0.523130 0
M  V30 53 H -2.853711 -0.227579 -1.140389 0
M  V30 54 H 1.638260 0.260958 -1.983075 0
M  V30 55 H 3.701411 -0.874366 -1.546946 0
M  V30 56 H 6.817130 -1.418136 -0.025239 0
M  V30 57 H 5.496871 -1.696129 -1.151482 0
M  V30 58 H 4.719703 -3.593314 0.404484 0
M  V30 59 H 6.163035 -3.913132 -0.600235 0
M  V30 END ATOM
M  V30 BEGIN BOND
M  V30 1 1 1 2
M  V30 2 1 2 3
M  V30 3 1 3 4
M  V30 4 1 4 5
M  V30 5 1 5 6
M  V30 6 2 6 7
M  V30 7 1 7 8
M  V30 8 2 8 9
M  V30 9 1 9 10
M  V30 10 2 10 11
M  V30 11 1 10 12
M  V30 12 1 12 13
M  V30 13 2 13 14
M  V30 14 1 14 15
M  V30 15 1 15 16
M  V30 16 2 16 17
M  V30 17 1 17 18
M  V30 18 2 18 19
M  V30 19 1 19 20
M  V30 20 1 20 21
M  V30 21 2 21 22
M  V30 22 1 22 23
M  V30 23 1 23 24
M  V30 24 2 23 25
M  V30 25 1 25 26
M  V30 26 1 26 27
M  V30 27 2 26 28
M  V30 28 1 19 29
M  V30 29 2 29 30
M  V30 30 1 9 31
M  V30 31 2 31 32
M  V30 32 1 5 33
M  V30 33 1 33 34
M  V30 34 1 34 2
M  V30 35 1 32 6
M  V30 36 1 30 13
M  V30 37 1 30 16
M  V30 38 1 28 21
M  V30 39 1 1 35
M  V30 40 1 1 36
M  V30 41 1 1 37
M  V30 42 1 3 38
M  V30 43 1 3 39
M  V30 44 1 4 40
M  V30 45 1 4 41
M  V30 46 1 7 42
M  V30 47 1 8 43
M  V30 48 1 12 44
M  V30 49 1 15 45
M  V30 50 1 17 46
M  V30 51 1 18 47
M  V30 52 1 20 48
M  V30 53 1 20 49
M  V30 54 1 22 50
M  V30 55 1 25 51
M  V30 56 1 28 52
M  V30 57 1 29 53
M  V30 58 1 31 54
M  V30 59 1 32 55
M  V30 60 1 33 56
M  V30 61 1 33 57
M  V30 62 1 34 58
M  V30 63 1 34 59
M  V30 END BOND
M  V30 END CTAB
M  END
>  <Dataset>  (846) 
ChEMBL_Kinases

>  <Ligand_Instance>  (846) 
nan

>  <PDB_ID>  (846) 
nan

>  <Standardized_SMILES>  (846) 
CN1CCN(c2ccc(C(=O)Nc3n[nH]c4ccc(Cc5cc(F)cc(F)c5)cc34)cc2)CC1

>  <Name>  (846) 
nan

>  <Pocket>  (846) 
nan

>  <ATP_Site>  (846) 
nan

>  <Peripheral>  (846) 
nan

>  <Num_H_Atoms_ProtBoundConf>  (846) 
nan

>  <Num_Resolved_Atoms>  (846) 
nan

>  <Num_Not_Resolved_Atoms>  (846) 
nan

$$$$
CHEMBL3672895
     RDKit          3D

  0  0  0  0  0  0  0  0  0  0999 V3000
M  V30 BEGIN CTAB
M  V30 COUNTS 71 75 0 0 0
M  V30 BEGIN ATOM
M  V30 1 C 0.543213 -2.551168 4.354526 0
M  V30 2 O 1.514715 -3.467497 4.243340 0
M  V30 3 C 1.508690 -4.464922 3.347551 0
M  V30 4 C 1.439884 -4.125893 1.879277 0
M  V30 5 N 0.290417 -3.441325 1.403359 0
M  V30 6 C 0.359459 -2.970226 0.003865 0
M  V30 7 C 1.410046 -3.180963 -0.791966 0
M  V30 8 C 1.205782 -2.664054 -2.039746 0
M  V30 9 N 2.311833 -2.854223 -2.905205 0
M  V30 10 C 2.288012 -2.689555 -4.324069 0
M  V30 11 C 3.331039 -1.772326 -4.881849 0
M  V30 12 N 4.629394 -1.864232 -4.293969 0
M  V30 13 C 5.300167 -0.578841 -4.557616 0
M  V30 14 C 4.525030 -1.983905 -2.873551 0
M  V30 15 C 3.653897 -3.217168 -2.565474 0
M  V30 16 C 0.011228 -2.025528 -2.315255 0
M  V30 17 C -0.937031 -1.957699 -1.241470 0
M  V30 18 C -0.803089 -2.493681 0.163896 0
M  V30 19 C -2.139238 -1.945918 0.347627 0
M  V30 20 O -3.183577 -1.394710 -0.042235 0
M  V30 21 N -2.607115 -2.049452 1.703360 0
M  V30 22 C -3.923427 -1.524760 1.952355 0
M  V30 23 N -5.164682 -2.063322 1.881916 0
M  V30 24 N -6.055323 -1.122913 2.227669 0
M  V30 25 C -5.431651 0.038699 2.529046 0
M  V30 26 C -5.944326 1.256518 2.931800 0
M  V30 27 C -5.054123 2.284007 3.176918 0
M  V30 28 C -3.702051 2.100984 3.025203 0
M  V30 29 C -2.732105 3.175250 3.284881 0
M  V30 30 C -2.310009 3.952019 2.123647 0
M  V30 31 C -1.216184 3.459205 1.449719 0
M  V30 32 C -0.644092 4.038170 0.328792 0
M  V30 33 F 0.431703 3.513194 -0.301716 0
M  V30 34 C -1.265875 5.202828 -0.100177 0
M  V30 35 C -2.375503 5.774659 0.517270 0
M  V30 36 F -2.950260 6.914034 0.063956 0
M  V30 37 C -2.865129 5.111441 1.630182 0
M  V30 38 C -3.222202 0.851928 2.614685 0
M  V30 39 C -4.068703 -0.209618 2.355992 0
M  V30 40 H -0.496201 -2.935089 4.554125 0
M  V30 41 H 0.755700 -1.931347 5.304135 0
M  V30 42 H 0.463061 -1.790379 3.541587 0
M  V30 43 H 0.530579 -5.045839 3.528955 0
M  V30 44 H 2.267811 -5.257085 3.529870 0
M  V30 45 H 2.396042 -3.601994 1.586772 0
M  V30 46 H 1.493902 -5.116231 1.348221 0
M  V30 47 H -0.220722 -3.554208 2.282658 0
M  V30 48 H 2.205395 -3.712440 -0.326969 0
M  V30 49 H 1.315090 -2.366858 -4.753679 0
M  V30 50 H 2.424115 -3.733241 -4.747932 0
M  V30 51 H 2.947785 -0.716114 -4.929197 0
M  V30 52 H 3.454682 -2.060197 -5.969080 0
M  V30 53 H 4.546758 0.238954 -4.614377 0
M  V30 54 H 5.826217 -0.602721 -5.536013 0
M  V30 55 H 6.018194 -0.321958 -3.774587 0
M  V30 56 H 3.971566 -1.123456 -2.407562 0
M  V30 57 H 5.495996 -2.072213 -2.351454 0
M  V30 58 H 4.060039 -4.036092 -3.193946 0
M  V30 59 H 3.810796 -3.475085 -1.495603 0
M  V30 60 H 0.056602 -1.687170 -3.363309 0
M  V30 61 H -1.696167 -1.391156 -1.896669 0
M  V30 62 H -2.099519 -2.449742 2.502855 0
M  V30 63 H -7.088876 -1.249954 2.263200 0
M  V30 64 H -7.003972 1.430668 3.058922 0
M  V30 65 H -5.452090 3.258789 3.498261 0
M  V30 66 H -1.819952 2.813034 3.836423 0
M  V30 67 H -3.225081 3.851575 4.042908 0
M  V30 68 H -0.698626 2.537436 1.760638 0
M  V30 69 H -0.881323 5.726606 -0.975360 0
M  V30 70 H -3.725801 5.486678 2.167534 0
M  V30 71 H -2.153539 0.698361 2.491736 0
M  V30 END ATOM
M  V30 BEGIN BOND
M  V30 1 1 1 2
M  V30 2 1 2 3
M  V30 3 1 3 4
M  V30 4 1 4 5
M  V30 5 1 5 6
M  V30 6 2 6 7
M  V30 7 1 7 8
M  V30 8 1 8 9
M  V30 9 1 9 10
M  V30 10 1 10 11
M  V30 11 1 11 12
M  V30 12 1 12 13
M  V30 13 1 12 14
M  V30 14 1 14 15
M  V30 15 2 8 16
M  V30 16 1 16 17
M  V30 17 2 17 18
M  V30 18 1 18 19
M  V30 19 2 19 20
M  V30 20 1 19 21
M  V30 21 1 21 22
M  V30 22 2 22 23
M  V30 23 1 23 24
M  V30 24 1 24 25
M  V30 25 2 25 26
M  V30 26 1 26 27
M  V30 27 2 27 28
M  V30 28 1 28 29
M  V30 29 1 29 30
M  V30 30 2 30 31
M  V30 31 1 31 32
M  V30 32 1 32 33
M  V30 33 2 32 34
M  V30 34 1 34 35
M  V30 35 1 35 36
M  V30 36 2 35 37
M  V30 37 1 28 38
M  V30 38 2 38 39
M  V30 39 1 18 6
M  V30 40 1 39 22
M  V30 41 1 15 9
M  V30 42 1 39 25
M  V30 43 1 37 30
M  V30 44 1 1 40
M  V30 45 1 1 41
M  V30 46 1 1 42
M  V30 47 1 3 43
M  V30 48 1 3 44
M  V30 49 1 4 45
M  V30 50 1 4 46
M  V30 51 1 5 47
M  V30 52 1 7 48
M  V30 53 1 10 49
M  V30 54 1 10 50
M  V30 55 1 11 51
M  V30 56 1 11 52
M  V30 57 1 13 53
M  V30 58 1 13 54
M  V30 59 1 13 55
M  V30 60 1 14 56
M  V30 61 1 14 57
M  V30 62 1 15 58
M  V30 63 1 15 59
M  V30 64 1 16 60
M  V30 65 1 17 61
M  V30 66 1 21 62
M  V30 67 1 24 63
M  V30 68 1 26 64
M  V30 69 1 27 65
M  V30 70 1 29 66
M  V30 71 1 29 67
M  V30 72 1 31 68
M  V30 73 1 34 69
M  V30 74 1 37 70
M  V30 75 1 38 71
M  V30 END BOND
M  V30 END CTAB
M  END
>  <Dataset>  (847) 
ChEMBL_Kinases

>  <Ligand_Instance>  (847) 
nan

>  <PDB_ID>  (847) 
nan

>  <Standardized_SMILES>  (847) 
COCCNc1cc(N2CCN(C)CC2)ccc1C(=O)Nc1n[nH]c2ccc(Cc3cc(F)cc(F)c3)cc12

>  <Name>  (847) 
nan

>  <Pocket>  (847) 
nan

>  <ATP_Site>  (847) 
nan

>  <Peripheral>  (847) 
nan

>  <Num_H_Atoms_ProtBoundConf>  (847) 
nan

>  <Num_Resolved_Atoms>  (847) 
nan

>  <Num_Not_Resolved_Atoms>  (847) 
nan

$$$$
CHEMBL3672896
     RDKit          3D

  0  0  0  0  0  0  0  0  0  0999 V3000
M  V30 BEGIN CTAB
M  V30 COUNTS 77 82 0 0 0
M  V30 BEGIN ATOM
M  V30 1 C 2.381160 3.329001 6.956501 0
M  V30 2 N 3.221749 2.212482 6.658147 0
M  V30 3 C 2.556841 0.928905 6.685553 0
M  V30 4 C 2.743285 0.172277 5.390126 0
M  V30 5 N 2.486580 0.953128 4.232758 0
M  V30 6 C 1.536471 0.704824 3.207249 0
M  V30 7 C 0.554136 -0.242475 3.270236 0
M  V30 8 C -0.363025 -0.504881 2.291798 0
M  V30 9 C -0.267599 0.260924 1.161883 0
M  V30 10 C -1.258114 -0.003834 0.140904 0
M  V30 11 O -1.696882 0.320465 -0.972625 0
M  V30 12 N -2.230241 -1.041905 0.302671 0
M  V30 13 C -3.232290 -1.361183 -0.656672 0
M  V30 14 N -4.496914 -0.937141 -0.862767 0
M  V30 15 N -5.031696 -1.539669 -1.901168 0
M  V30 16 C -4.148963 -2.399395 -2.442724 0
M  V30 17 C -4.275155 -3.238657 -3.535128 0
M  V30 18 C -3.162879 -3.995961 -3.820370 0
M  V30 19 C -2.000335 -3.938240 -3.085827 0
M  V30 20 C -0.792086 -4.758656 -3.392928 0
M  V30 21 C -0.849519 -6.061690 -2.667352 0
M  V30 22 C -1.398969 -7.239947 -3.135577 0
M  V30 23 C -1.373022 -8.369922 -2.331172 0
M  V30 24 F -1.935474 -9.494866 -2.865330 0
M  V30 25 C -0.827868 -8.386054 -1.084229 0
M  V30 26 C -0.275040 -7.219187 -0.601284 0
M  V30 27 F 0.258916 -7.264420 0.637869 0
M  V30 28 C -0.288697 -6.077031 -1.386172 0
M  V30 29 C -1.915230 -3.083199 -1.997786 0
M  V30 30 C -3.015195 -2.296536 -1.670054 0
M  V30 31 C 0.684974 1.243321 0.991916 0
M  V30 32 N 0.835675 2.031277 -0.178708 0
M  V30 33 C 0.629198 2.522164 -1.468964 0
M  V30 34 C 0.877745 1.546281 -2.606520 0
M  V30 35 C 0.974186 2.376918 -3.882990 0
M  V30 36 C -0.172253 3.342969 -4.036788 0
M  V30 37 C -1.236878 2.941681 -3.029526 0
M  V30 38 C -0.694646 3.275479 -1.662575 0
M  V30 39 C 1.584734 1.440552 2.053575 0
M  V30 40 C 3.333665 2.113576 4.188523 0
M  V30 41 C 4.042188 2.371475 5.476309 0
M  V30 42 H 1.379641 2.905821 7.256169 0
M  V30 43 H 2.319277 4.091216 6.175740 0
M  V30 44 H 2.768382 3.774154 7.919481 0
M  V30 45 H 3.030127 0.335034 7.492859 0
M  V30 46 H 1.502898 1.093224 6.956394 0
M  V30 47 H 3.771889 -0.271518 5.356243 0
M  V30 48 H 2.066800 -0.698021 5.418680 0
M  V30 49 H 0.521833 -0.815495 4.181412 0
M  V30 50 H -1.051433 -1.289765 2.540346 0
M  V30 51 H -2.326408 -1.696387 1.146044 0
M  V30 52 H -6.011286 -1.367022 -2.250296 0
M  V30 53 H -5.178710 -3.300822 -4.126496 0
M  V30 54 H -3.156880 -4.687170 -4.657147 0
M  V30 55 H 0.150924 -4.264489 -3.137833 0
M  V30 56 H -0.818655 -4.992650 -4.495984 0
M  V30 57 H -1.814720 -7.168662 -4.124905 0
M  V30 58 H -0.862740 -9.331876 -0.539441 0
M  V30 59 H 0.165999 -5.218327 -0.922944 0
M  V30 60 H -1.000878 -3.033525 -1.414486 0
M  V30 61 H 1.596569 2.729167 0.016036 0
M  V30 62 H 1.395317 3.346040 -1.716882 0
M  V30 63 H 1.923691 1.170039 -2.430398 0
M  V30 64 H 0.205703 0.716993 -2.697350 0
M  V30 65 H 1.024770 1.693422 -4.763197 0
M  V30 66 H 1.933814 2.926182 -3.836026 0
M  V30 67 H -0.576604 3.264095 -5.086003 0
M  V30 68 H 0.130219 4.392355 -3.851963 0
M  V30 69 H -1.422541 1.881463 -3.191484 0
M  V30 70 H -2.174507 3.486407 -3.231671 0
M  V30 71 H -0.531732 4.390961 -1.677303 0
M  V30 72 H -1.446573 2.992006 -0.914535 0
M  V30 73 H 2.390612 2.196678 2.030996 0
M  V30 74 H 2.778365 3.015269 3.837869 0
M  V30 75 H 4.105601 1.903278 3.406751 0
M  V30 76 H 4.984577 1.820952 5.593936 0
M  V30 77 H 4.325871 3.465136 5.472283 0
M  V30 END ATOM
M  V30 BEGIN BOND
M  V30 1 1 1 2
M  V30 2 1 2 3
M  V30 3 1 3 4
M  V30 4 1 4 5
M  V30 5 1 5 6
M  V30 6 2 6 7
M  V30 7 1 7 8
M  V30 8 2 8 9
M  V30 9 1 9 10
M  V30 10 2 10 11
M  V30 11 1 10 12
M  V30 12 1 12 13
M  V30 13 2 13 14
M  V30 14 1 14 15
M  V30 15 1 15 16
M  V30 16 2 16 17
M  V30 17 1 17 18
M  V30 18 2 18 19
M  V30 19 1 19 20
M  V30 20 1 20 21
M  V30 21 2 21 22
M  V30 22 1 22 23
M  V30 23 1 23 24
M  V30 24 2 23 25
M  V30 25 1 25 26
M  V30 26 1 26 27
M  V30 27 2 26 28
M  V30 28 1 19 29
M  V30 29 2 29 30
M  V30 30 1 9 31
M  V30 31 1 31 32
M  V30 32 1 32 33
M  V30 33 1 33 34
M  V30 34 1 34 35
M  V30 35 1 35 36
M  V30 36 1 36 37
M  V30 37 1 37 38
M  V30 38 2 31 39
M  V30 39 1 5 40
M  V30 40 1 40 41
M  V30 41 1 41 2
M  V30 42 1 39 6
M  V30 43 1 30 13
M  V30 44 1 38 33
M  V30 45 1 30 16
M  V30 46 1 28 21
M  V30 47 1 1 42
M  V30 48 1 1 43
M  V30 49 1 1 44
M  V30 50 1 3 45
M  V30 51 1 3 46
M  V30 52 1 4 47
M  V30 53 1 4 48
M  V30 54 1 7 49
M  V30 55 1 8 50
M  V30 56 1 12 51
M  V30 57 1 15 52
M  V30 58 1 17 53
M  V30 59 1 18 54
M  V30 60 1 20 55
M  V30 61 1 20 56
M  V30 62 1 22 57
M  V30 63 1 25 58
M  V30 64 1 28 59
M  V30 65 1 29 60
M  V30 66 1 32 61
M  V30 67 1 33 62
M  V30 68 1 34 63
M  V30 69 1 34 64
M  V30 70 1 35 65
M  V30 71 1 35 66
M  V30 72 1 36 67
M  V30 73 1 36 68
M  V30 74 1 37 69
M  V30 75 1 37 70
M  V30 76 1 38 71
M  V30 77 1 38 72
M  V30 78 1 39 73
M  V30 79 1 40 74
M  V30 80 1 40 75
M  V30 81 1 41 76
M  V30 82 1 41 77
M  V30 END BOND
M  V30 END CTAB
M  END
>  <Dataset>  (848) 
ChEMBL_Kinases

>  <Ligand_Instance>  (848) 
nan

>  <PDB_ID>  (848) 
nan

>  <Standardized_SMILES>  (848) 
CN1CCN(c2ccc(C(=O)Nc3n[nH]c4ccc(Cc5cc(F)cc(F)c5)cc34)c(NC3CCCCC3)c2)CC1

>  <Name>  (848) 
nan

>  <Pocket>  (848) 
nan

>  <ATP_Site>  (848) 
nan

>  <Peripheral>  (848) 
nan

>  <Num_H_Atoms_ProtBoundConf>  (848) 
nan

>  <Num_Resolved_Atoms>  (848) 
nan

>  <Num_Not_Resolved_Atoms>  (848) 
nan

$$$$
CHEMBL3673490
     RDKit          3D

  0  0  0  0  0  0  0  0  0  0999 V3000
M  V30 BEGIN CTAB
M  V30 COUNTS 63 67 0 0 0
M  V30 BEGIN ATOM
M  V30 1 C 4.898213 -1.388020 1.332364 0
M  V30 2 O 4.341408 -0.089919 1.392001 0
M  V30 3 C 3.958641 0.419090 2.624037 0
M  V30 4 C 4.112869 -0.320554 3.783434 0
M  V30 5 C 3.743471 0.149411 5.043461 0
M  V30 6 C 3.197251 1.424501 5.104383 0
M  V30 7 F 2.830074 1.901579 6.319251 0
M  V30 8 C 3.040883 2.166084 3.953425 0
M  V30 9 C 3.410634 1.689714 2.712692 0
M  V30 10 C 3.267965 2.424051 1.461012 0
M  V30 11 C 4.188473 3.273698 0.844560 0
M  V30 12 C 3.846808 3.867899 -0.350348 0
M  V30 13 N 2.635184 3.641131 -0.934508 0
M  V30 14 C 1.728611 2.822209 -0.355335 0
M  V30 15 N 0.489507 2.459222 -0.746136 0
M  V30 16 C -0.051247 1.616749 0.155904 0
M  V30 17 C -1.374825 0.965792 0.145023 0
M  V30 18 C -1.725865 0.163950 1.153717 0
M  V30 19 C -3.115608 -0.314963 0.811097 0
M  V30 20 N -3.185099 -0.880827 -0.475704 0
M  V30 21 C -3.663831 -2.180248 -0.657675 0
M  V30 22 C -2.802908 -3.255090 -0.106414 0
M  V30 23 O -1.729027 -3.479953 0.512937 0
M  V30 24 N -3.112154 -4.639585 -0.196348 0
M  V30 25 C -2.379049 -5.786516 0.299354 0
M  V30 26 C -3.027953 -6.666037 -0.744890 0
M  V30 27 O -2.261836 -6.681704 -1.908924 0
M  V30 28 C -4.096723 -5.581586 -0.709649 0
M  V30 29 C -2.758739 -0.115650 -1.576991 0
M  V30 30 C -3.945057 0.228511 -2.465460 0
M  V30 31 C -1.718033 -0.736718 -2.449094 0
M  V30 32 C -2.285923 1.237670 -1.022183 0
M  V30 33 C 0.900660 1.459184 1.139702 0
M  V30 34 C 2.032820 2.198076 0.857733 0
M  V30 35 H 5.907692 -1.405109 1.833491 0
M  V30 36 H 5.059861 -1.731280 0.301831 0
M  V30 37 H 4.303737 -2.143655 1.853059 0
M  V30 38 H 4.536397 -1.317614 3.764999 0
M  V30 39 H 3.881120 -0.467235 5.939565 0
M  V30 40 H 2.619631 3.153490 3.993289 0
M  V30 41 H 5.099083 3.377510 1.391367 0
M  V30 42 H 4.615611 4.514869 -0.768912 0
M  V30 43 H 0.017280 2.786821 -1.623429 0
M  V30 44 H -1.058527 -0.018936 1.980165 0
M  V30 45 H -3.759119 0.602915 0.862079 0
M  V30 46 H -3.400168 -0.958212 1.638784 0
M  V30 47 H -4.660743 -2.263227 -0.151819 0
M  V30 48 H -3.828835 -2.349649 -1.744144 0
M  V30 49 H -1.306014 -5.676201 0.127007 0
M  V30 50 H -2.655121 -6.086968 1.341464 0
M  V30 51 H -3.370919 -7.642128 -0.387962 0
M  V30 52 H -2.764052 -6.650483 -2.739360 0
M  V30 53 H -4.945034 -5.815517 -0.054703 0
M  V30 54 H -4.366366 -5.378237 -1.789201 0
M  V30 55 H -3.676860 1.146828 -3.026330 0
M  V30 56 H -4.856000 0.426500 -1.893352 0
M  V30 57 H -4.052506 -0.571691 -3.213375 0
M  V30 58 H -0.700992 -0.339182 -2.283442 0
M  V30 59 H -1.924655 -0.651286 -3.521921 0
M  V30 60 H -1.671613 -1.812294 -2.193103 0
M  V30 61 H -3.175546 1.814374 -0.748633 0
M  V30 62 H -1.701673 1.692166 -1.834912 0
M  V30 63 H 0.789274 0.839710 2.021365 0
M  V30 END ATOM
M  V30 BEGIN BOND
M  V30 1 1 1 2
M  V30 2 1 2 3
M  V30 3 2 3 4
M  V30 4 1 4 5
M  V30 5 2 5 6
M  V30 6 1 6 7
M  V30 7 1 6 8
M  V30 8 2 8 9
M  V30 9 1 9 10
M  V30 10 2 10 11
M  V30 11 1 11 12
M  V30 12 2 12 13
M  V30 13 1 13 14
M  V30 14 1 14 15
M  V30 15 1 15 16
M  V30 16 1 16 17
M  V30 17 2 17 18
M  V30 18 1 18 19
M  V30 19 1 19 20
M  V30 20 1 20 21
M  V30 21 1 21 22
M  V30 22 2 22 23
M  V30 23 1 22 24
M  V30 24 1 24 25
M  V30 25 1 25 26
M  V30 26 1 26 27
M  V30 27 1 26 28
M  V30 28 1 20 29
M  V30 29 1 29 30
M  V30 30 1 29 31
M  V30 31 1 29 32
M  V30 32 2 16 33
M  V30 33 1 33 34
M  V30 34 1 9 3
M  V30 35 1 34 10
M  V30 36 2 34 14
M  V30 37 1 32 17
M  V30 38 1 28 24
M  V30 39 1 1 35
M  V30 40 1 1 36
M  V30 41 1 1 37
M  V30 42 1 4 38
M  V30 43 1 5 39
M  V30 44 1 8 40
M  V30 45 1 11 41
M  V30 46 1 12 42
M  V30 47 1 15 43
M  V30 48 1 18 44
M  V30 49 1 19 45
M  V30 50 1 19 46
M  V30 51 1 21 47
M  V30 52 1 21 48
M  V30 53 1 25 49
M  V30 54 1 25 50
M  V30 55 1 26 51
M  V30 56 1 27 52
M  V30 57 1 28 53
M  V30 58 1 28 54
M  V30 59 1 30 55
M  V30 60 1 30 56
M  V30 61 1 30 57
M  V30 62 1 31 58
M  V30 63 1 31 59
M  V30 64 1 31 60
M  V30 65 1 32 61
M  V30 66 1 32 62
M  V30 67 1 33 63
M  V30 END BOND
M  V30 END CTAB
M  END
>  <Dataset>  (849) 
ChEMBL_Kinases

>  <Ligand_Instance>  (849) 
nan

>  <PDB_ID>  (849) 
nan

>  <Standardized_SMILES>  (849) 
COc1ccc(F)cc1-c1ccnc2[nH]c(C3=CCN(CC(=O)N4CC(O)C4)C(C)(C)C3)cc12

>  <Name>  (849) 
nan

>  <Pocket>  (849) 
nan

>  <ATP_Site>  (849) 
nan

>  <Peripheral>  (849) 
nan

>  <Num_H_Atoms_ProtBoundConf>  (849) 
nan

>  <Num_Resolved_Atoms>  (849) 
nan

>  <Num_Not_Resolved_Atoms>  (849) 
nan

$$$$
CHEMBL3673491
     RDKit          3D

  0  0  0  0  0  0  0  0  0  0999 V3000
M  V30 BEGIN CTAB
M  V30 COUNTS 59 64 0 0 0
M  V30 BEGIN ATOM
M  V30 1 C 4.190630 -1.801904 2.588740 0
M  V30 2 O 3.957745 -0.521832 2.048196 0
M  V30 3 C 3.597718 0.500167 2.901204 0
M  V30 4 C 3.459165 0.307404 4.263749 0
M  V30 5 C 3.097658 1.315174 5.152790 0
M  V30 6 C 2.865771 2.567964 4.652983 0
M  V30 7 F 2.512267 3.607856 5.426277 0
M  V30 8 C 3.001209 2.775345 3.287623 0
M  V30 9 C 3.358568 1.775050 2.415994 0
M  V30 10 C 3.509066 1.962394 0.975047 0
M  V30 11 C 4.669227 2.326751 0.294937 0
M  V30 12 C 4.650456 2.463626 -1.072488 0
M  V30 13 N 3.532581 2.253666 -1.779649 0
M  V30 14 C 2.362496 1.899263 -1.219914 0
M  V30 15 N 1.114823 1.627290 -1.646012 0
M  V30 16 C 0.305661 1.315877 -0.618684 0
M  V30 17 C -1.108148 0.959371 -0.635268 0
M  V30 18 C -1.866087 0.656798 0.431626 0
M  V30 19 C -3.258416 0.351811 -0.029743 0
M  V30 20 C -3.816330 -0.893876 0.619470 0
M  V30 21 N -3.181878 -2.010303 -0.094930 0
M  V30 22 C -3.450266 -3.354192 0.226154 0
M  V30 23 O -4.275119 -3.511705 1.171641 0
M  V30 24 C -2.755384 -4.414472 -0.557941 0
M  V30 25 C -3.110986 -5.828731 -0.136302 0
M  V30 26 C -3.043616 -6.204849 -1.616084 0
M  V30 27 O -1.740430 -6.389469 -2.067030 0
M  V30 28 C -3.430829 -4.747184 -1.892883 0
M  V30 29 C -2.295430 -1.482532 -1.114771 0
M  V30 30 C -2.947368 -0.170672 -1.438839 0
M  V30 31 C -1.948891 0.875470 -1.881460 0
M  V30 32 C 1.090850 1.397699 0.511998 0
M  V30 33 C 2.394274 1.763038 0.173050 0
M  V30 34 H 3.233749 -2.204630 3.009288 0
M  V30 35 H 4.900062 -1.751414 3.451916 0
M  V30 36 H 4.632196 -2.505577 1.854460 0
M  V30 37 H 3.636427 -0.667150 4.675620 0
M  V30 38 H 2.998715 1.124531 6.219316 0
M  V30 39 H 2.827607 3.740389 2.865545 0
M  V30 40 H 5.536785 2.479014 0.946872 0
M  V30 41 H 5.588239 2.749092 -1.534856 0
M  V30 42 H 0.851439 1.663568 -2.640501 0
M  V30 43 H -1.472246 0.651922 1.441938 0
M  V30 44 H -3.924415 1.212462 -0.028574 0
M  V30 45 H -3.579210 -0.950024 1.690494 0
M  V30 46 H -4.917112 -0.867859 0.418479 0
M  V30 47 H -1.675735 -4.285592 -0.680020 0
M  V30 48 H -2.322503 -6.381503 0.407945 0
M  V30 49 H -4.137464 -5.966242 0.238101 0
M  V30 50 H -3.790681 -6.953195 -1.928433 0
M  V30 51 H -1.133368 -6.478174 -1.277381 0
M  V30 52 H -4.547048 -4.609828 -1.816843 0
M  V30 53 H -2.965004 -4.325651 -2.781961 0
M  V30 54 H -1.342942 -1.261722 -0.590051 0
M  V30 55 H -2.172488 -2.163328 -1.966709 0
M  V30 56 H -3.843879 -0.232164 -2.053390 0
M  V30 57 H -2.502876 1.816647 -2.008631 0
M  V30 58 H -1.371048 0.581334 -2.759135 0
M  V30 59 H 0.720680 1.199867 1.516582 0
M  V30 END ATOM
M  V30 BEGIN BOND
M  V30 1 1 1 2
M  V30 2 1 2 3
M  V30 3 2 3 4
M  V30 4 1 4 5
M  V30 5 2 5 6
M  V30 6 1 6 7
M  V30 7 1 6 8
M  V30 8 2 8 9
M  V30 9 1 9 10
M  V30 10 2 10 11
M  V30 11 1 11 12
M  V30 12 2 12 13
M  V30 13 1 13 14
M  V30 14 1 14 15
M  V30 15 1 15 16
M  V30 16 1 16 17
M  V30 17 2 17 18
M  V30 18 1 18 19
M  V30 19 1 19 20
M  V30 20 1 20 21
M  V30 21 1 21 22
M  V30 22 2 22 23
M  V30 23 1 22 24
M  V30 24 1 24 25
M  V30 25 1 25 26
M  V30 26 1 26 27
M  V30 27 1 26 28
M  V30 28 1 21 29
M  V30 29 1 29 30
M  V30 30 1 30 31
M  V30 31 2 16 32
M  V30 32 1 32 33
M  V30 33 1 9 3
M  V30 34 1 33 10
M  V30 35 2 33 14
M  V30 36 1 31 17
M  V30 37 1 30 19
M  V30 38 1 28 24
M  V30 39 1 1 34
M  V30 40 1 1 35
M  V30 41 1 1 36
M  V30 42 1 4 37
M  V30 43 1 5 38
M  V30 44 1 8 39
M  V30 45 1 11 40
M  V30 46 1 12 41
M  V30 47 1 15 42
M  V30 48 1 18 43
M  V30 49 1 19 44
M  V30 50 1 20 45
M  V30 51 1 20 46
M  V30 52 1 24 47
M  V30 53 1 25 48
M  V30 54 1 25 49
M  V30 55 1 26 50
M  V30 56 1 27 51
M  V30 57 1 28 52
M  V30 58 1 28 53
M  V30 59 1 29 54
M  V30 60 1 29 55
M  V30 61 1 30 56
M  V30 62 1 31 57
M  V30 63 1 31 58
M  V30 64 1 32 59
M  V30 END BOND
M  V30 END CTAB
M  END
>  <Dataset>  (850) 
ChEMBL_Kinases

>  <Ligand_Instance>  (850) 
nan

>  <PDB_ID>  (850) 
nan

>  <Standardized_SMILES>  (850) 
COc1ccc(F)cc1-c1ccnc2[nH]c(C3=CC4CN(C(=O)C5CC(O)C5)CC4C3)cc12

>  <Name>  (850) 
nan

>  <Pocket>  (850) 
nan

>  <ATP_Site>  (850) 
nan

>  <Peripheral>  (850) 
nan

>  <Num_H_Atoms_ProtBoundConf>  (850) 
nan

>  <Num_Resolved_Atoms>  (850) 
nan

>  <Num_Not_Resolved_Atoms>  (850) 
nan

$$$$
CHEMBL3672557
     RDKit          3D

  0  0  0  0  0  0  0  0  0  0999 V3000
M  V30 BEGIN CTAB
M  V30 COUNTS 62 68 0 0 0
M  V30 BEGIN ATOM
M  V30 1 C 6.649726 -3.735472 2.382831 0
M  V30 2 C 6.557691 -2.263352 2.302140 0
M  V30 3 C 5.425062 -1.517423 1.967741 0
M  V30 4 C 5.715975 -0.170553 1.995402 0
M  V30 5 C 4.797823 0.924688 1.705630 0
M  V30 6 C 5.220553 2.235851 1.769931 0
M  V30 7 C 4.301266 3.250909 1.483382 0
M  V30 8 C 2.990543 2.991414 1.139607 0
M  V30 9 N 1.891743 3.673763 0.817319 0
M  V30 10 N 0.868811 2.847947 0.572715 0
M  V30 11 C -0.401723 3.122894 0.219989 0
M  V30 12 C -1.309671 2.104481 0.014066 0
M  V30 13 C -2.705197 2.200875 -0.365728 0
M  V30 14 C -3.722209 2.816323 0.340106 0
M  V30 15 C -5.015885 2.809047 -0.185243 0
M  V30 16 C -5.257653 2.190862 -1.394342 0
M  V30 17 C -4.252542 1.573149 -2.109009 0
M  V30 18 C -2.977293 1.588942 -1.575728 0
M  V30 19 C -0.889370 0.800662 0.176840 0
M  V30 20 C -1.620185 -0.456104 0.027666 0
M  V30 21 C -2.705102 -0.730738 0.853614 0
M  V30 22 C -3.422269 -1.928078 0.731960 0
M  V30 23 C -3.056469 -2.863741 -0.222556 0
M  V30 24 C -3.908870 -4.061099 -0.218350 0
M  V30 25 N -5.322985 -3.838902 -0.137406 0
M  V30 26 C -3.562003 -5.133053 -1.241342 0
M  V30 27 C -2.602581 -5.714697 -0.224578 0
M  V30 28 C -3.517038 -5.098819 0.842523 0
M  V30 29 C -1.978913 -2.578553 -1.034841 0
M  V30 30 C -1.269274 -1.401164 -0.919191 0
M  V30 31 N 0.406730 0.560874 0.535113 0
M  V30 32 C 1.278209 1.574788 0.731430 0
M  V30 33 C 2.610298 1.665605 1.087363 0
M  V30 34 C 3.492136 0.639888 1.364216 0
M  V30 35 N 7.013659 -0.106842 2.343743 0
M  V30 36 N 7.483129 -1.311756 2.516296 0
M  V30 37 H 6.943513 -4.138890 1.385971 0
M  V30 38 H 5.702086 -4.199363 2.738080 0
M  V30 39 H 7.415646 -3.948327 3.169178 0
M  V30 40 H 4.461211 -1.984382 1.724482 0
M  V30 41 H 6.232063 2.485921 2.033556 0
M  V30 42 H 4.579855 4.301094 1.519063 0
M  V30 43 H -0.800931 4.107982 0.074658 0
M  V30 44 H -3.405710 3.268765 1.280281 0
M  V30 45 H -5.709600 3.317745 0.456105 0
M  V30 46 H -6.317059 2.272002 -1.667209 0
M  V30 47 H -4.551527 1.120276 -3.043949 0
M  V30 48 H -2.242657 1.074828 -2.210954 0
M  V30 49 H -2.949832 0.036661 1.584664 0
M  V30 50 H -4.242499 -2.001420 1.444695 0
M  V30 51 H -5.783925 -4.234709 0.688174 0
M  V30 52 H -5.837795 -3.850581 -1.022118 0
M  V30 53 H -3.105944 -4.797121 -2.171648 0
M  V30 54 H -4.426549 -5.793052 -1.467491 0
M  V30 55 H -1.639332 -5.190600 -0.200213 0
M  V30 56 H -2.532707 -6.815166 -0.197864 0
M  V30 57 H -2.984244 -4.601097 1.670320 0
M  V30 58 H -4.352560 -5.739467 1.164070 0
M  V30 59 H -1.744995 -3.339893 -1.752416 0
M  V30 60 H -0.436780 -1.233300 -1.581262 0
M  V30 61 H 3.191342 -0.410829 1.323183 0
M  V30 62 H 7.531627 0.808063 2.449046 0
M  V30 END ATOM
M  V30 BEGIN BOND
M  V30 1 1 1 2
M  V30 2 1 2 3
M  V30 3 2 3 4
M  V30 4 1 4 5
M  V30 5 1 5 6
M  V30 6 2 6 7
M  V30 7 1 7 8
M  V30 8 2 8 9
M  V30 9 1 9 10
M  V30 10 1 10 11
M  V30 11 2 11 12
M  V30 12 1 12 13
M  V30 13 2 13 14
M  V30 14 1 14 15
M  V30 15 2 15 16
M  V30 16 1 16 17
M  V30 17 2 17 18
M  V30 18 1 12 19
M  V30 19 1 19 20
M  V30 20 2 20 21
M  V30 21 1 21 22
M  V30 22 2 22 23
M  V30 23 1 23 24
M  V30 24 1 24 25
M  V30 25 1 24 26
M  V30 26 1 26 27
M  V30 27 1 27 28
M  V30 28 1 23 29
M  V30 29 2 29 30
M  V30 30 2 19 31
M  V30 31 1 31 32
M  V30 32 2 32 33
M  V30 33 1 33 34
M  V30 34 1 4 35
M  V30 35 1 35 36
M  V30 36 2 36 2
M  V30 37 2 34 5
M  V30 38 1 33 8
M  V30 39 1 32 10
M  V30 40 1 18 13
M  V30 41 1 30 20
M  V30 42 1 28 24
M  V30 43 1 1 37
M  V30 44 1 1 38
M  V30 45 1 1 39
M  V30 46 1 3 40
M  V30 47 1 6 41
M  V30 48 1 7 42
M  V30 49 1 11 43
M  V30 50 1 14 44
M  V30 51 1 15 45
M  V30 52 1 16 46
M  V30 53 1 17 47
M  V30 54 1 18 48
M  V30 55 1 21 49
M  V30 56 1 22 50
M  V30 57 1 25 51
M  V30 58 1 25 52
M  V30 59 1 26 53
M  V30 60 1 26 54
M  V30 61 1 27 55
M  V30 62 1 27 56
M  V30 63 1 28 57
M  V30 64 1 28 58
M  V30 65 1 29 59
M  V30 66 1 30 60
M  V30 67 1 34 61
M  V30 68 1 35 62
M  V30 END BOND
M  V30 END CTAB
M  END
>  <Dataset>  (851) 
ChEMBL_Kinases

>  <Ligand_Instance>  (851) 
nan

>  <PDB_ID>  (851) 
nan

>  <Standardized_SMILES>  (851) 
Cc1cc(-c2ccc3nn4cc(-c5ccccc5)c(-c5ccc(C6(N)CCC6)cc5)nc4c3c2)[nH]n1

>  <Name>  (851) 
nan

>  <Pocket>  (851) 
nan

>  <ATP_Site>  (851) 
nan

>  <Peripheral>  (851) 
nan

>  <Num_H_Atoms_ProtBoundConf>  (851) 
nan

>  <Num_Resolved_Atoms>  (851) 
nan

>  <Num_Not_Resolved_Atoms>  (851) 
nan

$$$$
CHEMBL3673540
     RDKit          3D

  0  0  0  0  0  0  0  0  0  0999 V3000
M  V30 BEGIN CTAB
M  V30 COUNTS 54 58 0 0 0
M  V30 BEGIN ATOM
M  V30 1 F 3.130366 -4.850324 5.250859 0
M  V30 2 C 3.562900 -3.629220 4.856307 0
M  V30 3 C 4.341431 -2.867788 5.727756 0
M  V30 4 C 4.793189 -1.614125 5.343734 0
M  V30 5 C 4.480046 -1.100439 4.092345 0
M  V30 6 C 3.697922 -1.860794 3.210196 0
M  V30 7 C 3.354052 -1.322660 1.840250 0
M  V30 8 N 2.164867 -0.582208 1.850483 0
M  V30 9 C 0.990402 0.152678 1.844464 0
M  V30 10 N 0.229194 0.837337 0.990984 0
M  V30 11 C -0.897699 1.471079 1.352880 0
M  V30 12 C -1.515318 2.136385 0.212875 0
M  V30 13 C -1.735086 3.498781 0.361987 0
M  V30 14 C -2.310903 4.140457 -0.732775 0
M  V30 15 N -2.628070 3.469603 -1.856787 0
M  V30 16 C -2.379756 2.152151 -1.911658 0
M  V30 17 N -2.616678 1.282359 -2.933399 0
M  V30 18 C -2.222208 0.047571 -2.581614 0
M  V30 19 C -2.282066 -1.213224 -3.372042 0
M  V30 20 C -3.377643 -2.125935 -2.852386 0
M  V30 21 C -2.998722 -2.863010 -1.601758 0
M  V30 22 N -1.728148 -3.555137 -1.743434 0
M  V30 23 C -1.204617 -3.397349 -3.091344 0
M  V30 24 C -0.961145 -1.923837 -3.303235 0
M  V30 25 C -1.712592 0.087617 -1.305514 0
M  V30 26 C -1.815396 1.394293 -0.902527 0
M  V30 27 C -1.268292 1.398528 2.670199 0
M  V30 28 F -2.415949 2.070959 2.916533 0
M  V30 29 C -0.578982 0.729153 3.651612 0
M  V30 30 C 0.590349 0.091130 3.194773 0
M  V30 31 F 1.157878 -0.526991 4.295224 0
M  V30 32 C 3.247737 -3.119440 3.604490 0
M  V30 33 H 4.631445 -3.191414 6.716354 0
M  V30 34 H 5.395192 -1.005459 5.997141 0
M  V30 35 H 4.842583 -0.104846 3.795509 0
M  V30 36 H 4.238173 -0.674503 1.593539 0
M  V30 37 H 3.409935 -2.216322 1.187449 0
M  V30 38 H 2.274982 -0.433651 0.788494 0
M  V30 39 H -1.483502 4.046690 1.255659 0
M  V30 40 H -2.479908 5.200726 -0.613650 0
M  V30 41 H -3.035804 1.521423 -3.850573 0
M  V30 42 H -2.576547 -1.004123 -4.436758 0
M  V30 43 H -4.303300 -1.543155 -2.631294 0
M  V30 44 H -3.665827 -2.872533 -3.620142 0
M  V30 45 H -3.070976 -2.259999 -0.681427 0
M  V30 46 H -3.771455 -3.681454 -1.491265 0
M  V30 47 H -1.051058 -3.116317 -1.078471 0
M  V30 48 H -0.194738 -3.886953 -3.104553 0
M  V30 49 H -1.874373 -3.840339 -3.834931 0
M  V30 50 H -0.445314 -1.561401 -2.367291 0
M  V30 51 H -0.364919 -1.714791 -4.214972 0
M  V30 52 H -1.291445 -0.655649 -0.638767 0
M  V30 53 H -1.027012 0.788411 4.616656 0
M  V30 54 H 2.643763 -3.725395 2.942514 0
M  V30 END ATOM
M  V30 BEGIN BOND
M  V30 1 1 1 2
M  V30 2 2 2 3
M  V30 3 1 3 4
M  V30 4 2 4 5
M  V30 5 1 5 6
M  V30 6 1 6 7
M  V30 7 1 7 8
M  V30 8 1 8 9
M  V30 9 2 9 10
M  V30 10 1 10 11
M  V30 11 1 11 12
M  V30 12 2 12 13
M  V30 13 1 13 14
M  V30 14 2 14 15
M  V30 15 1 15 16
M  V30 16 1 16 17
M  V30 17 1 17 18
M  V30 18 1 18 19
M  V30 19 1 19 20
M  V30 20 1 20 21
M  V30 21 1 21 22
M  V30 22 1 22 23
M  V30 23 1 23 24
M  V30 24 2 18 25
M  V30 25 1 25 26
M  V30 26 2 11 27
M  V30 27 1 27 28
M  V30 28 1 27 29
M  V30 29 2 29 30
M  V30 30 1 30 31
M  V30 31 2 6 32
M  V30 32 1 32 2
M  V30 33 1 30 9
M  V30 34 1 26 12
M  V30 35 2 26 16
M  V30 36 1 24 19
M  V30 37 1 3 33
M  V30 38 1 4 34
M  V30 39 1 5 35
M  V30 40 1 7 36
M  V30 41 1 7 37
M  V30 42 1 8 38
M  V30 43 1 13 39
M  V30 44 1 14 40
M  V30 45 1 17 41
M  V30 46 1 19 42
M  V30 47 1 20 43
M  V30 48 1 20 44
M  V30 49 1 21 45
M  V30 50 1 21 46
M  V30 51 1 22 47
M  V30 52 1 23 48
M  V30 53 1 23 49
M  V30 54 1 24 50
M  V30 55 1 24 51
M  V30 56 1 25 52
M  V30 57 1 29 53
M  V30 58 1 32 54
M  V30 END BOND
M  V30 END CTAB
M  END
>  <Dataset>  (852) 
ChEMBL_Kinases

>  <Ligand_Instance>  (852) 
nan

>  <PDB_ID>  (852) 
nan

>  <Standardized_SMILES>  (852) 
Fc1cccc(CNc2nc(-c3ccnc4[nH]c(C5CCNCC5)cc34)c(F)cc2F)c1

>  <Name>  (852) 
nan

>  <Pocket>  (852) 
nan

>  <ATP_Site>  (852) 
nan

>  <Peripheral>  (852) 
nan

>  <Num_H_Atoms_ProtBoundConf>  (852) 
nan

>  <Num_Resolved_Atoms>  (852) 
nan

>  <Num_Not_Resolved_Atoms>  (852) 
nan

$$$$
CHEMBL3673539
     RDKit          3D

  0  0  0  0  0  0  0  0  0  0999 V3000
M  V30 BEGIN CTAB
M  V30 COUNTS 56 60 0 0 0
M  V30 BEGIN ATOM
M  V30 1 C -5.804369 0.017246 1.125001 0
M  V30 2 S -5.303896 0.881649 -0.322430 0
M  V30 3 O -5.323839 2.363798 0.018142 0
M  V30 4 O -6.248512 0.653283 -1.448928 0
M  V30 5 N -3.673501 0.536501 -0.760959 0
M  V30 6 C -2.754701 0.945013 0.284104 0
M  V30 7 C -1.397370 0.485160 -0.119639 0
M  V30 8 C -1.053948 0.882322 -1.336312 0
M  V30 9 C 0.253064 0.504710 -1.866616 0
M  V30 10 C 1.184306 -0.252881 -1.183488 0
M  V30 11 C 2.297319 -0.414752 -1.981953 0
M  V30 12 C 3.515165 -1.051053 -1.858286 0
M  V30 13 C 3.836310 -1.769387 -0.629627 0
M  V30 14 C 5.041757 -2.417017 -0.468017 0
M  V30 15 N 5.407440 -3.104347 0.647596 0
M  V30 16 C 4.518024 -3.157715 1.682594 0
M  V30 17 C 3.303057 -2.518277 1.548614 0
M  V30 18 O 2.409836 -2.580405 2.606619 0
M  V30 19 C 1.167784 -1.927717 2.471653 0
M  V30 20 C 0.331492 -2.090337 3.689884 0
M  V30 21 C 0.364070 -1.209016 4.752917 0
M  V30 22 C -0.418419 -1.373174 5.877716 0
M  V30 23 C -1.280476 -2.455315 5.973021 0
M  V30 24 C -1.331684 -3.346322 4.929432 0
M  V30 25 F -2.132999 -4.452695 4.890408 0
M  V30 26 C -0.541974 -3.175681 3.800551 0
M  V30 27 N 3.008853 -1.858116 0.418173 0
M  V30 28 C 4.353928 -0.949860 -2.944749 0
M  V30 29 C 4.042627 -0.270373 -4.098888 0
M  V30 30 N 2.843485 0.340872 -4.187395 0
M  V30 31 C 1.994957 0.264742 -3.145285 0
M  V30 32 N 0.767220 0.813147 -3.067755 0
M  V30 33 C -1.994394 1.703443 -2.147039 0
M  V30 34 C -3.332836 0.991504 -2.066348 0
M  V30 35 H -5.968684 0.687916 1.999760 0
M  V30 36 H -5.117763 -0.774171 1.451835 0
M  V30 37 H -6.796304 -0.488944 0.944145 0
M  V30 38 H -2.709168 2.035666 0.412151 0
M  V30 39 H -3.042337 0.407823 1.209407 0
M  V30 40 H -0.773054 -0.108525 0.524149 0
M  V30 41 H 1.065952 -0.655059 -0.187749 0
M  V30 42 H 5.806746 -2.430120 -1.230031 0
M  V30 43 H 4.804210 -3.702804 2.571265 0
M  V30 44 H 0.585674 -2.327035 1.621951 0
M  V30 45 H 1.329017 -0.846032 2.283101 0
M  V30 46 H 1.018353 -0.366822 4.707002 0
M  V30 47 H -0.397655 -0.683473 6.717634 0
M  V30 48 H -1.911798 -2.634095 6.821742 0
M  V30 49 H -0.559165 -3.849838 2.974261 0
M  V30 50 H 5.320364 -1.423441 -2.914748 0
M  V30 51 H 4.739769 -0.227166 -4.913081 0
M  V30 52 H 0.253638 1.388077 -3.785774 0
M  V30 53 H -2.097746 2.731693 -1.718844 0
M  V30 54 H -1.678648 1.770561 -3.189790 0
M  V30 55 H -4.101679 1.614633 -2.558569 0
M  V30 56 H -3.193995 0.066340 -2.699683 0
M  V30 END ATOM
M  V30 BEGIN BOND
M  V30 1 1 1 2
M  V30 2 2 2 3
M  V30 3 2 2 4
M  V30 4 1 2 5
M  V30 5 1 5 6
M  V30 6 1 6 7
M  V30 7 2 7 8
M  V30 8 1 8 9
M  V30 9 2 9 10
M  V30 10 1 10 11
M  V30 11 2 11 12
M  V30 12 1 12 13
M  V30 13 2 13 14
M  V30 14 1 14 15
M  V30 15 2 15 16
M  V30 16 1 16 17
M  V30 17 1 17 18
M  V30 18 1 18 19
M  V30 19 1 19 20
M  V30 20 2 20 21
M  V30 21 1 21 22
M  V30 22 2 22 23
M  V30 23 1 23 24
M  V30 24 1 24 25
M  V30 25 2 24 26
M  V30 26 2 17 27
M  V30 27 1 12 28
M  V30 28 2 28 29
M  V30 29 1 29 30
M  V30 30 2 30 31
M  V30 31 1 31 32
M  V30 32 1 8 33
M  V30 33 1 33 34
M  V30 34 1 34 5
M  V30 35 1 32 9
M  V30 36 1 31 11
M  V30 37 1 27 13
M  V30 38 1 26 20
M  V30 39 1 1 35
M  V30 40 1 1 36
M  V30 41 1 1 37
M  V30 42 1 6 38
M  V30 43 1 6 39
M  V30 44 1 7 40
M  V30 45 1 10 41
M  V30 46 1 14 42
M  V30 47 1 16 43
M  V30 48 1 19 44
M  V30 49 1 19 45
M  V30 50 1 21 46
M  V30 51 1 22 47
M  V30 52 1 23 48
M  V30 53 1 26 49
M  V30 54 1 28 50
M  V30 55 1 29 51
M  V30 56 1 32 52
M  V30 57 1 33 53
M  V30 58 1 33 54
M  V30 59 1 34 55
M  V30 60 1 34 56
M  V30 END BOND
M  V30 END CTAB
M  END
>  <Dataset>  (853) 
ChEMBL_Kinases

>  <Ligand_Instance>  (853) 
nan

>  <PDB_ID>  (853) 
nan

>  <Standardized_SMILES>  (853) 
CS(=O)(=O)N1CC=C(c2cc3c(-c4cncc(OCc5cccc(F)c5)n4)ccnc3[nH]2)CC1

>  <Name>  (853) 
nan

>  <Pocket>  (853) 
nan

>  <ATP_Site>  (853) 
nan

>  <Peripheral>  (853) 
nan

>  <Num_H_Atoms_ProtBoundConf>  (853) 
nan

>  <Num_Resolved_Atoms>  (853) 
nan

>  <Num_Not_Resolved_Atoms>  (853) 
nan

$$$$
CHEMBL3673538
     RDKit          3D

  0  0  0  0  0  0  0  0  0  0999 V3000
M  V30 BEGIN CTAB
M  V30 COUNTS 57 61 0 0 0
M  V30 BEGIN ATOM
M  V30 1 O 2.947668 -4.166244 -3.483306 0
M  V30 2 C 3.217000 -3.474973 -2.450110 0
M  V30 3 C 3.805176 -4.152496 -1.245069 0
M  V30 4 O 3.935094 -5.503729 -1.565237 0
M  V30 5 N 3.012840 -2.071272 -2.306937 0
M  V30 6 C 3.330218 -1.300513 -1.110898 0
M  V30 7 C 2.074181 -0.637187 -0.670274 0
M  V30 8 C 1.391827 0.001029 -1.601493 0
M  V30 9 C 0.147559 0.678871 -1.251236 0
M  V30 10 C -0.406942 0.722308 0.013068 0
M  V30 11 C -1.580974 1.443674 -0.006723 0
M  V30 12 C -2.527908 1.804386 0.929257 0
M  V30 13 C -2.367776 1.386979 2.317913 0
M  V30 14 C -3.283332 1.744891 3.284460 0
M  V30 15 N -3.158973 1.377048 4.576626 0
M  V30 16 C -2.115407 0.629937 4.987290 0
M  V30 17 C -1.182773 0.256558 4.040722 0
M  V30 18 N -0.001545 -0.520431 4.214361 0
M  V30 19 C -0.354372 -1.917840 4.075609 0
M  V30 20 C -0.940542 -2.176689 2.742086 0
M  V30 21 C -2.329454 -2.039162 2.637913 0
M  V30 22 C -3.043607 -2.242624 1.475677 0
M  V30 23 C -2.360992 -2.605627 0.332365 0
M  V30 24 C -0.989394 -2.747426 0.411092 0
M  V30 25 F -0.303369 -3.105158 -0.709048 0
M  V30 26 C -0.288071 -2.539735 1.584004 0
M  V30 27 N -1.348658 0.643301 2.780284 0
M  V30 28 C -3.584382 2.557855 0.468152 0
M  V30 29 C -3.712865 2.942700 -0.845301 0
M  V30 30 N -2.764132 2.571474 -1.740913 0
M  V30 31 C -1.714380 1.834389 -1.332251 0
M  V30 32 N -0.677325 1.370551 -2.057510 0
M  V30 33 C 1.914207 0.012211 -2.986485 0
M  V30 34 C 2.448886 -1.324864 -3.417010 0
M  V30 35 H 3.175508 -4.060481 -0.358450 0
M  V30 36 H 4.820905 -3.732340 -1.074216 0
M  V30 37 H 4.656529 -5.659344 -2.242509 0
M  V30 38 H 3.711557 -2.009251 -0.325117 0
M  V30 39 H 4.098352 -0.523711 -1.317057 0
M  V30 40 H 1.761864 -0.691164 0.361862 0
M  V30 41 H 0.025849 0.254375 0.886043 0
M  V30 42 H -4.149461 2.334461 3.077389 0
M  V30 43 H -1.897357 0.269248 5.983042 0
M  V30 44 H 0.876812 0.037348 4.403771 0
M  V30 45 H -1.084742 -2.190791 4.854747 0
M  V30 46 H 0.594055 -2.499674 4.170617 0
M  V30 47 H -2.912910 -1.755033 3.507674 0
M  V30 48 H -4.122123 -2.118424 1.464773 0
M  V30 49 H -2.933973 -2.762206 -0.571380 0
M  V30 50 H 0.780261 -2.640925 1.680353 0
M  V30 51 H -4.350996 2.871108 1.136272 0
M  V30 52 H -4.554294 3.533503 -1.173296 0
M  V30 53 H -0.495940 1.500101 -3.086520 0
M  V30 54 H 2.786750 0.710435 -3.004853 0
M  V30 55 H 1.163563 0.347222 -3.731062 0
M  V30 56 H 1.663627 -1.955818 -3.872950 0
M  V30 57 H 3.260693 -1.224585 -4.169120 0
M  V30 END ATOM
M  V30 BEGIN BOND
M  V30 1 2 1 2
M  V30 2 1 2 3
M  V30 3 1 3 4
M  V30 4 1 2 5
M  V30 5 1 5 6
M  V30 6 1 6 7
M  V30 7 2 7 8
M  V30 8 1 8 9
M  V30 9 2 9 10
M  V30 10 1 10 11
M  V30 11 2 11 12
M  V30 12 1 12 13
M  V30 13 2 13 14
M  V30 14 1 14 15
M  V30 15 2 15 16
M  V30 16 1 16 17
M  V30 17 1 17 18
M  V30 18 1 18 19
M  V30 19 1 19 20
M  V30 20 2 20 21
M  V30 21 1 21 22
M  V30 22 2 22 23
M  V30 23 1 23 24
M  V30 24 1 24 25
M  V30 25 2 24 26
M  V30 26 2 17 27
M  V30 27 1 12 28
M  V30 28 2 28 29
M  V30 29 1 29 30
M  V30 30 2 30 31
M  V30 31 1 31 32
M  V30 32 1 8 33
M  V30 33 1 33 34
M  V30 34 1 34 5
M  V30 35 1 32 9
M  V30 36 1 31 11
M  V30 37 1 27 13
M  V30 38 1 26 20
M  V30 39 1 3 35
M  V30 40 1 3 36
M  V30 41 1 4 37
M  V30 42 1 6 38
M  V30 43 1 6 39
M  V30 44 1 7 40
M  V30 45 1 10 41
M  V30 46 1 14 42
M  V30 47 1 16 43
M  V30 48 1 18 44
M  V30 49 1 19 45
M  V30 50 1 19 46
M  V30 51 1 21 47
M  V30 52 1 22 48
M  V30 53 1 23 49
M  V30 54 1 26 50
M  V30 55 1 28 51
M  V30 56 1 29 52
M  V30 57 1 32 53
M  V30 58 1 33 54
M  V30 59 1 33 55
M  V30 60 1 34 56
M  V30 61 1 34 57
M  V30 END BOND
M  V30 END CTAB
M  END
>  <Dataset>  (854) 
ChEMBL_Kinases

>  <Ligand_Instance>  (854) 
nan

>  <PDB_ID>  (854) 
nan

>  <Standardized_SMILES>  (854) 
O=C(CO)N1CC=C(c2cc3c(-c4cncc(NCc5cccc(F)c5)n4)ccnc3[nH]2)CC1

>  <Name>  (854) 
nan

>  <Pocket>  (854) 
nan

>  <ATP_Site>  (854) 
nan

>  <Peripheral>  (854) 
nan

>  <Num_H_Atoms_ProtBoundConf>  (854) 
nan

>  <Num_Resolved_Atoms>  (854) 
nan

>  <Num_Not_Resolved_Atoms>  (854) 
nan

$$$$
CHEMBL3673537
     RDKit          3D

  0  0  0  0  0  0  0  0  0  0999 V3000
M  V30 BEGIN CTAB
M  V30 COUNTS 59 63 0 0 0
M  V30 BEGIN ATOM
M  V30 1 C 3.500783 -0.525391 5.466496 0
M  V30 2 N 3.690141 0.029229 4.139304 0
M  V30 3 C 3.620734 -0.812671 2.978730 0
M  V30 4 O 3.384037 -2.018563 3.312335 0
M  V30 5 N 3.792331 -0.369866 1.629408 0
M  V30 6 C 4.050554 1.043285 1.502293 0
M  V30 7 C 4.181765 1.493661 0.080336 0
M  V30 8 C 4.015670 0.424169 -0.932681 0
M  V30 9 C 2.614589 0.299551 -1.413586 0
M  V30 10 C 1.446519 0.384905 -0.697251 0
M  V30 11 C 0.366397 0.201728 -1.521022 0
M  V30 12 C -0.965357 0.193204 -1.216438 0
M  V30 13 C -1.624225 0.371966 0.053327 0
M  V30 14 C -1.226191 0.992137 1.189397 0
M  V30 15 N -1.973739 1.125568 2.294736 0
M  V30 16 C -3.218836 0.625004 2.329643 0
M  V30 17 C -3.675392 -0.018164 1.194075 0
M  V30 18 N -4.995804 -0.551475 1.191534 0
M  V30 19 C -5.660907 -1.330464 0.139455 0
M  V30 20 C -5.010452 -2.637826 -0.074077 0
M  V30 21 C -5.478040 -3.687162 0.712919 0
M  V30 22 C -4.994060 -4.973938 0.649239 0
M  V30 23 C -3.981281 -5.245472 -0.250330 0
M  V30 24 N -3.514786 -4.238497 -1.023093 0
M  V30 25 C -4.010423 -2.996902 -0.933731 0
M  V30 26 N -2.873953 -0.111444 0.134468 0
M  V30 27 C -1.760765 -0.054863 -2.341464 0
M  V30 28 C -1.265324 -0.263976 -3.605949 0
M  V30 29 N 0.066235 -0.231446 -3.790575 0
M  V30 30 C 0.913554 0.001508 -2.754978 0
M  V30 31 N 2.251915 0.061148 -2.687598 0
M  V30 32 C 4.502461 -0.938894 -0.541696 0
M  V30 33 C 3.680902 -1.414723 0.626396 0
M  V30 34 H 3.011311 0.181147 6.163720 0
M  V30 35 H 4.447941 -0.940999 5.872058 0
M  V30 36 H 2.804764 -1.387421 5.349962 0
M  V30 37 H 3.884781 1.059625 3.964350 0
M  V30 38 H 3.265804 1.624443 2.027268 0
M  V30 39 H 5.014172 1.243767 2.046475 0
M  V30 40 H 3.373500 2.248922 -0.126025 0
M  V30 41 H 5.131687 2.046562 -0.064903 0
M  V30 42 H 4.624573 0.759211 -1.841144 0
M  V30 43 H 1.482981 0.561329 0.345326 0
M  V30 44 H -0.275092 1.433578 1.222750 0
M  V30 45 H -3.809916 0.737580 3.220987 0
M  V30 46 H -5.593286 -0.376071 2.049524 0
M  V30 47 H -5.607649 -0.762049 -0.829076 0
M  V30 48 H -6.719099 -1.501580 0.404534 0
M  V30 49 H -6.275100 -3.540048 1.441713 0
M  V30 50 H -5.373183 -5.758768 1.266494 0
M  V30 51 H -3.600318 -6.255004 -0.301029 0
M  V30 52 H -3.640129 -2.201812 -1.549497 0
M  V30 53 H -2.838310 -0.086898 -2.255047 0
M  V30 54 H -1.931510 -0.450080 -4.434095 0
M  V30 55 H 2.850648 -0.065462 -3.523604 0
M  V30 56 H 5.575002 -0.905913 -0.247034 0
M  V30 57 H 4.337803 -1.612199 -1.409607 0
M  V30 58 H 4.068242 -2.386132 1.030733 0
M  V30 59 H 2.610200 -1.505990 0.345090 0
M  V30 END ATOM
M  V30 BEGIN BOND
M  V30 1 1 1 2
M  V30 2 1 2 3
M  V30 3 2 3 4
M  V30 4 1 3 5
M  V30 5 1 5 6
M  V30 6 1 6 7
M  V30 7 1 7 8
M  V30 8 1 8 9
M  V30 9 2 9 10
M  V30 10 1 10 11
M  V30 11 2 11 12
M  V30 12 1 12 13
M  V30 13 2 13 14
M  V30 14 1 14 15
M  V30 15 2 15 16
M  V30 16 1 16 17
M  V30 17 1 17 18
M  V30 18 1 18 19
M  V30 19 1 19 20
M  V30 20 2 20 21
M  V30 21 1 21 22
M  V30 22 2 22 23
M  V30 23 1 23 24
M  V30 24 2 24 25
M  V30 25 2 17 26
M  V30 26 1 12 27
M  V30 27 2 27 28
M  V30 28 1 28 29
M  V30 29 2 29 30
M  V30 30 1 30 31
M  V30 31 1 8 32
M  V30 32 1 32 33
M  V30 33 1 33 5
M  V30 34 1 31 9
M  V30 35 1 30 11
M  V30 36 1 26 13
M  V30 37 1 25 20
M  V30 38 1 1 34
M  V30 39 1 1 35
M  V30 40 1 1 36
M  V30 41 1 2 37
M  V30 42 1 6 38
M  V30 43 1 6 39
M  V30 44 1 7 40
M  V30 45 1 7 41
M  V30 46 1 8 42
M  V30 47 1 10 43
M  V30 48 1 14 44
M  V30 49 1 16 45
M  V30 50 1 18 46
M  V30 51 1 19 47
M  V30 52 1 19 48
M  V30 53 1 21 49
M  V30 54 1 22 50
M  V30 55 1 23 51
M  V30 56 1 25 52
M  V30 57 1 27 53
M  V30 58 1 28 54
M  V30 59 1 31 55
M  V30 60 1 32 56
M  V30 61 1 32 57
M  V30 62 1 33 58
M  V30 63 1 33 59
M  V30 END BOND
M  V30 END CTAB
M  END
>  <Dataset>  (855) 
ChEMBL_Kinases

>  <Ligand_Instance>  (855) 
nan

>  <PDB_ID>  (855) 
nan

>  <Standardized_SMILES>  (855) 
CNC(=O)N1CCC(c2cc3c(-c4cncc(NCc5cccnc5)n4)ccnc3[nH]2)CC1

>  <Name>  (855) 
nan

>  <Pocket>  (855) 
nan

>  <ATP_Site>  (855) 
nan

>  <Peripheral>  (855) 
nan

>  <Num_H_Atoms_ProtBoundConf>  (855) 
nan

>  <Num_Resolved_Atoms>  (855) 
nan

>  <Num_Not_Resolved_Atoms>  (855) 
nan

$$$$
CHEMBL3673536
     RDKit          3D

  0  0  0  0  0  0  0  0  0  0999 V3000
M  V30 BEGIN CTAB
M  V30 COUNTS 58 62 0 0 0
M  V30 BEGIN ATOM
M  V30 1 O 2.209084 1.170035 4.138929 0
M  V30 2 C 3.098719 1.044620 3.252569 0
M  V30 3 C 3.450248 -0.055470 4.188559 0
M  V30 4 O 2.507884 -0.001736 5.229311 0
M  V30 5 N 3.910161 1.213936 2.096857 0
M  V30 6 C 5.036471 0.389254 1.790728 0
M  V30 7 C 4.852235 -0.249065 0.439442 0
M  V30 8 C 4.213120 0.638080 -0.568039 0
M  V30 9 C 2.927430 0.035365 -1.069302 0
M  V30 10 C 1.786458 -0.168211 -0.329769 0
M  V30 11 C 0.815750 -0.737208 -1.109764 0
M  V30 12 C -0.468581 -1.091420 -0.790928 0
M  V30 13 C -1.169707 -0.965999 0.457283 0
M  V30 14 C -0.702306 -0.900169 1.731576 0
M  V30 15 N -1.463322 -0.828107 2.832600 0
M  V30 16 C -2.798594 -0.817818 2.726751 0
M  V30 17 C -3.349732 -0.884542 1.439033 0
M  V30 18 N -4.763817 -0.864222 1.361053 0
M  V30 19 C -5.743780 -0.892423 0.312916 0
M  V30 20 C -5.671735 -2.149531 -0.485762 0
M  V30 21 C -5.006566 -2.438212 -1.652976 0
M  V30 22 C -5.092751 -3.693720 -2.188730 0
M  V30 23 C -5.830070 -4.676293 -1.587924 0
M  V30 24 N -6.495033 -4.402855 -0.429493 0
M  V30 25 C -6.416211 -3.182820 0.098965 0
M  V30 26 N -2.515946 -0.952897 0.415303 0
M  V30 27 C -1.162399 -1.620306 -1.876912 0
M  V30 28 C -0.636064 -1.778749 -3.131566 0
M  V30 29 N 0.649070 -1.396452 -3.339175 0
M  V30 30 C 1.391768 -0.874830 -2.347571 0
M  V30 31 N 2.650546 -0.412166 -2.312160 0
M  V30 32 C 4.043193 2.067033 -0.165844 0
M  V30 33 C 3.531663 2.297871 1.212849 0
M  V30 34 H 3.450752 -1.043692 3.725907 0
M  V30 35 H 4.439095 0.193275 4.632767 0
M  V30 36 H 1.901363 -0.784400 5.206378 0
M  V30 37 H 5.314770 -0.313519 2.571890 0
M  V30 38 H 5.920944 1.085830 1.695452 0
M  V30 39 H 5.849748 -0.660938 0.102650 0
M  V30 40 H 4.210262 -1.140997 0.590118 0
M  V30 41 H 4.893249 0.646382 -1.458960 0
M  V30 42 H 1.751814 0.123470 0.688920 0
M  V30 43 H 0.346705 -0.936454 1.913080 0
M  V30 44 H -3.385480 -0.758754 3.626467 0
M  V30 45 H -5.302605 -0.818636 2.284303 0
M  V30 46 H -6.778688 -0.719273 0.634270 0
M  V30 47 H -5.505533 -0.005299 -0.347358 0
M  V30 48 H -4.482131 -1.538365 -1.987187 0
M  V30 49 H -4.517745 -3.792109 -3.116421 0
M  V30 50 H -5.818563 -5.634916 -2.114880 0
M  V30 51 H -6.998763 -3.119606 1.020083 0
M  V30 52 H -2.167173 -1.933115 -1.749941 0
M  V30 53 H -1.226323 -2.196316 -3.932135 0
M  V30 54 H 3.330369 -0.392544 -3.114795 0
M  V30 55 H 4.977750 2.651953 -0.355321 0
M  V30 56 H 3.277359 2.499113 -0.871556 0
M  V30 57 H 2.450634 2.510262 1.269962 0
M  V30 58 H 4.025612 3.219824 1.634762 0
M  V30 END ATOM
M  V30 BEGIN BOND
M  V30 1 2 1 2
M  V30 2 1 2 3
M  V30 3 1 3 4
M  V30 4 1 2 5
M  V30 5 1 5 6
M  V30 6 1 6 7
M  V30 7 1 7 8
M  V30 8 1 8 9
M  V30 9 2 9 10
M  V30 10 1 10 11
M  V30 11 2 11 12
M  V30 12 1 12 13
M  V30 13 2 13 14
M  V30 14 1 14 15
M  V30 15 2 15 16
M  V30 16 1 16 17
M  V30 17 1 17 18
M  V30 18 1 18 19
M  V30 19 1 19 20
M  V30 20 2 20 21
M  V30 21 1 21 22
M  V30 22 2 22 23
M  V30 23 1 23 24
M  V30 24 2 24 25
M  V30 25 2 17 26
M  V30 26 1 12 27
M  V30 27 2 27 28
M  V30 28 1 28 29
M  V30 29 2 29 30
M  V30 30 1 30 31
M  V30 31 1 8 32
M  V30 32 1 32 33
M  V30 33 1 33 5
M  V30 34 1 31 9
M  V30 35 1 30 11
M  V30 36 1 26 13
M  V30 37 1 25 20
M  V30 38 1 3 34
M  V30 39 1 3 35
M  V30 40 1 4 36
M  V30 41 1 6 37
M  V30 42 1 6 38
M  V30 43 1 7 39
M  V30 44 1 7 40
M  V30 45 1 8 41
M  V30 46 1 10 42
M  V30 47 1 14 43
M  V30 48 1 16 44
M  V30 49 1 18 45
M  V30 50 1 19 46
M  V30 51 1 19 47
M  V30 52 1 21 48
M  V30 53 1 22 49
M  V30 54 1 23 50
M  V30 55 1 25 51
M  V30 56 1 27 52
M  V30 57 1 28 53
M  V30 58 1 31 54
M  V30 59 1 32 55
M  V30 60 1 32 56
M  V30 61 1 33 57
M  V30 62 1 33 58
M  V30 END BOND
M  V30 END CTAB
M  END
>  <Dataset>  (856) 
ChEMBL_Kinases

>  <Ligand_Instance>  (856) 
nan

>  <PDB_ID>  (856) 
nan

>  <Standardized_SMILES>  (856) 
O=C(CO)N1CCC(c2cc3c(-c4cncc(NCc5cccnc5)n4)ccnc3[nH]2)CC1

>  <Name>  (856) 
nan

>  <Pocket>  (856) 
nan

>  <ATP_Site>  (856) 
nan

>  <Peripheral>  (856) 
nan

>  <Num_H_Atoms_ProtBoundConf>  (856) 
nan

>  <Num_Resolved_Atoms>  (856) 
nan

>  <Num_Not_Resolved_Atoms>  (856) 
nan

$$$$
CHEMBL3673535
     RDKit          3D

  0  0  0  0  0  0  0  0  0  0999 V3000
M  V30 BEGIN CTAB
M  V30 COUNTS 63 67 0 0 0
M  V30 BEGIN ATOM
M  V30 1 O 1.951652 -0.829560 5.395205 0
M  V30 2 C 1.502982 0.289994 4.702860 0
M  V30 3 C 0.142957 0.757905 5.187046 0
M  V30 4 O -0.767594 -0.240145 5.033251 0
M  V30 5 C -0.212625 2.102845 4.610466 0
M  V30 6 N -0.483506 2.036351 3.193962 0
M  V30 7 C -0.538975 3.334361 2.541023 0
M  V30 8 C -0.716896 3.115903 1.063972 0
M  V30 9 C -0.967563 1.730341 0.610434 0
M  V30 10 C 0.270488 1.010021 0.165079 0
M  V30 11 C 0.394795 0.025196 -0.795686 0
M  V30 12 C 1.723518 -0.320529 -0.847756 0
M  V30 13 C 2.414841 -1.239444 -1.602089 0
M  V30 14 C 1.728721 -2.094702 -2.561151 0
M  V30 15 C 2.404997 -3.108176 -3.200436 0
M  V30 16 N 1.761579 -3.900045 -4.069772 0
M  V30 17 C 0.439835 -3.708508 -4.325007 0
M  V30 18 C -0.265819 -2.672546 -3.674243 0
M  V30 19 N -1.610619 -2.669997 -4.083511 0
M  V30 20 C -2.870646 -2.634797 -3.402099 0
M  V30 21 C -2.932586 -3.575580 -2.244189 0
M  V30 22 C -2.796474 -2.968735 -0.986758 0
M  V30 23 C -2.814673 -3.692574 0.184529 0
M  V30 24 C -2.972489 -5.069404 0.120822 0
M  V30 25 N -3.100968 -5.634537 -1.079336 0
M  V30 26 C -3.084977 -4.939555 -2.219888 0
M  V30 27 N 0.442535 -1.926607 -2.824526 0
M  V30 28 C 3.774910 -1.384595 -1.436843 0
M  V30 29 C 4.392124 -0.562891 -0.482030 0
M  V30 30 N 3.726630 0.320737 0.245782 0
M  V30 31 C 2.392070 0.458299 0.080369 0
M  V30 32 N 1.476434 1.267161 0.689173 0
M  V30 33 C -1.747539 0.873102 1.586791 0
M  V30 34 C -1.818146 1.486450 2.948556 0
M  V30 35 H 2.288335 -1.550607 4.827309 0
M  V30 36 H 2.234358 1.120806 4.967486 0
M  V30 37 H 1.555010 0.120810 3.614029 0
M  V30 38 H 0.260108 0.917514 6.300162 0
M  V30 39 H -0.620901 -0.801866 4.213451 0
M  V30 40 H -1.053248 2.579281 5.115271 0
M  V30 41 H 0.659864 2.770165 4.749807 0
M  V30 42 H -1.429112 3.865682 2.928126 0
M  V30 43 H 0.391897 3.873751 2.797833 0
M  V30 44 H 0.264978 3.432213 0.600655 0
M  V30 45 H -1.464228 3.849004 0.645406 0
M  V30 46 H -1.621144 1.765218 -0.282045 0
M  V30 47 H -0.430665 -0.338317 -1.346719 0
M  V30 48 H 3.444574 -3.346435 -3.063821 0
M  V30 49 H 0.010235 -4.403685 -5.047487 0
M  V30 50 H -1.743773 -2.678759 -5.137073 0
M  V30 51 H -3.208166 -1.623877 -3.106828 0
M  V30 52 H -3.669399 -3.005582 -4.099960 0
M  V30 53 H -2.674390 -1.897748 -0.825641 0
M  V30 54 H -2.714711 -3.259913 1.155693 0
M  V30 55 H -2.985211 -5.666332 1.038998 0
M  V30 56 H -3.185994 -5.365531 -3.232453 0
M  V30 57 H 4.426949 -2.041685 -1.949009 0
M  V30 58 H 5.452279 -0.632040 -0.318211 0
M  V30 59 H 1.735442 1.964593 1.447839 0
M  V30 60 H -1.255757 -0.120365 1.649491 0
M  V30 61 H -2.802416 0.687988 1.268909 0
M  V30 62 H -2.221669 0.858453 3.719936 0
M  V30 63 H -2.537682 2.358952 2.865138 0
M  V30 END ATOM
M  V30 BEGIN BOND
M  V30 1 1 1 2
M  V30 2 1 2 3
M  V30 3 1 3 4
M  V30 4 1 3 5
M  V30 5 1 5 6
M  V30 6 1 6 7
M  V30 7 1 7 8
M  V30 8 1 8 9
M  V30 9 1 9 10
M  V30 10 2 10 11
M  V30 11 1 11 12
M  V30 12 2 12 13
M  V30 13 1 13 14
M  V30 14 2 14 15
M  V30 15 1 15 16
M  V30 16 2 16 17
M  V30 17 1 17 18
M  V30 18 1 18 19
M  V30 19 1 19 20
M  V30 20 1 20 21
M  V30 21 2 21 22
M  V30 22 1 22 23
M  V30 23 2 23 24
M  V30 24 1 24 25
M  V30 25 2 25 26
M  V30 26 2 18 27
M  V30 27 1 13 28
M  V30 28 2 28 29
M  V30 29 1 29 30
M  V30 30 2 30 31
M  V30 31 1 31 32
M  V30 32 1 9 33
M  V30 33 1 33 34
M  V30 34 1 34 6
M  V30 35 1 32 10
M  V30 36 1 31 12
M  V30 37 1 27 14
M  V30 38 1 26 21
M  V30 39 1 1 35
M  V30 40 1 2 36
M  V30 41 1 2 37
M  V30 42 1 3 38
M  V30 43 1 4 39
M  V30 44 1 5 40
M  V30 45 1 5 41
M  V30 46 1 7 42
M  V30 47 1 7 43
M  V30 48 1 8 44
M  V30 49 1 8 45
M  V30 50 1 9 46
M  V30 51 1 11 47
M  V30 52 1 15 48
M  V30 53 1 17 49
M  V30 54 1 19 50
M  V30 55 1 20 51
M  V30 56 1 20 52
M  V30 57 1 22 53
M  V30 58 1 23 54
M  V30 59 1 24 55
M  V30 60 1 26 56
M  V30 61 1 28 57
M  V30 62 1 29 58
M  V30 63 1 32 59
M  V30 64 1 33 60
M  V30 65 1 33 61
M  V30 66 1 34 62
M  V30 67 1 34 63
M  V30 END BOND
M  V30 END CTAB
M  END
>  <Dataset>  (857) 
ChEMBL_Kinases

>  <Ligand_Instance>  (857) 
nan

>  <PDB_ID>  (857) 
nan

>  <Standardized_SMILES>  (857) 
OCC(O)CN1CCC(c2cc3c(-c4cncc(NCc5cccnc5)n4)ccnc3[nH]2)CC1

>  <Name>  (857) 
nan

>  <Pocket>  (857) 
nan

>  <ATP_Site>  (857) 
nan

>  <Peripheral>  (857) 
nan

>  <Num_H_Atoms_ProtBoundConf>  (857) 
nan

>  <Num_Resolved_Atoms>  (857) 
nan

>  <Num_Not_Resolved_Atoms>  (857) 
nan

$$$$
CHEMBL3673534
     RDKit          3D

  0  0  0  0  0  0  0  0  0  0999 V3000
M  V30 BEGIN CTAB
M  V30 COUNTS 55 59 0 0 0
M  V30 BEGIN ATOM
M  V30 1 C -2.004712 -2.256809 0.436933 0
M  V30 2 N -1.097296 -2.519902 1.513769 0
M  V30 3 C -1.053444 -1.514844 2.520602 0
M  V30 4 C 0.155561 -1.713751 3.390028 0
M  V30 5 C 0.933135 -2.949238 3.045989 0
M  V30 6 C 1.649707 -2.761111 1.755686 0
M  V30 7 C 1.586166 -1.716048 0.843442 0
M  V30 8 C 2.417554 -1.964453 -0.226782 0
M  V30 9 C 2.789467 -1.344923 -1.402603 0
M  V30 10 C 2.207891 -0.044160 -1.704463 0
M  V30 11 C 2.583488 0.654999 -2.824633 0
M  V30 12 N 2.118253 1.872778 -3.185895 0
M  V30 13 C 1.203754 2.464489 -2.383271 0
M  V30 14 C 0.798425 1.791453 -1.243033 0
M  V30 15 N -0.154259 2.328861 -0.308473 0
M  V30 16 C -1.449903 2.126584 -0.902776 0
M  V30 17 C -2.566706 2.599183 -0.024017 0
M  V30 18 C -3.144784 1.728729 0.864059 0
M  V30 19 C -4.184872 2.080640 1.725279 0
M  V30 20 C -4.636255 3.397382 1.652343 0
M  V30 21 N -4.069045 4.249007 0.781316 0
M  V30 22 C -3.060871 3.910244 -0.054331 0
M  V30 23 N 1.302143 0.574663 -0.937462 0
M  V30 24 C 3.696357 -1.984817 -2.206740 0
M  V30 25 C 4.270021 -3.206155 -1.930360 0
M  V30 26 N 3.878599 -3.785921 -0.760220 0
M  V30 27 C 3.002674 -3.206037 0.052983 0
M  V30 28 N 2.517279 -3.629553 1.228016 0
M  V30 29 C -0.045420 -4.118922 2.949605 0
M  V30 30 C -1.258601 -3.789260 2.129852 0
M  V30 31 H -1.948843 -3.110258 -0.269250 0
M  V30 32 H -3.030573 -2.274941 0.876639 0
M  V30 33 H -1.821359 -1.328960 -0.095957 0
M  V30 34 H -1.979852 -1.597688 3.133767 0
M  V30 35 H -1.035901 -0.470746 2.147925 0
M  V30 36 H -0.150891 -1.816774 4.454331 0
M  V30 37 H 0.852413 -0.846017 3.346619 0
M  V30 38 H 1.655981 -3.217530 3.858927 0
M  V30 39 H 0.996260 -0.834147 0.931876 0
M  V30 40 H 3.298549 0.301963 -3.545050 0
M  V30 41 H 0.787893 3.429969 -2.604291 0
M  V30 42 H 0.158817 2.750877 0.580818 0
M  V30 43 H -1.648336 1.093205 -1.187583 0
M  V30 44 H -1.501000 2.740091 -1.839962 0
M  V30 45 H -2.754361 0.714862 0.880451 0
M  V30 46 H -4.634900 1.381624 2.425224 0
M  V30 47 H -5.448368 3.715265 2.309740 0
M  V30 48 H -2.608348 4.593393 -0.751630 0
M  V30 49 H 4.015012 -1.533435 -3.136957 0
M  V30 50 H 4.981148 -3.655463 -2.612953 0
M  V30 51 H 2.772905 -4.537800 1.700326 0
M  V30 52 H 0.499539 -5.015514 2.549448 0
M  V30 53 H -0.325867 -4.339593 4.017405 0
M  V30 54 H -1.404254 -4.559667 1.335002 0
M  V30 55 H -2.164887 -3.796761 2.807541 0
M  V30 END ATOM
M  V30 BEGIN BOND
M  V30 1 1 1 2
M  V30 2 1 2 3
M  V30 3 1 3 4
M  V30 4 1 4 5
M  V30 5 1 5 6
M  V30 6 2 6 7
M  V30 7 1 7 8
M  V30 8 2 8 9
M  V30 9 1 9 10
M  V30 10 2 10 11
M  V30 11 1 11 12
M  V30 12 2 12 13
M  V30 13 1 13 14
M  V30 14 1 14 15
M  V30 15 1 15 16
M  V30 16 1 16 17
M  V30 17 2 17 18
M  V30 18 1 18 19
M  V30 19 2 19 20
M  V30 20 1 20 21
M  V30 21 2 21 22
M  V30 22 2 14 23
M  V30 23 1 9 24
M  V30 24 2 24 25
M  V30 25 1 25 26
M  V30 26 2 26 27
M  V30 27 1 27 28
M  V30 28 1 5 29
M  V30 29 1 29 30
M  V30 30 1 30 2
M  V30 31 1 28 6
M  V30 32 1 27 8
M  V30 33 1 23 10
M  V30 34 1 22 17
M  V30 35 1 1 31
M  V30 36 1 1 32
M  V30 37 1 1 33
M  V30 38 1 3 34
M  V30 39 1 3 35
M  V30 40 1 4 36
M  V30 41 1 4 37
M  V30 42 1 5 38
M  V30 43 1 7 39
M  V30 44 1 11 40
M  V30 45 1 13 41
M  V30 46 1 15 42
M  V30 47 1 16 43
M  V30 48 1 16 44
M  V30 49 1 18 45
M  V30 50 1 19 46
M  V30 51 1 20 47
M  V30 52 1 22 48
M  V30 53 1 24 49
M  V30 54 1 25 50
M  V30 55 1 28 51
M  V30 56 1 29 52
M  V30 57 1 29 53
M  V30 58 1 30 54
M  V30 59 1 30 55
M  V30 END BOND
M  V30 END CTAB
M  END
>  <Dataset>  (858) 
ChEMBL_Kinases

>  <Ligand_Instance>  (858) 
nan

>  <PDB_ID>  (858) 
nan

>  <Standardized_SMILES>  (858) 
CN1CCC(c2cc3c(-c4cncc(NCc5cccnc5)n4)ccnc3[nH]2)CC1

>  <Name>  (858) 
nan

>  <Pocket>  (858) 
nan

>  <ATP_Site>  (858) 
nan

>  <Peripheral>  (858) 
nan

>  <Num_H_Atoms_ProtBoundConf>  (858) 
nan

>  <Num_Resolved_Atoms>  (858) 
nan

>  <Num_Not_Resolved_Atoms>  (858) 
nan

$$$$
CHEMBL3673533
     RDKit          3D

  0  0  0  0  0  0  0  0  0  0999 V3000
M  V30 BEGIN CTAB
M  V30 COUNTS 58 62 0 0 0
M  V30 BEGIN ATOM
M  V30 1 C 3.575754 -6.578609 0.665003 0
M  V30 2 N 3.229635 -5.182667 0.623023 0
M  V30 3 C 3.831451 -4.172799 -0.146627 0
M  V30 4 O 4.793441 -4.568241 -0.884193 0
M  V30 5 N 3.466110 -2.822284 -0.160848 0
M  V30 6 C 4.219114 -1.969345 -1.022949 0
M  V30 7 C 3.324679 -0.950783 -1.631289 0
M  V30 8 C 2.245121 -0.528461 -0.991384 0
M  V30 9 C 1.382952 0.473111 -1.611470 0
M  V30 10 C 0.223697 1.042606 -1.123403 0
M  V30 11 C -0.319272 1.956348 -1.993938 0
M  V30 12 C -1.435594 2.766204 -1.967591 0
M  V30 13 C -2.327781 2.745037 -0.812177 0
M  V30 14 C -3.444357 3.551073 -0.776139 0
M  V30 15 N -4.296970 3.566675 0.267023 0
M  V30 16 C -4.091755 2.779522 1.342307 0
M  V30 17 C -2.978088 1.965437 1.323534 0
M  V30 18 N -2.556760 1.045677 2.351925 0
M  V30 19 C -3.174418 -0.249073 2.073022 0
M  V30 20 C -2.791831 -1.276878 3.094689 0
M  V30 21 C -1.646605 -2.045019 2.854531 0
M  V30 22 C -1.215781 -3.020807 3.745922 0
M  V30 23 C -1.946626 -3.232166 4.901949 0
M  V30 24 C -3.086233 -2.474023 5.149811 0
M  V30 25 F -3.778746 -2.707911 6.293213 0
M  V30 26 C -3.505058 -1.505217 4.254418 0
M  V30 27 N -2.145821 1.969957 0.271830 0
M  V30 28 C -1.615565 3.555881 -3.082475 0
M  V30 29 C -0.750127 3.548677 -4.156747 0
M  V30 30 N 0.324312 2.735843 -4.125523 0
M  V30 31 C 0.564427 1.929693 -3.058134 0
M  V30 32 N 1.560685 1.054282 -2.821910 0
M  V30 33 C 1.849626 -1.025209 0.352941 0
M  V30 34 C 2.386391 -2.384474 0.668175 0
M  V30 35 H 3.754582 -6.890409 1.717074 0
M  V30 36 H 4.536364 -6.770588 0.123598 0
M  V30 37 H 2.764703 -7.215792 0.269878 0
M  V30 38 H 2.432570 -4.913514 1.248374 0
M  V30 39 H 5.014351 -1.390250 -0.475544 0
M  V30 40 H 4.744460 -2.505473 -1.827836 0
M  V30 41 H 3.553483 -0.549061 -2.603329 0
M  V30 42 H -0.159111 0.754976 -0.154126 0
M  V30 43 H -3.727945 4.218496 -1.550474 0
M  V30 44 H -4.697262 2.700826 2.235033 0
M  V30 45 H -1.915092 1.315642 3.141461 0
M  V30 46 H -4.271542 -0.083308 2.088869 0
M  V30 47 H -2.903484 -0.651068 1.080254 0
M  V30 48 H -1.092369 -1.852246 1.931667 0
M  V30 49 H -0.317746 -3.591195 3.511859 0
M  V30 50 H -1.582312 -3.995149 5.566903 0
M  V30 51 H -4.403283 -0.897656 4.435503 0
M  V30 52 H -2.461137 4.208592 -3.129385 0
M  V30 53 H -0.944976 4.191553 -5.003790 0
M  V30 54 H 2.361539 0.856389 -3.491323 0
M  V30 55 H 2.115025 -0.307780 1.160115 0
M  V30 56 H 0.723639 -1.095646 0.419667 0
M  V30 57 H 1.593511 -3.167062 0.609912 0
M  V30 58 H 2.756634 -2.400186 1.716386 0
M  V30 END ATOM
M  V30 BEGIN BOND
M  V30 1 1 1 2
M  V30 2 1 2 3
M  V30 3 2 3 4
M  V30 4 1 3 5
M  V30 5 1 5 6
M  V30 6 1 6 7
M  V30 7 2 7 8
M  V30 8 1 8 9
M  V30 9 2 9 10
M  V30 10 1 10 11
M  V30 11 2 11 12
M  V30 12 1 12 13
M  V30 13 2 13 14
M  V30 14 1 14 15
M  V30 15 2 15 16
M  V30 16 1 16 17
M  V30 17 1 17 18
M  V30 18 1 18 19
M  V30 19 1 19 20
M  V30 20 2 20 21
M  V30 21 1 21 22
M  V30 22 2 22 23
M  V30 23 1 23 24
M  V30 24 1 24 25
M  V30 25 2 24 26
M  V30 26 2 17 27
M  V30 27 1 12 28
M  V30 28 2 28 29
M  V30 29 1 29 30
M  V30 30 2 30 31
M  V30 31 1 31 32
M  V30 32 1 8 33
M  V30 33 1 33 34
M  V30 34 1 34 5
M  V30 35 1 32 9
M  V30 36 1 31 11
M  V30 37 1 27 13
M  V30 38 1 26 20
M  V30 39 1 1 35
M  V30 40 1 1 36
M  V30 41 1 1 37
M  V30 42 1 2 38
M  V30 43 1 6 39
M  V30 44 1 6 40
M  V30 45 1 7 41
M  V30 46 1 10 42
M  V30 47 1 14 43
M  V30 48 1 16 44
M  V30 49 1 18 45
M  V30 50 1 19 46
M  V30 51 1 19 47
M  V30 52 1 21 48
M  V30 53 1 22 49
M  V30 54 1 23 50
M  V30 55 1 26 51
M  V30 56 1 28 52
M  V30 57 1 29 53
M  V30 58 1 32 54
M  V30 59 1 33 55
M  V30 60 1 33 56
M  V30 61 1 34 57
M  V30 62 1 34 58
M  V30 END BOND
M  V30 END CTAB
M  END
>  <Dataset>  (859) 
ChEMBL_Kinases

>  <Ligand_Instance>  (859) 
nan

>  <PDB_ID>  (859) 
nan

>  <Standardized_SMILES>  (859) 
CNC(=O)N1CC=C(c2cc3c(-c4cncc(NCc5cccc(F)c5)n4)ccnc3[nH]2)CC1

>  <Name>  (859) 
nan

>  <Pocket>  (859) 
nan

>  <ATP_Site>  (859) 
nan

>  <Peripheral>  (859) 
nan

>  <Num_H_Atoms_ProtBoundConf>  (859) 
nan

>  <Num_Resolved_Atoms>  (859) 
nan

>  <Num_Not_Resolved_Atoms>  (859) 
nan

$$$$
CHEMBL3673532
     RDKit          3D

  0  0  0  0  0  0  0  0  0  0999 V3000
M  V30 BEGIN CTAB
M  V30 COUNTS 50 54 0 0 0
M  V30 BEGIN ATOM
M  V30 1 F 3.956374 -2.396615 2.664538 0
M  V30 2 C 4.636749 -2.129556 1.508159 0
M  V30 3 C 5.306830 -3.103138 0.790817 0
M  V30 4 C 5.945362 -2.702505 -0.345545 0
M  V30 5 C 5.899358 -1.377721 -0.725514 0
M  V30 6 C 5.230450 -0.383227 -0.017594 0
M  V30 7 C 5.345622 0.956232 -0.630153 0
M  V30 8 O 4.369962 1.132385 -1.611203 0
M  V30 9 C 3.032296 1.086987 -1.337216 0
M  V30 10 C 2.355606 1.291024 -2.529478 0
M  V30 11 N 0.993015 1.291985 -2.521896 0
M  V30 12 C 0.372203 1.095217 -1.359363 0
M  V30 13 C 0.968846 0.887275 -0.149488 0
M  V30 14 C 0.428937 0.709324 1.177286 0
M  V30 15 C 1.254054 0.996546 2.266693 0
M  V30 16 C 0.837674 0.835969 3.565618 0
M  V30 17 N -0.392278 0.391160 3.852670 0
M  V30 18 C -1.225457 0.098760 2.843554 0
M  V30 19 N -2.482522 -0.375780 2.870373 0
M  V30 20 C -2.895203 -0.530926 1.591187 0
M  V30 21 C -4.209543 -1.027341 1.201249 0
M  V30 22 C -5.039222 -1.341546 2.181883 0
M  V30 23 C -6.391397 -1.852260 1.785162 0
M  V30 24 N -6.156640 -2.809384 0.723190 0
M  V30 25 C -5.627183 -2.218108 -0.470035 0
M  V30 26 C -4.595802 -1.172340 -0.210298 0
M  V30 27 C -1.849180 -0.135204 0.787476 0
M  V30 28 C -0.796068 0.263895 1.548191 0
M  V30 29 N 2.307164 0.899388 -0.229621 0
M  V30 30 C 4.598416 -0.822253 1.122545 0
M  V30 31 H 5.250309 -4.093303 1.216831 0
M  V30 32 H 6.465589 -3.464548 -0.900010 0
M  V30 33 H 6.451433 -1.189474 -1.654060 0
M  V30 34 H 6.380952 1.082560 -1.067739 0
M  V30 35 H 5.248795 1.690044 0.208425 0
M  V30 36 H 2.753001 1.460893 -3.531879 0
M  V30 37 H -0.691658 1.132021 -1.381015 0
M  V30 38 H 2.252865 1.361144 2.172950 0
M  V30 39 H 1.458873 1.052883 4.408818 0
M  V30 40 H -3.015959 -0.577575 3.749098 0
M  V30 41 H -4.862493 -1.275491 3.246326 0
M  V30 42 H -6.969773 -0.976249 1.451003 0
M  V30 43 H -6.895717 -2.391186 2.602264 0
M  V30 44 H -6.974522 -3.399131 0.501629 0
M  V30 45 H -6.436226 -1.874626 -1.171888 0
M  V30 46 H -5.113069 -3.043406 -1.035599 0
M  V30 47 H -5.029740 -0.183392 -0.529838 0
M  V30 48 H -3.682805 -1.282619 -0.855299 0
M  V30 49 H -1.965849 -0.195503 -0.256606 0
M  V30 50 H 4.099094 -0.032724 1.652670 0
M  V30 END ATOM
M  V30 BEGIN BOND
M  V30 1 1 1 2
M  V30 2 2 2 3
M  V30 3 1 3 4
M  V30 4 2 4 5
M  V30 5 1 5 6
M  V30 6 1 6 7
M  V30 7 1 7 8
M  V30 8 1 8 9
M  V30 9 2 9 10
M  V30 10 1 10 11
M  V30 11 2 11 12
M  V30 12 1 12 13
M  V30 13 1 13 14
M  V30 14 2 14 15
M  V30 15 1 15 16
M  V30 16 2 16 17
M  V30 17 1 17 18
M  V30 18 1 18 19
M  V30 19 1 19 20
M  V30 20 1 20 21
M  V30 21 2 21 22
M  V30 22 1 22 23
M  V30 23 1 23 24
M  V30 24 1 24 25
M  V30 25 1 25 26
M  V30 26 2 20 27
M  V30 27 1 27 28
M  V30 28 2 13 29
M  V30 29 2 6 30
M  V30 30 1 30 2
M  V30 31 1 29 9
M  V30 32 1 28 14
M  V30 33 2 28 18
M  V30 34 1 26 21
M  V30 35 1 3 31
M  V30 36 1 4 32
M  V30 37 1 5 33
M  V30 38 1 7 34
M  V30 39 1 7 35
M  V30 40 1 10 36
M  V30 41 1 12 37
M  V30 42 1 15 38
M  V30 43 1 16 39
M  V30 44 1 19 40
M  V30 45 1 22 41
M  V30 46 1 23 42
M  V30 47 1 23 43
M  V30 48 1 24 44
M  V30 49 1 25 45
M  V30 50 1 25 46
M  V30 51 1 26 47
M  V30 52 1 26 48
M  V30 53 1 27 49
M  V30 54 1 30 50
M  V30 END BOND
M  V30 END CTAB
M  END
>  <Dataset>  (860) 
ChEMBL_Kinases

>  <Ligand_Instance>  (860) 
nan

>  <PDB_ID>  (860) 
nan

>  <Standardized_SMILES>  (860) 
Fc1cccc(COc2cncc(-c3ccnc4[nH]c(C5=CCNCC5)cc34)n2)c1

>  <Name>  (860) 
nan

>  <Pocket>  (860) 
nan

>  <ATP_Site>  (860) 
nan

>  <Peripheral>  (860) 
nan

>  <Num_H_Atoms_ProtBoundConf>  (860) 
nan

>  <Num_Resolved_Atoms>  (860) 
nan

>  <Num_Not_Resolved_Atoms>  (860) 
nan

$$$$
CHEMBL3673531
     RDKit          3D

  0  0  0  0  0  0  0  0  0  0999 V3000
M  V30 BEGIN CTAB
M  V30 COUNTS 62 66 0 0 0
M  V30 BEGIN ATOM
M  V30 1 O 6.402834 -0.365092 6.134962 0
M  V30 2 C 5.954721 0.959051 5.991053 0
M  V30 3 C 4.787969 0.998892 5.007820 0
M  V30 4 O 5.286288 0.506995 3.799951 0
M  V30 5 C 4.210144 2.392976 4.861450 0
M  V30 6 N 3.148557 2.323445 3.913366 0
M  V30 7 C 2.471258 3.572403 3.639934 0
M  V30 8 C 2.149184 3.475260 2.164744 0
M  V30 9 C 1.383767 2.402869 2.045540 0
M  V30 10 C 0.907353 2.043659 0.713390 0
M  V30 11 C 0.137515 0.969318 0.324062 0
M  V30 12 C -0.107759 0.985573 -1.029170 0
M  V30 13 C -0.807694 0.097375 -1.798571 0
M  V30 14 C -1.467786 -1.110923 -1.392780 0
M  V30 15 C -1.947628 -1.586478 -0.214585 0
M  V30 16 N -2.572550 -2.749184 0.005584 0
M  V30 17 C -2.769954 -3.576111 -1.046021 0
M  V30 18 C -2.314334 -3.164772 -2.274989 0
M  V30 19 N -2.528327 -4.056038 -3.349272 0
M  V30 20 C -3.534089 -4.456771 -4.311972 0
M  V30 21 C -4.747894 -4.992367 -3.599394 0
M  V30 22 C -5.852613 -4.273099 -3.199534 0
M  V30 23 C -6.873302 -4.949467 -2.535457 0
M  V30 24 C -6.807028 -6.317316 -2.268458 0
M  V30 25 C -5.706437 -7.044403 -2.664408 0
M  V30 26 F -5.614402 -8.371003 -2.417469 0
M  V30 27 C -4.711351 -6.353829 -3.318876 0
M  V30 28 N -1.700813 -1.990737 -2.408596 0
M  V30 29 C -0.800114 0.456408 -3.137399 0
M  V30 30 C -0.162709 1.575292 -3.618424 0
M  V30 31 N 0.491825 2.373216 -2.761705 0
M  V30 32 C 0.544728 2.111834 -1.447270 0
M  V30 33 N 1.146100 2.743279 -0.431725 0
M  V30 34 C 0.983125 1.571192 3.226962 0
M  V30 35 C 2.118210 1.362190 4.206078 0
M  V30 36 H 5.644841 -1.010594 6.239434 0
M  V30 37 H 5.660978 1.316764 7.008151 0
M  V30 38 H 6.803863 1.550933 5.603856 0
M  V30 39 H 4.055319 0.267179 5.410482 0
M  V30 40 H 4.714989 -0.219801 3.442291 0
M  V30 41 H 3.791866 2.678115 5.855890 0
M  V30 42 H 5.002067 3.102241 4.603445 0
M  V30 43 H 3.090495 4.471911 3.795130 0
M  V30 44 H 1.534139 3.624998 4.223864 0
M  V30 45 H 2.411761 4.064461 1.312058 0
M  V30 46 H -0.157435 0.270855 1.062352 0
M  V30 47 H -1.839389 -0.947060 0.627701 0
M  V30 48 H -3.268277 -4.508833 -0.881119 0
M  V30 49 H -1.562936 -4.503558 -3.328829 0
M  V30 50 H -3.088642 -5.260478 -4.938354 0
M  V30 51 H -3.782986 -3.637951 -5.000866 0
M  V30 52 H -5.830952 -3.230451 -3.442002 0
M  V30 53 H -7.723369 -4.380078 -2.231255 0
M  V30 54 H -7.635118 -6.773004 -1.747698 0
M  V30 55 H -3.858474 -6.962753 -3.617025 0
M  V30 56 H -1.323649 -0.163990 -3.880640 0
M  V30 57 H -0.200223 1.789126 -4.665605 0
M  V30 58 H 1.705629 3.641513 -0.550055 0
M  V30 59 H 0.692384 0.567540 2.856016 0
M  V30 60 H 0.097456 2.042135 3.736662 0
M  V30 61 H 2.489943 0.294515 4.152358 0
M  V30 62 H 1.677745 1.530386 5.228644 0
M  V30 END ATOM
M  V30 BEGIN BOND
M  V30 1 1 1 2
M  V30 2 1 2 3
M  V30 3 1 3 4
M  V30 4 1 3 5
M  V30 5 1 5 6
M  V30 6 1 6 7
M  V30 7 1 7 8
M  V30 8 2 8 9
M  V30 9 1 9 10
M  V30 10 2 10 11
M  V30 11 1 11 12
M  V30 12 2 12 13
M  V30 13 1 13 14
M  V30 14 2 14 15
M  V30 15 1 15 16
M  V30 16 2 16 17
M  V30 17 1 17 18
M  V30 18 1 18 19
M  V30 19 1 19 20
M  V30 20 1 20 21
M  V30 21 2 21 22
M  V30 22 1 22 23
M  V30 23 2 23 24
M  V30 24 1 24 25
M  V30 25 1 25 26
M  V30 26 2 25 27
M  V30 27 2 18 28
M  V30 28 1 13 29
M  V30 29 2 29 30
M  V30 30 1 30 31
M  V30 31 2 31 32
M  V30 32 1 32 33
M  V30 33 1 9 34
M  V30 34 1 34 35
M  V30 35 1 35 6
M  V30 36 1 33 10
M  V30 37 1 32 12
M  V30 38 1 28 14
M  V30 39 1 27 21
M  V30 40 1 1 36
M  V30 41 1 2 37
M  V30 42 1 2 38
M  V30 43 1 3 39
M  V30 44 1 4 40
M  V30 45 1 5 41
M  V30 46 1 5 42
M  V30 47 1 7 43
M  V30 48 1 7 44
M  V30 49 1 8 45
M  V30 50 1 11 46
M  V30 51 1 15 47
M  V30 52 1 17 48
M  V30 53 1 19 49
M  V30 54 1 20 50
M  V30 55 1 20 51
M  V30 56 1 22 52
M  V30 57 1 23 53
M  V30 58 1 24 54
M  V30 59 1 27 55
M  V30 60 1 29 56
M  V30 61 1 30 57
M  V30 62 1 33 58
M  V30 63 1 34 59
M  V30 64 1 34 60
M  V30 65 1 35 61
M  V30 66 1 35 62
M  V30 END BOND
M  V30 END CTAB
M  END
>  <Dataset>  (861) 
ChEMBL_Kinases

>  <Ligand_Instance>  (861) 
nan

>  <PDB_ID>  (861) 
nan

>  <Standardized_SMILES>  (861) 
OCC(O)CN1CC=C(c2cc3c(-c4cncc(NCc5cccc(F)c5)n4)ccnc3[nH]2)CC1

>  <Name>  (861) 
nan

>  <Pocket>  (861) 
nan

>  <ATP_Site>  (861) 
nan

>  <Peripheral>  (861) 
nan

>  <Num_H_Atoms_ProtBoundConf>  (861) 
nan

>  <Num_Resolved_Atoms>  (861) 
nan

>  <Num_Not_Resolved_Atoms>  (861) 
nan

$$$$
CHEMBL3673530
     RDKit          3D

  0  0  0  0  0  0  0  0  0  0999 V3000
M  V30 BEGIN CTAB
M  V30 COUNTS 51 55 0 0 0
M  V30 BEGIN ATOM
M  V30 1 F 6.577719 -4.549213 0.821679 0
M  V30 2 C 5.686629 -3.649527 1.315148 0
M  V30 3 C 4.552592 -4.138321 1.932244 0
M  V30 4 C 3.606390 -3.260528 2.455634 0
M  V30 5 C 3.878593 -1.931317 2.315441 0
M  V30 6 C 4.972453 -1.363473 1.720808 0
M  V30 7 C 5.341597 0.052779 1.523046 0
M  V30 8 N 4.870776 0.603869 0.262069 0
M  V30 9 C 3.505941 0.800693 -0.167793 0
M  V30 10 C 3.252029 1.264631 -1.440788 0
M  V30 11 N 1.966866 1.439631 -1.794035 0
M  V30 12 C 0.994040 1.163905 -0.916996 0
M  V30 13 C 1.172943 0.702619 0.353897 0
M  V30 14 C 0.232089 0.413997 1.409339 0
M  V30 15 C 0.722540 0.428269 2.720286 0
M  V30 16 C -0.078569 0.144229 3.801523 0
M  V30 17 N -1.374809 -0.161126 3.639043 0
M  V30 18 C -1.892033 -0.189298 2.402401 0
M  V30 19 N -3.133980 -0.480942 1.982723 0
M  V30 20 C -3.151456 -0.392020 0.632605 0
M  V30 21 C -4.316173 -0.633362 -0.245570 0
M  V30 22 C -4.195881 -0.507079 -1.574682 0
M  V30 23 C -5.422745 -0.770071 -2.377662 0
M  V30 24 N -6.502316 -0.066281 -1.706253 0
M  V30 25 C -6.806874 -0.635775 -0.409281 0
M  V30 26 C -5.601050 -1.015147 0.393182 0
M  V30 27 C -1.893893 -0.040015 0.244836 0
M  V30 28 C -1.093731 0.093516 1.326092 0
M  V30 29 N 2.480979 0.549352 0.645393 0
M  V30 30 C 5.905776 -2.275674 1.204263 0
M  V30 31 H 4.353955 -5.196869 2.033721 0
M  V30 32 H 2.693664 -3.553222 2.952970 0
M  V30 33 H 3.183022 -1.206411 2.703384 0
M  V30 34 H 4.900294 0.611958 2.389512 0
M  V30 35 H 6.422940 0.181196 1.584286 0
M  V30 36 H 5.619541 0.901538 -0.438087 0
M  V30 37 H 4.033680 1.481118 -2.130796 0
M  V30 38 H 0.008218 1.354584 -1.256334 0
M  V30 39 H 1.754744 0.671468 2.921186 0
M  V30 40 H 0.348961 0.169567 4.792584 0
M  V30 41 H -3.935242 -0.730898 2.604963 0
M  V30 42 H -3.258306 -0.230637 -2.017010 0
M  V30 43 H -5.325454 -0.260129 -3.374966 0
M  V30 44 H -5.622112 -1.854275 -2.502529 0
M  V30 45 H -6.137691 0.896570 -1.519171 0
M  V30 46 H -7.359089 0.173125 0.151440 0
M  V30 47 H -7.549187 -1.458558 -0.492978 0
M  V30 48 H -5.647796 -2.129165 0.520212 0
M  V30 49 H -5.667907 -0.605875 1.420222 0
M  V30 50 H -1.664336 0.074414 -0.781975 0
M  V30 51 H 6.839363 -2.014525 0.695435 0
M  V30 END ATOM
M  V30 BEGIN BOND
M  V30 1 1 1 2
M  V30 2 2 2 3
M  V30 3 1 3 4
M  V30 4 2 4 5
M  V30 5 1 5 6
M  V30 6 1 6 7
M  V30 7 1 7 8
M  V30 8 1 8 9
M  V30 9 2 9 10
M  V30 10 1 10 11
M  V30 11 2 11 12
M  V30 12 1 12 13
M  V30 13 1 13 14
M  V30 14 2 14 15
M  V30 15 1 15 16
M  V30 16 2 16 17
M  V30 17 1 17 18
M  V30 18 1 18 19
M  V30 19 1 19 20
M  V30 20 1 20 21
M  V30 21 2 21 22
M  V30 22 1 22 23
M  V30 23 1 23 24
M  V30 24 1 24 25
M  V30 25 1 25 26
M  V30 26 2 20 27
M  V30 27 1 27 28
M  V30 28 2 13 29
M  V30 29 2 6 30
M  V30 30 1 30 2
M  V30 31 1 29 9
M  V30 32 1 28 14
M  V30 33 2 28 18
M  V30 34 1 26 21
M  V30 35 1 3 31
M  V30 36 1 4 32
M  V30 37 1 5 33
M  V30 38 1 7 34
M  V30 39 1 7 35
M  V30 40 1 8 36
M  V30 41 1 10 37
M  V30 42 1 12 38
M  V30 43 1 15 39
M  V30 44 1 16 40
M  V30 45 1 19 41
M  V30 46 1 22 42
M  V30 47 1 23 43
M  V30 48 1 23 44
M  V30 49 1 24 45
M  V30 50 1 25 46
M  V30 51 1 25 47
M  V30 52 1 26 48
M  V30 53 1 26 49
M  V30 54 1 27 50
M  V30 55 1 30 51
M  V30 END BOND
M  V30 END CTAB
M  END
>  <Dataset>  (862) 
ChEMBL_Kinases

>  <Ligand_Instance>  (862) 
nan

>  <PDB_ID>  (862) 
nan

>  <Standardized_SMILES>  (862) 
Fc1cccc(CNc2cncc(-c3ccnc4[nH]c(C5=CCNCC5)cc34)n2)c1

>  <Name>  (862) 
nan

>  <Pocket>  (862) 
nan

>  <ATP_Site>  (862) 
nan

>  <Peripheral>  (862) 
nan

>  <Num_H_Atoms_ProtBoundConf>  (862) 
nan

>  <Num_Resolved_Atoms>  (862) 
nan

>  <Num_Not_Resolved_Atoms>  (862) 
nan

$$$$
CHEMBL3673529
     RDKit          3D

  0  0  0  0  0  0  0  0  0  0999 V3000
M  V30 BEGIN CTAB
M  V30 COUNTS 59 63 0 0 0
M  V30 BEGIN ATOM
M  V30 1 C 1.988674 -4.762156 2.855146 0
M  V30 2 N 2.089625 -3.645047 1.941107 0
M  V30 3 C 1.478614 -3.479194 0.693504 0
M  V30 4 O 0.746128 -4.462711 0.353538 0
M  V30 5 N 1.687248 -2.291513 -0.095747 0
M  V30 6 C 2.523357 -1.184668 0.301619 0
M  V30 7 C 3.266662 -0.560037 -0.833479 0
M  V30 8 C 2.444000 -0.323560 -2.076493 0
M  V30 9 C 1.639934 0.916868 -1.975916 0
M  V30 10 C 0.534995 1.160255 -1.151921 0
M  V30 11 C 0.057635 2.444787 -1.342447 0
M  V30 12 C -0.968076 3.208522 -0.825557 0
M  V30 13 C -1.846869 2.633623 0.181511 0
M  V30 14 C -2.876930 3.379432 0.710952 0
M  V30 15 N -3.748855 2.942086 1.646924 0
M  V30 16 C -3.617591 1.670613 2.116233 0
M  V30 17 C -2.589366 0.905186 1.597299 0
M  V30 18 O -2.431748 -0.393903 2.056430 0
M  V30 19 C -1.434024 -1.284665 1.621150 0
M  V30 20 C -1.656647 -2.560771 2.381551 0
M  V30 21 C -2.492847 -3.518948 1.816086 0
M  V30 22 C -2.752394 -4.725364 2.455478 0
M  V30 23 C -2.156925 -4.977474 3.695881 0
M  V30 24 C -1.324831 -3.987673 4.226002 0
M  V30 25 F -0.775978 -4.282190 5.425648 0
M  V30 26 C -1.067466 -2.803853 3.603237 0
M  V30 27 N -1.733054 1.381528 0.657047 0
M  V30 28 C -1.077742 4.487208 -1.323538 0
M  V30 29 C -0.245160 5.027799 -2.279346 0
M  V30 30 N 0.746127 4.236452 -2.754418 0
M  V30 31 C 0.896247 2.961334 -2.292673 0
M  V30 32 N 1.831696 2.075632 -2.675192 0
M  V30 33 C 1.676891 -1.539599 -2.454317 0
M  V30 34 C 0.990994 -2.262065 -1.348913 0
M  V30 35 H 1.354618 -5.543158 2.403562 0
M  V30 36 H 3.005765 -5.158697 3.078409 0
M  V30 37 H 1.514486 -4.383778 3.807649 0
M  V30 38 H 2.713256 -2.942144 2.360308 0
M  V30 39 H 3.308441 -1.528497 1.023669 0
M  V30 40 H 1.948203 -0.390783 0.857336 0
M  V30 41 H 3.739527 0.368157 -0.471312 0
M  V30 42 H 4.100163 -1.238894 -1.119345 0
M  V30 43 H 3.214380 -0.158221 -2.887785 0
M  V30 44 H 0.120330 0.438189 -0.465908 0
M  V30 45 H -3.104194 4.393738 0.437855 0
M  V30 46 H -4.255269 1.217337 2.862125 0
M  V30 47 H -1.616682 -1.465110 0.523871 0
M  V30 48 H -0.403733 -0.906683 1.727257 0
M  V30 49 H -2.984098 -3.376379 0.851498 0
M  V30 50 H -3.412679 -5.458171 1.987357 0
M  V30 51 H -2.346339 -5.921882 4.218797 0
M  V30 52 H -0.420965 -2.050275 4.029176 0
M  V30 53 H -1.855516 5.132064 -0.961526 0
M  V30 54 H -0.389063 6.041821 -2.625758 0
M  V30 55 H 2.591923 2.206919 -3.380543 0
M  V30 56 H 2.401310 -2.258418 -2.937159 0
M  V30 57 H 0.894700 -1.257764 -3.218004 0
M  V30 58 H 0.806633 -3.305322 -1.743190 0
M  V30 59 H -0.058652 -1.854919 -1.255180 0
M  V30 END ATOM
M  V30 BEGIN BOND
M  V30 1 1 1 2
M  V30 2 1 2 3
M  V30 3 2 3 4
M  V30 4 1 3 5
M  V30 5 1 5 6
M  V30 6 1 6 7
M  V30 7 1 7 8
M  V30 8 1 8 9
M  V30 9 2 9 10
M  V30 10 1 10 11
M  V30 11 2 11 12
M  V30 12 1 12 13
M  V30 13 2 13 14
M  V30 14 1 14 15
M  V30 15 2 15 16
M  V30 16 1 16 17
M  V30 17 1 17 18
M  V30 18 1 18 19
M  V30 19 1 19 20
M  V30 20 2 20 21
M  V30 21 1 21 22
M  V30 22 2 22 23
M  V30 23 1 23 24
M  V30 24 1 24 25
M  V30 25 2 24 26
M  V30 26 2 17 27
M  V30 27 1 12 28
M  V30 28 2 28 29
M  V30 29 1 29 30
M  V30 30 2 30 31
M  V30 31 1 31 32
M  V30 32 1 8 33
M  V30 33 1 33 34
M  V30 34 1 34 5
M  V30 35 1 32 9
M  V30 36 1 31 11
M  V30 37 1 27 13
M  V30 38 1 26 20
M  V30 39 1 1 35
M  V30 40 1 1 36
M  V30 41 1 1 37
M  V30 42 1 2 38
M  V30 43 1 6 39
M  V30 44 1 6 40
M  V30 45 1 7 41
M  V30 46 1 7 42
M  V30 47 1 8 43
M  V30 48 1 10 44
M  V30 49 1 14 45
M  V30 50 1 16 46
M  V30 51 1 19 47
M  V30 52 1 19 48
M  V30 53 1 21 49
M  V30 54 1 22 50
M  V30 55 1 23 51
M  V30 56 1 26 52
M  V30 57 1 28 53
M  V30 58 1 29 54
M  V30 59 1 32 55
M  V30 60 1 33 56
M  V30 61 1 33 57
M  V30 62 1 34 58
M  V30 63 1 34 59
M  V30 END BOND
M  V30 END CTAB
M  END
>  <Dataset>  (863) 
ChEMBL_Kinases

>  <Ligand_Instance>  (863) 
nan

>  <PDB_ID>  (863) 
nan

>  <Standardized_SMILES>  (863) 
CNC(=O)N1CCC(c2cc3c(-c4cncc(OCc5cccc(F)c5)n4)ccnc3[nH]2)CC1

>  <Name>  (863) 
nan

>  <Pocket>  (863) 
nan

>  <ATP_Site>  (863) 
nan

>  <Peripheral>  (863) 
nan

>  <Num_H_Atoms_ProtBoundConf>  (863) 
nan

>  <Num_Resolved_Atoms>  (863) 
nan

>  <Num_Not_Resolved_Atoms>  (863) 
nan

$$$$
CHEMBL3673528
     RDKit          3D

  0  0  0  0  0  0  0  0  0  0999 V3000
M  V30 BEGIN CTAB
M  V30 COUNTS 57 61 0 0 0
M  V30 BEGIN ATOM
M  V30 1 C 5.529084 -2.487368 2.538189 0
M  V30 2 C 4.808127 -3.359170 1.576696 0
M  V30 3 O 4.840085 -4.607527 1.723929 0
M  V30 4 N 4.097636 -2.751206 0.509900 0
M  V30 5 C 4.027735 -1.329036 0.294521 0
M  V30 6 C 3.028803 -0.933980 -0.733637 0
M  V30 7 C 1.700485 -1.605289 -0.464520 0
M  V30 8 C 1.090708 -1.145985 0.818758 0
M  V30 9 C -0.003950 -0.309003 0.931608 0
M  V30 10 C -0.328505 -0.077394 2.235864 0
M  V30 11 C -1.326495 0.688432 2.791041 0
M  V30 12 C -2.315408 1.470640 2.075347 0
M  V30 13 C -3.132104 2.348852 2.752504 0
M  V30 14 N -4.038502 3.089850 2.048428 0
M  V30 15 C -4.089641 2.918654 0.684688 0
M  V30 16 C -3.257722 2.021416 -0.015974 0
M  V30 17 O -3.678916 2.214295 -1.283845 0
M  V30 18 C -3.220017 1.583475 -2.410238 0
M  V30 19 C -3.389107 0.123113 -2.482757 0
M  V30 20 C -4.645879 -0.214295 -2.961881 0
M  V30 21 C -5.072365 -1.524671 -3.142481 0
M  V30 22 C -4.216324 -2.576378 -2.835422 0
M  V30 23 C -2.969185 -2.243808 -2.360261 0
M  V30 24 F -2.018719 -3.171016 -2.015903 0
M  V30 25 C -2.566160 -0.940801 -2.188865 0
M  V30 26 N -2.413092 1.348037 0.742770 0
M  V30 27 C -1.341580 0.693708 4.166873 0
M  V30 28 C -0.412281 -0.025962 4.882888 0
M  V30 29 N 0.553871 -0.767989 4.294734 0
M  V30 30 C 0.601738 -0.798159 2.950676 0
M  V30 31 N 1.428125 -1.420434 2.090400 0
M  V30 32 C 1.896036 -3.082710 -0.544616 0
M  V30 33 C 3.346807 -3.456252 -0.507401 0
M  V30 34 H 5.449880 -1.421408 2.244720 0
M  V30 35 H 5.133568 -2.572875 3.568743 0
M  V30 36 H 6.609631 -2.776909 2.597815 0
M  V30 37 H 3.827014 -0.753067 1.207671 0
M  V30 38 H 5.046124 -0.987166 -0.051072 0
M  V30 39 H 2.918410 0.167416 -0.839445 0
M  V30 40 H 3.339385 -1.306027 -1.748612 0
M  V30 41 H 1.018188 -1.262398 -1.292862 0
M  V30 42 H -0.521854 0.107594 0.093133 0
M  V30 43 H -3.114337 2.508260 3.828695 0
M  V30 44 H -4.889490 3.622385 0.370452 0
M  V30 45 H -3.649454 2.068684 -3.342682 0
M  V30 46 H -2.103396 1.746351 -2.578747 0
M  V30 47 H -5.432800 0.470711 -3.248326 0
M  V30 48 H -6.034780 -1.828127 -3.510117 0
M  V30 49 H -4.387900 -3.634594 -2.915860 0
M  V30 50 H -1.610261 -0.599602 -1.833638 0
M  V30 51 H -2.022933 1.212259 4.817419 0
M  V30 52 H -0.366486 -0.066443 5.961170 0
M  V30 53 H 2.195718 -2.015411 2.403172 0
M  V30 54 H 1.528114 -3.413871 -1.560696 0
M  V30 55 H 1.291052 -3.629086 0.208473 0
M  V30 56 H 3.851528 -3.251677 -1.483551 0
M  V30 57 H 3.473807 -4.570791 -0.366777 0
M  V30 END ATOM
M  V30 BEGIN BOND
M  V30 1 1 1 2
M  V30 2 2 2 3
M  V30 3 1 2 4
M  V30 4 1 4 5
M  V30 5 1 5 6
M  V30 6 1 6 7
M  V30 7 1 7 8
M  V30 8 2 8 9
M  V30 9 1 9 10
M  V30 10 2 10 11
M  V30 11 1 11 12
M  V30 12 2 12 13
M  V30 13 1 13 14
M  V30 14 2 14 15
M  V30 15 1 15 16
M  V30 16 1 16 17
M  V30 17 1 17 18
M  V30 18 1 18 19
M  V30 19 2 19 20
M  V30 20 1 20 21
M  V30 21 2 21 22
M  V30 22 1 22 23
M  V30 23 1 23 24
M  V30 24 2 23 25
M  V30 25 2 16 26
M  V30 26 1 11 27
M  V30 27 2 27 28
M  V30 28 1 28 29
M  V30 29 2 29 30
M  V30 30 1 30 31
M  V30 31 1 7 32
M  V30 32 1 32 33
M  V30 33 1 33 4
M  V30 34 1 31 8
M  V30 35 1 30 10
M  V30 36 1 26 12
M  V30 37 1 25 19
M  V30 38 1 1 34
M  V30 39 1 1 35
M  V30 40 1 1 36
M  V30 41 1 5 37
M  V30 42 1 5 38
M  V30 43 1 6 39
M  V30 44 1 6 40
M  V30 45 1 7 41
M  V30 46 1 9 42
M  V30 47 1 13 43
M  V30 48 1 15 44
M  V30 49 1 18 45
M  V30 50 1 18 46
M  V30 51 1 20 47
M  V30 52 1 21 48
M  V30 53 1 22 49
M  V30 54 1 25 50
M  V30 55 1 27 51
M  V30 56 1 28 52
M  V30 57 1 31 53
M  V30 58 1 32 54
M  V30 59 1 32 55
M  V30 60 1 33 56
M  V30 61 1 33 57
M  V30 END BOND
M  V30 END CTAB
M  END
>  <Dataset>  (864) 
ChEMBL_Kinases

>  <Ligand_Instance>  (864) 
nan

>  <PDB_ID>  (864) 
nan

>  <Standardized_SMILES>  (864) 
CC(=O)N1CCC(c2cc3c(-c4cncc(OCc5cccc(F)c5)n4)ccnc3[nH]2)CC1

>  <Name>  (864) 
nan

>  <Pocket>  (864) 
nan

>  <ATP_Site>  (864) 
nan

>  <Peripheral>  (864) 
nan

>  <Num_H_Atoms_ProtBoundConf>  (864) 
nan

>  <Num_Resolved_Atoms>  (864) 
nan

>  <Num_Not_Resolved_Atoms>  (864) 
nan

$$$$
CHEMBL3673527
     RDKit          3D

  0  0  0  0  0  0  0  0  0  0999 V3000
M  V30 BEGIN CTAB
M  V30 COUNTS 58 62 0 0 0
M  V30 BEGIN ATOM
M  V30 1 C 6.404308 -1.265250 2.726072 0
M  V30 2 S 4.662170 -1.022523 2.876597 0
M  V30 3 O 4.440048 -0.154950 4.107305 0
M  V30 4 O 3.938779 -2.312845 3.142741 0
M  V30 5 N 3.935286 -0.277944 1.532146 0
M  V30 6 C 4.481758 1.021897 1.337826 0
M  V30 7 C 3.948582 1.771525 0.169048 0
M  V30 8 C 3.470880 0.956324 -0.978130 0
M  V30 9 C 1.971538 1.081544 -1.116232 0
M  V30 10 C 1.020458 0.636212 -0.224995 0
M  V30 11 C -0.245978 0.920119 -0.669631 0
M  V30 12 C -1.460134 0.638909 -0.101623 0
M  V30 13 C -1.743573 -0.046042 1.136555 0
M  V30 14 C -1.010623 -0.214422 2.274817 0
M  V30 15 N -1.438383 -0.848012 3.376624 0
M  V30 16 C -2.700217 -1.378846 3.400873 0
M  V30 17 C -3.469060 -1.230572 2.278298 0
M  V30 18 O -4.694577 -1.820306 2.482697 0
M  V30 19 C -5.747311 -1.877989 1.556534 0
M  V30 20 C -5.409478 -2.597324 0.304673 0
M  V30 21 C -4.908044 -2.163702 -0.894804 0
M  V30 22 C -4.674984 -3.053094 -1.913668 0
M  V30 23 C -4.918756 -4.397833 -1.810501 0
M  V30 24 C -5.423259 -4.849013 -0.610182 0
M  V30 25 F -5.659049 -6.185552 -0.524169 0
M  V30 26 C -5.662558 -3.969449 0.421923 0
M  V30 27 N -2.979368 -0.592565 1.226543 0
M  V30 28 C -2.527079 1.069708 -0.881162 0
M  V30 29 C -2.386548 1.710238 -2.089602 0
M  V30 30 N -1.144994 1.940209 -2.558036 0
M  V30 31 C -0.052914 1.552441 -1.862949 0
M  V30 32 N 1.259868 1.646233 -2.122417 0
M  V30 33 C 3.919772 -0.464525 -0.929989 0
M  V30 34 C 3.883155 -1.128290 0.394252 0
M  V30 35 H 6.850463 -0.776259 1.860962 0
M  V30 36 H 6.564203 -2.370100 2.612834 0
M  V30 37 H 6.958089 -0.984104 3.667194 0
M  V30 38 H 4.327113 1.570285 2.310735 0
M  V30 39 H 5.597786 0.980420 1.244929 0
M  V30 40 H 3.093108 2.397581 0.553810 0
M  V30 41 H 4.723496 2.487202 -0.183942 0
M  V30 42 H 3.847965 1.451343 -1.925743 0
M  V30 43 H 1.327560 0.133982 0.656215 0
M  V30 44 H -0.048979 0.203667 2.309190 0
M  V30 45 H -2.941827 -1.868842 4.341387 0
M  V30 46 H -6.671850 -2.271110 2.015088 0
M  V30 47 H -5.970074 -0.805968 1.268173 0
M  V30 48 H -4.748382 -1.097283 -0.891243 0
M  V30 49 H -4.278155 -2.574818 -2.805290 0
M  V30 50 H -4.709412 -5.031624 -2.656033 0
M  V30 51 H -6.062672 -4.470748 1.312940 0
M  V30 52 H -3.539816 0.913780 -0.548308 0
M  V30 53 H -3.253108 2.021804 -2.649275 0
M  V30 54 H 1.690165 2.091863 -2.980348 0
M  V30 55 H 4.996981 -0.476825 -1.267359 0
M  V30 56 H 3.384814 -1.028705 -1.727366 0
M  V30 57 H 2.892888 -1.669434 0.450276 0
M  V30 58 H 4.634532 -1.958266 0.461002 0
M  V30 END ATOM
M  V30 BEGIN BOND
M  V30 1 1 1 2
M  V30 2 2 2 3
M  V30 3 2 2 4
M  V30 4 1 2 5
M  V30 5 1 5 6
M  V30 6 1 6 7
M  V30 7 1 7 8
M  V30 8 1 8 9
M  V30 9 2 9 10
M  V30 10 1 10 11
M  V30 11 2 11 12
M  V30 12 1 12 13
M  V30 13 2 13 14
M  V30 14 1 14 15
M  V30 15 2 15 16
M  V30 16 1 16 17
M  V30 17 1 17 18
M  V30 18 1 18 19
M  V30 19 1 19 20
M  V30 20 2 20 21
M  V30 21 1 21 22
M  V30 22 2 22 23
M  V30 23 1 23 24
M  V30 24 1 24 25
M  V30 25 2 24 26
M  V30 26 2 17 27
M  V30 27 1 12 28
M  V30 28 2 28 29
M  V30 29 1 29 30
M  V30 30 2 30 31
M  V30 31 1 31 32
M  V30 32 1 8 33
M  V30 33 1 33 34
M  V30 34 1 34 5
M  V30 35 1 32 9
M  V30 36 1 31 11
M  V30 37 1 27 13
M  V30 38 1 26 20
M  V30 39 1 1 35
M  V30 40 1 1 36
M  V30 41 1 1 37
M  V30 42 1 6 38
M  V30 43 1 6 39
M  V30 44 1 7 40
M  V30 45 1 7 41
M  V30 46 1 8 42
M  V30 47 1 10 43
M  V30 48 1 14 44
M  V30 49 1 16 45
M  V30 50 1 19 46
M  V30 51 1 19 47
M  V30 52 1 21 48
M  V30 53 1 22 49
M  V30 54 1 23 50
M  V30 55 1 26 51
M  V30 56 1 28 52
M  V30 57 1 29 53
M  V30 58 1 32 54
M  V30 59 1 33 55
M  V30 60 1 33 56
M  V30 61 1 34 57
M  V30 62 1 34 58
M  V30 END BOND
M  V30 END CTAB
M  END
>  <Dataset>  (865) 
ChEMBL_Kinases

>  <Ligand_Instance>  (865) 
nan

>  <PDB_ID>  (865) 
nan

>  <Standardized_SMILES>  (865) 
CS(=O)(=O)N1CCC(c2cc3c(-c4cncc(OCc5cccc(F)c5)n4)ccnc3[nH]2)CC1

>  <Name>  (865) 
nan

>  <Pocket>  (865) 
nan

>  <ATP_Site>  (865) 
nan

>  <Peripheral>  (865) 
nan

>  <Num_H_Atoms_ProtBoundConf>  (865) 
nan

>  <Num_Resolved_Atoms>  (865) 
nan

>  <Num_Not_Resolved_Atoms>  (865) 
nan

$$$$
CHEMBL3673526
     RDKit          3D

  0  0  0  0  0  0  0  0  0  0999 V3000
M  V30 BEGIN CTAB
M  V30 COUNTS 60 64 0 0 0
M  V30 BEGIN ATOM
M  V30 1 C 3.307706 -1.950872 4.899972 0
M  V30 2 N 3.256766 -1.905556 3.454624 0
M  V30 3 C 2.626705 -2.865352 2.629949 0
M  V30 4 O 2.046223 -3.859627 3.093957 0
M  V30 5 N 2.633426 -2.723641 1.217054 0
M  V30 6 C 3.285081 -1.577767 0.621602 0
M  V30 7 C 3.622706 -1.814560 -0.829932 0
M  V30 8 C 2.333565 -2.057185 -1.641704 0
M  V30 9 C 1.795296 -0.713186 -1.924063 0
M  V30 10 C 0.827730 0.070179 -1.325638 0
M  V30 11 C 0.771109 1.281025 -2.013590 0
M  V30 12 C 0.015239 2.428873 -1.862199 0
M  V30 13 C -0.997082 2.490064 -0.803062 0
M  V30 14 C -1.709107 3.627393 -0.509662 0
M  V30 15 N -2.644209 3.655471 0.454354 0
M  V30 16 C -2.899190 2.541718 1.159895 0
M  V30 17 C -2.206101 1.377508 0.896931 0
M  V30 18 N -2.547494 0.187174 1.642898 0
M  V30 19 C -3.209575 -0.628636 0.641397 0
M  V30 20 C -3.755618 -1.832870 1.319778 0
M  V30 21 C -5.071974 -1.587266 1.752295 0
M  V30 22 C -5.821998 -2.560377 2.404889 0
M  V30 23 C -5.259776 -3.790798 2.631050 0
M  V30 24 C -3.974276 -4.050433 2.217048 0
M  V30 25 F -3.329238 -5.244723 2.400560 0
M  V30 26 C -3.215711 -3.074246 1.559909 0
M  V30 27 N -1.272617 1.374207 -0.073452 0
M  V30 28 C 0.187640 3.515401 -2.711726 0
M  V30 29 C 1.132742 3.399673 -3.699926 0
M  V30 30 N 1.871896 2.293965 -3.860012 0
M  V30 31 C 1.722668 1.218123 -3.041836 0
M  V30 32 N 2.303317 0.000255 -2.938197 0
M  V30 33 C 1.358590 -2.834742 -0.804144 0
M  V30 34 C 2.038501 -3.649538 0.286375 0
M  V30 35 H 2.754651 -1.049424 5.292556 0
M  V30 36 H 4.354276 -1.946423 5.281232 0
M  V30 37 H 2.767434 -2.815942 5.339208 0
M  V30 38 H 3.755538 -1.052742 3.078438 0
M  V30 39 H 4.247706 -1.444106 1.151332 0
M  V30 40 H 2.703044 -0.657723 0.698613 0
M  V30 41 H 4.268083 -2.682753 -1.014612 0
M  V30 42 H 4.149929 -0.905004 -1.178170 0
M  V30 43 H 2.587152 -2.605839 -2.564598 0
M  V30 44 H 0.258537 -0.246805 -0.481488 0
M  V30 45 H -1.553331 4.552044 -1.032873 0
M  V30 46 H -3.643539 2.502601 1.953961 0
M  V30 47 H -2.411574 -0.136631 2.647629 0
M  V30 48 H -2.464340 -1.006899 -0.110160 0
M  V30 49 H -3.972951 -0.094227 0.066299 0
M  V30 50 H -5.620650 -0.648623 1.623807 0
M  V30 51 H -6.852099 -2.362754 2.736943 0
M  V30 52 H -5.808105 -4.584659 3.137544 0
M  V30 53 H -2.209801 -3.143889 1.183990 0
M  V30 54 H -0.362877 4.425027 -2.643665 0
M  V30 55 H 1.278233 4.248748 -4.374542 0
M  V30 56 H 3.056281 -0.233870 -3.636201 0
M  V30 57 H 0.775615 -3.511631 -1.431769 0
M  V30 58 H 0.614637 -2.178952 -0.294951 0
M  V30 59 H 2.815230 -4.266633 -0.186146 0
M  V30 60 H 1.246656 -4.237510 0.777096 0
M  V30 END ATOM
M  V30 BEGIN BOND
M  V30 1 1 1 2
M  V30 2 1 2 3
M  V30 3 2 3 4
M  V30 4 1 3 5
M  V30 5 1 5 6
M  V30 6 1 6 7
M  V30 7 1 7 8
M  V30 8 1 8 9
M  V30 9 2 9 10
M  V30 10 1 10 11
M  V30 11 2 11 12
M  V30 12 1 12 13
M  V30 13 2 13 14
M  V30 14 1 14 15
M  V30 15 2 15 16
M  V30 16 1 16 17
M  V30 17 1 17 18
M  V30 18 1 18 19
M  V30 19 1 19 20
M  V30 20 2 20 21
M  V30 21 1 21 22
M  V30 22 2 22 23
M  V30 23 1 23 24
M  V30 24 1 24 25
M  V30 25 2 24 26
M  V30 26 2 17 27
M  V30 27 1 12 28
M  V30 28 2 28 29
M  V30 29 1 29 30
M  V30 30 2 30 31
M  V30 31 1 31 32
M  V30 32 1 8 33
M  V30 33 1 33 34
M  V30 34 1 34 5
M  V30 35 1 32 9
M  V30 36 1 31 11
M  V30 37 1 27 13
M  V30 38 1 26 20
M  V30 39 1 1 35
M  V30 40 1 1 36
M  V30 41 1 1 37
M  V30 42 1 2 38
M  V30 43 1 6 39
M  V30 44 1 6 40
M  V30 45 1 7 41
M  V30 46 1 7 42
M  V30 47 1 8 43
M  V30 48 1 10 44
M  V30 49 1 14 45
M  V30 50 1 16 46
M  V30 51 1 18 47
M  V30 52 1 19 48
M  V30 53 1 19 49
M  V30 54 1 21 50
M  V30 55 1 22 51
M  V30 56 1 23 52
M  V30 57 1 26 53
M  V30 58 1 28 54
M  V30 59 1 29 55
M  V30 60 1 32 56
M  V30 61 1 33 57
M  V30 62 1 33 58
M  V30 63 1 34 59
M  V30 64 1 34 60
M  V30 END BOND
M  V30 END CTAB
M  END
>  <Dataset>  (866) 
ChEMBL_Kinases

>  <Ligand_Instance>  (866) 
nan

>  <PDB_ID>  (866) 
nan

>  <Standardized_SMILES>  (866) 
CNC(=O)N1CCC(c2cc3c(-c4cncc(NCc5cccc(F)c5)n4)ccnc3[nH]2)CC1

>  <Name>  (866) 
nan

>  <Pocket>  (866) 
nan

>  <ATP_Site>  (866) 
nan

>  <Peripheral>  (866) 
nan

>  <Num_H_Atoms_ProtBoundConf>  (866) 
nan

>  <Num_Resolved_Atoms>  (866) 
nan

>  <Num_Not_Resolved_Atoms>  (866) 
nan

$$$$
CHEMBL3673508
     RDKit          3D

  0  0  0  0  0  0  0  0  0  0999 V3000
M  V30 BEGIN CTAB
M  V30 COUNTS 59 63 0 0 0
M  V30 BEGIN ATOM
M  V30 1 O 2.729303 0.905751 4.659628 0
M  V30 2 C 2.920765 0.098629 3.719946 0
M  V30 3 C 2.247732 -1.208563 3.735073 0
M  V30 4 O 1.445761 -1.387650 4.855747 0
M  V30 5 N 3.772990 0.391164 2.620009 0
M  V30 6 C 4.027646 -0.501871 1.509575 0
M  V30 7 C 4.613227 0.289046 0.376766 0
M  V30 8 C 3.882554 1.579126 0.149915 0
M  V30 9 C 2.547949 1.383830 -0.477203 0
M  V30 10 C 1.394772 0.933718 0.116039 0
M  V30 11 C 0.379581 0.886358 -0.793771 0
M  V30 12 C -0.921852 0.487977 -0.645028 0
M  V30 13 C -1.593730 0.000563 0.534419 0
M  V30 14 C -1.342783 0.160674 1.860744 0
M  V30 15 N -2.093816 -0.320900 2.857118 0
M  V30 16 C -3.190340 -1.021870 2.594608 0
M  V30 17 C -3.515084 -1.227709 1.251503 0
M  V30 18 N -4.690873 -1.967770 0.921098 0
M  V30 19 C -5.202219 -2.365619 -0.377542 0
M  V30 20 C -4.250091 -3.300404 -0.999027 0
M  V30 21 C -3.187452 -3.103627 -1.845316 0
M  V30 22 C -2.428668 -4.149889 -2.294777 0
M  V30 23 F -1.393054 -3.866939 -3.131062 0
M  V30 24 C -2.665171 -5.458562 -1.941763 0
M  V30 25 C -3.735171 -5.696425 -1.084863 0
M  V30 26 F -3.954988 -6.976751 -0.749107 0
M  V30 27 C -4.493645 -4.633034 -0.637639 0
M  V30 28 N -2.712528 -0.713802 0.322159 0
M  V30 29 C -1.647973 0.560500 -1.828710 0
M  V30 30 C -1.128308 0.986748 -3.027775 0
M  V30 31 N 0.174749 1.362139 -3.067514 0
M  V30 32 C 0.944606 1.319630 -1.965526 0
M  V30 33 N 2.234260 1.613891 -1.766898 0
M  V30 34 C 3.814856 2.409708 1.388817 0
M  V30 35 C 4.480776 1.661179 2.530754 0
M  V30 36 H 1.637007 -1.396460 2.810990 0
M  V30 37 H 3.044034 -1.997309 3.682892 0
M  V30 38 H 0.646562 -1.922637 4.622748 0
M  V30 39 H 4.742737 -1.295625 1.832756 0
M  V30 40 H 3.085464 -0.998888 1.147133 0
M  V30 41 H 4.517862 -0.353102 -0.546596 0
M  V30 42 H 5.704644 0.442488 0.525633 0
M  V30 43 H 4.496640 2.159840 -0.585696 0
M  V30 44 H 1.396502 0.671624 1.142530 0
M  V30 45 H -0.504050 0.733098 2.140897 0
M  V30 46 H -3.817940 -1.423939 3.350114 0
M  V30 47 H -5.285783 -2.279341 1.725115 0
M  V30 48 H -5.287346 -1.433847 -1.003620 0
M  V30 49 H -6.211858 -2.798297 -0.305202 0
M  V30 50 H -3.050898 -2.062781 -2.090594 0
M  V30 51 H -2.062383 -6.271800 -2.301108 0
M  V30 52 H -5.290719 -4.954272 0.019268 0
M  V30 53 H -2.690059 0.277049 -1.850568 0
M  V30 54 H -1.744170 1.021792 -3.913789 0
M  V30 55 H 2.865297 1.965837 -2.524160 0
M  V30 56 H 2.772584 2.591136 1.732295 0
M  V30 57 H 4.281922 3.415367 1.301095 0
M  V30 58 H 4.417952 2.226373 3.478445 0
M  V30 59 H 5.541083 1.539516 2.248576 0
M  V30 END ATOM
M  V30 BEGIN BOND
M  V30 1 2 1 2
M  V30 2 1 2 3
M  V30 3 1 3 4
M  V30 4 1 2 5
M  V30 5 1 5 6
M  V30 6 1 6 7
M  V30 7 1 7 8
M  V30 8 1 8 9
M  V30 9 2 9 10
M  V30 10 1 10 11
M  V30 11 2 11 12
M  V30 12 1 12 13
M  V30 13 2 13 14
M  V30 14 1 14 15
M  V30 15 2 15 16
M  V30 16 1 16 17
M  V30 17 1 17 18
M  V30 18 1 18 19
M  V30 19 1 19 20
M  V30 20 2 20 21
M  V30 21 1 21 22
M  V30 22 1 22 23
M  V30 23 2 22 24
M  V30 24 1 24 25
M  V30 25 1 25 26
M  V30 26 2 25 27
M  V30 27 2 17 28
M  V30 28 1 12 29
M  V30 29 2 29 30
M  V30 30 1 30 31
M  V30 31 2 31 32
M  V30 32 1 32 33
M  V30 33 1 8 34
M  V30 34 1 34 35
M  V30 35 1 35 5
M  V30 36 1 33 9
M  V30 37 1 32 11
M  V30 38 1 28 13
M  V30 39 1 27 20
M  V30 40 1 3 36
M  V30 41 1 3 37
M  V30 42 1 4 38
M  V30 43 1 6 39
M  V30 44 1 6 40
M  V30 45 1 7 41
M  V30 46 1 7 42
M  V30 47 1 8 43
M  V30 48 1 10 44
M  V30 49 1 14 45
M  V30 50 1 16 46
M  V30 51 1 18 47
M  V30 52 1 19 48
M  V30 53 1 19 49
M  V30 54 1 21 50
M  V30 55 1 24 51
M  V30 56 1 27 52
M  V30 57 1 29 53
M  V30 58 1 30 54
M  V30 59 1 33 55
M  V30 60 1 34 56
M  V30 61 1 34 57
M  V30 62 1 35 58
M  V30 63 1 35 59
M  V30 END BOND
M  V30 END CTAB
M  END
>  <Dataset>  (867) 
ChEMBL_Kinases

>  <Ligand_Instance>  (867) 
nan

>  <PDB_ID>  (867) 
nan

>  <Standardized_SMILES>  (867) 
O=C(CO)N1CCC(c2cc3c(-c4cncc(NCc5cc(F)cc(F)c5)n4)ccnc3[nH]2)CC1

>  <Name>  (867) 
nan

>  <Pocket>  (867) 
nan

>  <ATP_Site>  (867) 
nan

>  <Peripheral>  (867) 
nan

>  <Num_H_Atoms_ProtBoundConf>  (867) 
nan

>  <Num_Resolved_Atoms>  (867) 
nan

>  <Num_Not_Resolved_Atoms>  (867) 
nan

$$$$
CHEMBL3673509
     RDKit          3D

  0  0  0  0  0  0  0  0  0  0999 V3000
M  V30 BEGIN CTAB
M  V30 COUNTS 59 63 0 0 0
M  V30 BEGIN ATOM
M  V30 1 O 4.625854 1.021472 4.773610 0
M  V30 2 C 4.816015 -0.004421 4.051853 0
M  V30 3 C 4.937173 -1.450441 4.346327 0
M  V30 4 O 4.794922 -1.595715 5.725556 0
M  V30 5 N 4.934678 0.327704 2.675295 0
M  V30 6 C 4.836832 1.708134 2.232134 0
M  V30 7 C 3.676323 1.824198 1.302787 0
M  V30 8 C 3.662055 0.826638 0.193234 0
M  V30 9 C 2.326324 0.816844 -0.458010 0
M  V30 10 C 1.110151 0.571094 0.089155 0
M  V30 11 C 0.136250 0.660517 -0.845251 0
M  V30 12 C -1.216711 0.474683 -0.737361 0
M  V30 13 C -1.996026 0.124967 0.427173 0
M  V30 14 C -1.759736 0.279879 1.762634 0
M  V30 15 N -2.604075 -0.051906 2.747143 0
M  V30 16 C -3.797091 -0.584660 2.450241 0
M  V30 17 C -4.100874 -0.767775 1.120090 0
M  V30 18 N -5.359494 -1.318616 0.734106 0
M  V30 19 C -5.850048 -1.662998 -0.601209 0
M  V30 20 C -5.054721 -2.766317 -1.177831 0
M  V30 21 C -5.546418 -4.025585 -0.840141 0
M  V30 22 C -4.960364 -5.210501 -1.274025 0
M  V30 23 C -3.833632 -5.170652 -2.080945 0
M  V30 24 C -3.350947 -3.924299 -2.412441 0
M  V30 25 F -2.255764 -3.826242 -3.196115 0
M  V30 26 C -3.939446 -2.758597 -1.977245 0
M  V30 27 N -3.204552 -0.411570 0.190486 0
M  V30 28 C -1.886879 0.629029 -1.935963 0
M  V30 29 C -1.255082 0.940732 -3.119080 0
M  V30 30 N 0.078736 1.107826 -3.135073 0
M  V30 31 C 0.801679 0.968987 -1.988262 0
M  V30 32 N 2.103300 1.066306 -1.776111 0
M  V30 33 C 3.950518 -0.588740 0.656077 0
M  V30 34 C 5.157278 -0.608770 1.573210 0
M  V30 35 H 4.255832 -2.069538 3.755181 0
M  V30 36 H 5.970812 -1.765690 4.101826 0
M  V30 37 H 4.519676 -2.521620 5.979641 0
M  V30 38 H 5.788141 2.092690 1.796054 0
M  V30 39 H 4.623225 2.369280 3.110711 0
M  V30 40 H 3.612728 2.830390 0.843329 0
M  V30 41 H 2.736710 1.718600 1.916478 0
M  V30 42 H 4.431869 1.074681 -0.541051 0
M  V30 43 H 1.047041 0.331633 1.129881 0
M  V30 44 H -0.848098 0.723075 2.065606 0
M  V30 45 H -4.504304 -0.864946 3.206154 0
M  V30 46 H -6.040343 -1.507935 1.523401 0
M  V30 47 H -5.779419 -0.761643 -1.271472 0
M  V30 48 H -6.921783 -1.912468 -0.553451 0
M  V30 49 H -6.428743 -4.189367 -0.209818 0
M  V30 50 H -5.356586 -6.180558 -1.001282 0
M  V30 51 H -3.406010 -6.100416 -2.397697 0
M  V30 52 H -3.598741 -1.764476 -2.213380 0
M  V30 53 H -2.959566 0.514093 -1.998658 0
M  V30 54 H -1.823741 1.052081 -4.030782 0
M  V30 55 H 2.835776 1.295344 -2.495554 0
M  V30 56 H 4.185049 -1.177166 -0.260328 0
M  V30 57 H 3.045128 -1.021776 1.091831 0
M  V30 58 H 5.308097 -1.606328 1.982317 0
M  V30 59 H 5.999892 -0.194079 0.984562 0
M  V30 END ATOM
M  V30 BEGIN BOND
M  V30 1 2 1 2
M  V30 2 1 2 3
M  V30 3 1 3 4
M  V30 4 1 2 5
M  V30 5 1 5 6
M  V30 6 1 6 7
M  V30 7 1 7 8
M  V30 8 1 8 9
M  V30 9 2 9 10
M  V30 10 1 10 11
M  V30 11 2 11 12
M  V30 12 1 12 13
M  V30 13 2 13 14
M  V30 14 1 14 15
M  V30 15 2 15 16
M  V30 16 1 16 17
M  V30 17 1 17 18
M  V30 18 1 18 19
M  V30 19 1 19 20
M  V30 20 2 20 21
M  V30 21 1 21 22
M  V30 22 2 22 23
M  V30 23 1 23 24
M  V30 24 1 24 25
M  V30 25 2 24 26
M  V30 26 2 17 27
M  V30 27 1 12 28
M  V30 28 2 28 29
M  V30 29 1 29 30
M  V30 30 2 30 31
M  V30 31 1 31 32
M  V30 32 1 8 33
M  V30 33 1 33 34
M  V30 34 1 34 5
M  V30 35 1 32 9
M  V30 36 1 31 11
M  V30 37 1 27 13
M  V30 38 1 26 20
M  V30 39 1 3 35
M  V30 40 1 3 36
M  V30 41 1 4 37
M  V30 42 1 6 38
M  V30 43 1 6 39
M  V30 44 1 7 40
M  V30 45 1 7 41
M  V30 46 1 8 42
M  V30 47 1 10 43
M  V30 48 1 14 44
M  V30 49 1 16 45
M  V30 50 1 18 46
M  V30 51 1 19 47
M  V30 52 1 19 48
M  V30 53 1 21 49
M  V30 54 1 22 50
M  V30 55 1 23 51
M  V30 56 1 26 52
M  V30 57 1 28 53
M  V30 58 1 29 54
M  V30 59 1 32 55
M  V30 60 1 33 56
M  V30 61 1 33 57
M  V30 62 1 34 58
M  V30 63 1 34 59
M  V30 END BOND
M  V30 END CTAB
M  END
>  <Dataset>  (868) 
ChEMBL_Kinases

>  <Ligand_Instance>  (868) 
nan

>  <PDB_ID>  (868) 
nan

>  <Standardized_SMILES>  (868) 
O=C(CO)N1CCC(c2cc3c(-c4cncc(NCc5cccc(F)c5)n4)ccnc3[nH]2)CC1

>  <Name>  (868) 
nan

>  <Pocket>  (868) 
nan

>  <ATP_Site>  (868) 
nan

>  <Peripheral>  (868) 
nan

>  <Num_H_Atoms_ProtBoundConf>  (868) 
nan

>  <Num_Resolved_Atoms>  (868) 
nan

>  <Num_Not_Resolved_Atoms>  (868) 
nan

$$$$
CHEMBL3673510
     RDKit          3D

  0  0  0  0  0  0  0  0  0  0999 V3000
M  V30 BEGIN CTAB
M  V30 COUNTS 59 63 0 0 0
M  V30 BEGIN ATOM
M  V30 1 O 3.722499 -2.580170 3.837589 0
M  V30 2 C 3.783079 -1.302194 3.762790 0
M  V30 3 C 3.812816 -1.681797 5.195314 0
M  V30 4 O 3.738946 -3.053169 5.365571 0
M  V30 5 N 3.773696 -0.635162 2.511906 0
M  V30 6 C 3.846717 0.778639 2.580841 0
M  V30 7 C 4.157003 1.466058 1.292142 0
M  V30 8 C 4.175396 0.593937 0.092257 0
M  V30 9 C 2.861742 0.646391 -0.627760 0
M  V30 10 C 1.595004 0.620978 -0.100508 0
M  V30 11 C 0.635245 0.677773 -1.077939 0
M  V30 12 C -0.730051 0.659831 -0.963252 0
M  V30 13 C -1.547891 0.578158 0.201023 0
M  V30 14 C -1.318777 0.888929 1.494234 0
M  V30 15 N -2.201763 0.805846 2.492896 0
M  V30 16 C -3.451977 0.379133 2.240779 0
M  V30 17 C -3.755542 0.044772 0.937468 0
M  V30 18 N -5.079865 -0.404429 0.619583 0
M  V30 19 C -5.606258 -0.870991 -0.648877 0
M  V30 20 C -4.945163 -2.131839 -1.049397 0
M  V30 21 C -3.836518 -2.358109 -1.820551 0
M  V30 22 C -3.402968 -3.648995 -2.052143 0
M  V30 23 C -4.043234 -4.768210 -1.534022 0
M  V30 24 C -5.159024 -4.543032 -0.757878 0
M  V30 25 C -5.580374 -3.252285 -0.534894 0
M  V30 26 N -2.812064 0.156198 -0.004930 0
M  V30 27 C -1.348575 0.709669 -2.219610 0
M  V30 28 C -0.679667 0.770915 -3.420113 0
M  V30 29 N 0.665387 0.784590 -3.407595 0
M  V30 30 C 1.359607 0.738397 -2.242054 0
M  V30 31 N 2.675696 0.720968 -1.981524 0
M  V30 32 C 4.589754 -0.822112 0.298005 0
M  V30 33 C 3.693047 -1.457462 1.329285 0
M  V30 34 H 4.721627 -1.298581 5.710370 0
M  V30 35 H 2.963532 -1.198757 5.726224 0
M  V30 36 H 4.628566 -3.507120 5.322868 0
M  V30 37 H 2.873647 1.137015 2.992568 0
M  V30 38 H 4.593758 1.060713 3.349948 0
M  V30 39 H 5.124978 2.005668 1.382046 0
M  V30 40 H 3.405731 2.267523 1.114205 0
M  V30 41 H 4.917208 1.003557 -0.667257 0
M  V30 42 H 1.479191 0.554161 0.943111 0
M  V30 43 H -0.375230 1.258250 1.766044 0
M  V30 44 H -4.184137 0.300655 3.014125 0
M  V30 45 H -5.774368 -0.398602 1.413394 0
M  V30 46 H -6.696707 -0.978591 -0.588460 0
M  V30 47 H -5.380896 -0.065821 -1.417201 0
M  V30 48 H -3.384822 -1.469300 -2.194952 0
M  V30 49 H -2.524464 -3.783165 -2.665698 0
M  V30 50 H -3.684411 -5.771499 -1.729209 0
M  V30 51 H -5.637678 -5.424673 -0.367958 0
M  V30 52 H -6.477380 -3.228695 0.098121 0
M  V30 53 H -2.436875 0.707074 -2.293102 0
M  V30 54 H -1.230363 0.807236 -4.348012 0
M  V30 55 H 3.434277 0.758862 -2.712061 0
M  V30 56 H 4.396216 -1.352198 -0.677655 0
M  V30 57 H 5.664980 -0.916325 0.558542 0
M  V30 58 H 3.992831 -2.512146 1.543371 0
M  V30 59 H 2.673734 -1.481405 0.927540 0
M  V30 END ATOM
M  V30 BEGIN BOND
M  V30 1 2 1 2
M  V30 2 1 2 3
M  V30 3 1 3 4
M  V30 4 1 2 5
M  V30 5 1 5 6
M  V30 6 1 6 7
M  V30 7 1 7 8
M  V30 8 1 8 9
M  V30 9 2 9 10
M  V30 10 1 10 11
M  V30 11 2 11 12
M  V30 12 1 12 13
M  V30 13 2 13 14
M  V30 14 1 14 15
M  V30 15 2 15 16
M  V30 16 1 16 17
M  V30 17 1 17 18
M  V30 18 1 18 19
M  V30 19 1 19 20
M  V30 20 2 20 21
M  V30 21 1 21 22
M  V30 22 2 22 23
M  V30 23 1 23 24
M  V30 24 2 24 25
M  V30 25 2 17 26
M  V30 26 1 12 27
M  V30 27 2 27 28
M  V30 28 1 28 29
M  V30 29 2 29 30
M  V30 30 1 30 31
M  V30 31 1 8 32
M  V30 32 1 32 33
M  V30 33 1 33 5
M  V30 34 1 31 9
M  V30 35 1 30 11
M  V30 36 1 26 13
M  V30 37 1 25 20
M  V30 38 1 3 34
M  V30 39 1 3 35
M  V30 40 1 4 36
M  V30 41 1 6 37
M  V30 42 1 6 38
M  V30 43 1 7 39
M  V30 44 1 7 40
M  V30 45 1 8 41
M  V30 46 1 10 42
M  V30 47 1 14 43
M  V30 48 1 16 44
M  V30 49 1 18 45
M  V30 50 1 19 46
M  V30 51 1 19 47
M  V30 52 1 21 48
M  V30 53 1 22 49
M  V30 54 1 23 50
M  V30 55 1 24 51
M  V30 56 1 25 52
M  V30 57 1 27 53
M  V30 58 1 28 54
M  V30 59 1 31 55
M  V30 60 1 32 56
M  V30 61 1 32 57
M  V30 62 1 33 58
M  V30 63 1 33 59
M  V30 END BOND
M  V30 END CTAB
M  END
>  <Dataset>  (869) 
ChEMBL_Kinases

>  <Ligand_Instance>  (869) 
nan

>  <PDB_ID>  (869) 
nan

>  <Standardized_SMILES>  (869) 
O=C(CO)N1CCC(c2cc3c(-c4cncc(NCc5ccccc5)n4)ccnc3[nH]2)CC1

>  <Name>  (869) 
nan

>  <Pocket>  (869) 
nan

>  <ATP_Site>  (869) 
nan

>  <Peripheral>  (869) 
nan

>  <Num_H_Atoms_ProtBoundConf>  (869) 
nan

>  <Num_Resolved_Atoms>  (869) 
nan

>  <Num_Not_Resolved_Atoms>  (869) 
nan

$$$$
CHEMBL3673511
     RDKit          3D

  0  0  0  0  0  0  0  0  0  0999 V3000
M  V30 BEGIN CTAB
M  V30 COUNTS 59 63 0 0 0
M  V30 BEGIN ATOM
M  V30 1 C -0.234931 -0.293132 4.510781 0
M  V30 2 N 0.436243 -1.548235 4.285312 0
M  V30 3 C 1.852078 -1.392686 4.390774 0
M  V30 4 C 2.535881 -1.322854 3.042603 0
M  V30 5 C 2.313398 -2.561332 2.232338 0
M  V30 6 C 2.530894 -2.316471 0.769767 0
M  V30 7 C 1.865080 -1.415030 -0.036611 0
M  V30 8 C 2.319354 -1.455784 -1.336867 0
M  V30 9 C 1.960056 -0.744953 -2.461057 0
M  V30 10 C 0.933665 0.285887 -2.467915 0
M  V30 11 C 0.771350 1.077921 -3.579205 0
M  V30 12 N -0.148712 2.060081 -3.606355 0
M  V30 13 C -0.953063 2.301405 -2.526772 0
M  V30 14 C -0.799955 1.512604 -1.406047 0
M  V30 15 N -1.634081 1.804682 -0.296282 0
M  V30 16 C -2.409846 3.034697 -0.328453 0
M  V30 17 C -1.815111 0.940839 0.865359 0
M  V30 18 C -2.559570 -0.288546 0.508208 0
M  V30 19 C -2.138240 -1.514910 0.078377 0
M  V30 20 C -3.038748 -2.517873 -0.197627 0
M  V30 21 C -4.402140 -2.385773 -0.071843 0
M  V30 22 C -4.842816 -1.161930 0.357885 0
M  V30 23 C -3.948180 -0.138883 0.641118 0
M  V30 24 N 0.129787 0.541429 -1.416763 0
M  V30 25 C 2.672376 -1.078183 -3.589105 0
M  V30 26 C 3.653102 -2.037559 -3.582789 0
M  V30 27 N 3.982000 -2.722490 -2.449984 0
M  V30 28 C 3.296895 -2.420464 -1.306141 0
M  V30 29 N 3.411546 -2.918920 -0.062417 0
M  V30 30 C 0.993886 -3.184004 2.531814 0
M  V30 31 C -0.026564 -2.237425 3.121926 0
M  V30 32 H -0.944681 -0.142085 3.658019 0
M  V30 33 H -0.802002 -0.279616 5.468590 0
M  V30 34 H 0.462699 0.556576 4.529256 0
M  V30 35 H 2.045227 -0.438678 4.924882 0
M  V30 36 H 2.281066 -2.233955 4.978314 0
M  V30 37 H 3.629619 -1.178100 3.286612 0
M  V30 38 H 2.225217 -0.382295 2.545984 0
M  V30 39 H 3.112318 -3.301875 2.530831 0
M  V30 40 H 1.092597 -0.767670 0.346876 0
M  V30 41 H 1.335732 0.998313 -4.493874 0
M  V30 42 H -1.660364 3.120121 -2.666493 0
M  V30 43 H -1.817467 3.846852 -0.789064 0
M  V30 44 H -2.616644 3.343312 0.720169 0
M  V30 45 H -3.312307 2.856843 -0.911145 0
M  V30 46 H -0.808726 0.621982 1.244813 0
M  V30 47 H -2.325437 1.477855 1.676785 0
M  V30 48 H -1.079555 -1.594122 -0.012162 0
M  V30 49 H -2.624932 -3.461986 -0.532922 0
M  V30 50 H -5.109766 -3.153457 -0.282048 0
M  V30 51 H -5.916561 -1.020562 0.469090 0
M  V30 52 H -4.430093 0.788811 0.975657 0
M  V30 53 H 2.515130 -0.622085 -4.537213 0
M  V30 54 H 4.233353 -2.324624 -4.452706 0
M  V30 55 H 4.086181 -3.659964 0.198731 0
M  V30 56 H 0.567929 -3.569327 1.584443 0
M  V30 57 H 1.122403 -4.043293 3.206256 0
M  V30 58 H -0.369386 -1.481454 2.384191 0
M  V30 59 H -0.928313 -2.872559 3.343646 0
M  V30 END ATOM
M  V30 BEGIN BOND
M  V30 1 1 1 2
M  V30 2 1 2 3
M  V30 3 1 3 4
M  V30 4 1 4 5
M  V30 5 1 5 6
M  V30 6 2 6 7
M  V30 7 1 7 8
M  V30 8 2 8 9
M  V30 9 1 9 10
M  V30 10 2 10 11
M  V30 11 1 11 12
M  V30 12 2 12 13
M  V30 13 1 13 14
M  V30 14 1 14 15
M  V30 15 1 15 16
M  V30 16 1 15 17
M  V30 17 1 17 18
M  V30 18 2 18 19
M  V30 19 1 19 20
M  V30 20 2 20 21
M  V30 21 1 21 22
M  V30 22 2 22 23
M  V30 23 2 14 24
M  V30 24 1 9 25
M  V30 25 2 25 26
M  V30 26 1 26 27
M  V30 27 2 27 28
M  V30 28 1 28 29
M  V30 29 1 5 30
M  V30 30 1 30 31
M  V30 31 1 31 2
M  V30 32 1 29 6
M  V30 33 1 28 8
M  V30 34 1 24 10
M  V30 35 1 23 18
M  V30 36 1 1 32
M  V30 37 1 1 33
M  V30 38 1 1 34
M  V30 39 1 3 35
M  V30 40 1 3 36
M  V30 41 1 4 37
M  V30 42 1 4 38
M  V30 43 1 5 39
M  V30 44 1 7 40
M  V30 45 1 11 41
M  V30 46 1 13 42
M  V30 47 1 16 43
M  V30 48 1 16 44
M  V30 49 1 16 45
M  V30 50 1 17 46
M  V30 51 1 17 47
M  V30 52 1 19 48
M  V30 53 1 20 49
M  V30 54 1 21 50
M  V30 55 1 22 51
M  V30 56 1 23 52
M  V30 57 1 25 53
M  V30 58 1 26 54
M  V30 59 1 29 55
M  V30 60 1 30 56
M  V30 61 1 30 57
M  V30 62 1 31 58
M  V30 63 1 31 59
M  V30 END BOND
M  V30 END CTAB
M  END
>  <Dataset>  (870) 
ChEMBL_Kinases

>  <Ligand_Instance>  (870) 
nan

>  <PDB_ID>  (870) 
nan

>  <Standardized_SMILES>  (870) 
CN1CCC(c2cc3c(-c4cncc(N(C)Cc5ccccc5)n4)ccnc3[nH]2)CC1

>  <Name>  (870) 
nan

>  <Pocket>  (870) 
nan

>  <ATP_Site>  (870) 
nan

>  <Peripheral>  (870) 
nan

>  <Num_H_Atoms_ProtBoundConf>  (870) 
nan

>  <Num_Resolved_Atoms>  (870) 
nan

>  <Num_Not_Resolved_Atoms>  (870) 
nan

$$$$
CHEMBL3673512
     RDKit          3D

  0  0  0  0  0  0  0  0  0  0999 V3000
M  V30 BEGIN CTAB
M  V30 COUNTS 56 60 0 0 0
M  V30 BEGIN ATOM
M  V30 1 C -2.098278 -2.482210 0.216345 0
M  V30 2 N -0.990631 -2.850417 1.061674 0
M  V30 3 C -0.824628 -2.005807 2.202404 0
M  V30 4 C 0.478643 -2.339828 2.883175 0
M  V30 5 C 1.217743 -3.487034 2.264850 0
M  V30 6 C 1.932549 -3.015605 1.019856 0
M  V30 7 C 1.760054 -1.839129 0.323993 0
M  V30 8 C 2.584575 -1.770230 -0.775743 0
M  V30 9 C 2.848546 -0.879487 -1.801717 0
M  V30 10 C 2.126130 0.381431 -1.831514 0
M  V30 11 C 2.367632 1.275591 -2.826927 0
M  V30 12 N 1.758173 2.465455 -2.934000 0
M  V30 13 C 0.841431 2.859190 -2.033771 0
M  V30 14 C 0.587747 1.958230 -1.017945 0
M  V30 15 N -0.328397 2.096088 0.077641 0
M  V30 16 C -1.672395 2.376546 -0.395496 0
M  V30 17 C -2.661024 2.461324 0.711248 0
M  V30 18 C -3.246661 1.237261 1.036515 0
M  V30 19 C -4.193019 1.041087 2.030365 0
M  V30 20 C -4.565940 2.169143 2.738405 0
M  V30 21 C -4.012381 3.405186 2.452095 0
M  V30 22 C -3.075991 3.545162 1.454723 0
M  V30 23 N 1.214251 0.754223 -0.922602 0
M  V30 24 C 3.801133 -1.249209 -2.728068 0
M  V30 25 C 4.488256 -2.437705 -2.679781 0
M  V30 26 N 4.224743 -3.311068 -1.663863 0
M  V30 27 C 3.289278 -2.979033 -0.731696 0
M  V30 28 N 2.878268 -3.689378 0.343604 0
M  V30 29 C 0.276943 -4.633784 1.965479 0
M  V30 30 C -1.107153 -4.204780 1.559101 0
M  V30 31 H -2.951741 -2.062658 0.746097 0
M  V30 32 H -2.465503 -3.464327 -0.212331 0
M  V30 33 H -1.759783 -1.879001 -0.621392 0
M  V30 34 H -0.833815 -0.916699 1.986402 0
M  V30 35 H -1.667571 -2.145403 2.929850 0
M  V30 36 H 1.184716 -1.448500 2.831360 0
M  V30 37 H 0.339596 -2.509616 3.973830 0
M  V30 38 H 1.970245 -3.902831 2.982925 0
M  V30 39 H 1.081725 -1.059641 0.578558 0
M  V30 40 H 3.061581 1.154508 -3.643238 0
M  V30 41 H 0.261975 3.769338 -1.962506 0
M  V30 42 H -0.080898 2.008690 1.105230 0
M  V30 43 H -1.997870 1.647862 -1.136422 0
M  V30 44 H -1.598985 3.385765 -0.900409 0
M  V30 45 H -2.985957 0.308639 0.507529 0
M  V30 46 H -4.622491 0.089396 2.251957 0
M  V30 47 H -5.309134 2.057869 3.527229 0
M  V30 48 H -4.293272 4.304161 2.997610 0
M  V30 49 H -2.580379 4.472667 1.149894 0
M  V30 50 H 4.040568 -0.598238 -3.547689 0
M  V30 51 H 5.227513 -2.729915 -3.397192 0
M  V30 52 H 3.248493 -4.638749 0.611103 0
M  V30 53 H 0.187617 -5.237404 2.903473 0
M  V30 54 H 0.671121 -5.256324 1.130247 0
M  V30 55 H -1.781219 -4.133579 2.461398 0
M  V30 56 H -1.622621 -4.873089 0.870984 0
M  V30 END ATOM
M  V30 BEGIN BOND
M  V30 1 1 1 2
M  V30 2 1 2 3
M  V30 3 1 3 4
M  V30 4 1 4 5
M  V30 5 1 5 6
M  V30 6 2 6 7
M  V30 7 1 7 8
M  V30 8 2 8 9
M  V30 9 1 9 10
M  V30 10 2 10 11
M  V30 11 1 11 12
M  V30 12 2 12 13
M  V30 13 1 13 14
M  V30 14 1 14 15
M  V30 15 1 15 16
M  V30 16 1 16 17
M  V30 17 2 17 18
M  V30 18 1 18 19
M  V30 19 2 19 20
M  V30 20 1 20 21
M  V30 21 2 21 22
M  V30 22 2 14 23
M  V30 23 1 9 24
M  V30 24 2 24 25
M  V30 25 1 25 26
M  V30 26 2 26 27
M  V30 27 1 27 28
M  V30 28 1 5 29
M  V30 29 1 29 30
M  V30 30 1 30 2
M  V30 31 1 28 6
M  V30 32 1 27 8
M  V30 33 1 23 10
M  V30 34 1 22 17
M  V30 35 1 1 31
M  V30 36 1 1 32
M  V30 37 1 1 33
M  V30 38 1 3 34
M  V30 39 1 3 35
M  V30 40 1 4 36
M  V30 41 1 4 37
M  V30 42 1 5 38
M  V30 43 1 7 39
M  V30 44 1 11 40
M  V30 45 1 13 41
M  V30 46 1 15 42
M  V30 47 1 16 43
M  V30 48 1 16 44
M  V30 49 1 18 45
M  V30 50 1 19 46
M  V30 51 1 20 47
M  V30 52 1 21 48
M  V30 53 1 22 49
M  V30 54 1 24 50
M  V30 55 1 25 51
M  V30 56 1 28 52
M  V30 57 1 29 53
M  V30 58 1 29 54
M  V30 59 1 30 55
M  V30 60 1 30 56
M  V30 END BOND
M  V30 END CTAB
M  END
>  <Dataset>  (871) 
ChEMBL_Kinases

>  <Ligand_Instance>  (871) 
nan

>  <PDB_ID>  (871) 
nan

>  <Standardized_SMILES>  (871) 
CN1CCC(c2cc3c(-c4cncc(NCc5ccccc5)n4)ccnc3[nH]2)CC1

>  <Name>  (871) 
nan

>  <Pocket>  (871) 
nan

>  <ATP_Site>  (871) 
nan

>  <Peripheral>  (871) 
nan

>  <Num_H_Atoms_ProtBoundConf>  (871) 
nan

>  <Num_Resolved_Atoms>  (871) 
nan

>  <Num_Not_Resolved_Atoms>  (871) 
nan

$$$$
CHEMBL3673513
     RDKit          3D

  0  0  0  0  0  0  0  0  0  0999 V3000
M  V30 BEGIN CTAB
M  V30 COUNTS 58 62 0 0 0
M  V30 BEGIN ATOM
M  V30 1 C 0.552908 1.029563 4.388450 0
M  V30 2 C 0.688409 -0.292457 3.755143 0
M  V30 3 O -0.030145 -1.285311 4.028452 0
M  V30 4 N 1.598318 -0.740944 2.752542 0
M  V30 5 C 1.432297 -2.128877 2.379915 0
M  V30 6 C 2.686394 -2.573531 1.715939 0
M  V30 7 C 3.342747 -1.556042 0.852530 0
M  V30 8 C 2.698400 -1.287628 -0.436965 0
M  V30 9 C 1.469814 -0.706783 -0.774405 0
M  V30 10 C 1.271833 -0.632338 -2.128580 0
M  V30 11 C 0.293265 -0.162121 -2.955284 0
M  V30 12 C -0.905288 0.456824 -2.418178 0
M  V30 13 C -1.722416 1.147591 -3.293098 0
M  V30 14 N -2.861467 1.814984 -2.957095 0
M  V30 15 C -3.239911 1.809012 -1.653929 0
M  V30 16 C -2.451230 1.133312 -0.768293 0
M  V30 17 N -2.834038 1.136156 0.600079 0
M  V30 18 C -2.275443 0.292565 1.636994 0
M  V30 19 C -2.708087 -1.134038 1.425230 0
M  V30 20 C -3.896783 -1.415404 2.087445 0
M  V30 21 C -4.526763 -2.651909 2.062576 0
M  V30 22 C -3.946264 -3.668784 1.340238 0
M  V30 23 C -2.776041 -3.382799 0.691553 0
M  V30 24 C -2.145447 -2.154095 0.713560 0
M  V30 25 N -1.331499 0.487790 -1.147871 0
M  V30 26 C 0.503197 -0.268146 -4.312619 0
M  V30 27 C 1.640558 -0.819510 -4.845480 0
M  V30 28 N 2.583035 -1.272672 -4.004364 0
M  V30 29 C 2.407230 -1.183116 -2.673639 0
M  V30 30 N 3.214440 -1.553902 -1.670433 0
M  V30 31 C 3.644500 -0.287000 1.585548 0
M  V30 32 C 2.490004 0.312721 2.329639 0
M  V30 33 H 0.869480 1.852954 3.708059 0
M  V30 34 H 1.138858 1.086995 5.333051 0
M  V30 35 H -0.518330 1.198415 4.636469 0
M  V30 36 H 0.543687 -2.240563 1.740087 0
M  V30 37 H 1.298702 -2.702569 3.347210 0
M  V30 38 H 3.417264 -2.831898 2.525830 0
M  V30 39 H 2.550233 -3.535831 1.152882 0
M  V30 40 H 4.360269 -2.017230 0.586718 0
M  V30 41 H 0.760753 -0.357371 -0.037021 0
M  V30 42 H -1.591034 1.270012 -4.365446 0
M  V30 43 H -4.124230 2.310278 -1.298736 0
M  V30 44 H -3.573936 1.781681 0.942187 0
M  V30 45 H -2.512526 0.608964 2.646091 0
M  V30 46 H -1.157042 0.300232 1.535351 0
M  V30 47 H -4.459981 -0.691525 2.696499 0
M  V30 48 H -5.446064 -2.870762 2.571955 0
M  V30 49 H -4.397283 -4.661139 1.284439 0
M  V30 50 H -2.245191 -4.134059 0.094821 0
M  V30 51 H -1.237558 -1.886503 0.226512 0
M  V30 52 H -0.187445 0.058711 -5.054744 0
M  V30 53 H 1.828268 -0.913868 -5.897939 0
M  V30 54 H 4.154819 -2.008126 -1.842655 0
M  V30 55 H 4.077636 0.489095 0.900973 0
M  V30 56 H 4.503679 -0.513560 2.284595 0
M  V30 57 H 2.855213 0.873164 3.228184 0
M  V30 58 H 1.969843 1.033540 1.636294 0
M  V30 END ATOM
M  V30 BEGIN BOND
M  V30 1 1 1 2
M  V30 2 2 2 3
M  V30 3 1 2 4
M  V30 4 1 4 5
M  V30 5 1 5 6
M  V30 6 1 6 7
M  V30 7 1 7 8
M  V30 8 2 8 9
M  V30 9 1 9 10
M  V30 10 2 10 11
M  V30 11 1 11 12
M  V30 12 2 12 13
M  V30 13 1 13 14
M  V30 14 2 14 15
M  V30 15 1 15 16
M  V30 16 1 16 17
M  V30 17 1 17 18
M  V30 18 1 18 19
M  V30 19 2 19 20
M  V30 20 1 20 21
M  V30 21 2 21 22
M  V30 22 1 22 23
M  V30 23 2 23 24
M  V30 24 2 16 25
M  V30 25 1 11 26
M  V30 26 2 26 27
M  V30 27 1 27 28
M  V30 28 2 28 29
M  V30 29 1 29 30
M  V30 30 1 7 31
M  V30 31 1 31 32
M  V30 32 1 32 4
M  V30 33 1 30 8
M  V30 34 1 29 10
M  V30 35 1 25 12
M  V30 36 1 24 19
M  V30 37 1 1 33
M  V30 38 1 1 34
M  V30 39 1 1 35
M  V30 40 1 5 36
M  V30 41 1 5 37
M  V30 42 1 6 38
M  V30 43 1 6 39
M  V30 44 1 7 40
M  V30 45 1 9 41
M  V30 46 1 13 42
M  V30 47 1 15 43
M  V30 48 1 17 44
M  V30 49 1 18 45
M  V30 50 1 18 46
M  V30 51 1 20 47
M  V30 52 1 21 48
M  V30 53 1 22 49
M  V30 54 1 23 50
M  V30 55 1 24 51
M  V30 56 1 26 52
M  V30 57 1 27 53
M  V30 58 1 30 54
M  V30 59 1 31 55
M  V30 60 1 31 56
M  V30 61 1 32 57
M  V30 62 1 32 58
M  V30 END BOND
M  V30 END CTAB
M  END
>  <Dataset>  (872) 
ChEMBL_Kinases

>  <Ligand_Instance>  (872) 
nan

>  <PDB_ID>  (872) 
nan

>  <Standardized_SMILES>  (872) 
CC(=O)N1CCC(c2cc3c(-c4cncc(NCc5ccccc5)n4)ccnc3[nH]2)CC1

>  <Name>  (872) 
nan

>  <Pocket>  (872) 
nan

>  <ATP_Site>  (872) 
nan

>  <Peripheral>  (872) 
nan

>  <Num_H_Atoms_ProtBoundConf>  (872) 
nan

>  <Num_Resolved_Atoms>  (872) 
nan

>  <Num_Not_Resolved_Atoms>  (872) 
nan

$$$$
CHEMBL3673514
     RDKit          3D

  0  0  0  0  0  0  0  0  0  0999 V3000
M  V30 BEGIN CTAB
M  V30 COUNTS 64 68 0 0 0
M  V30 BEGIN ATOM
M  V30 1 O 5.921750 -1.648934 -1.249350 0
M  V30 2 C 5.520078 -0.422332 -0.731762 0
M  V30 3 C 5.643855 0.679574 -1.793389 0
M  V30 4 O 7.000045 0.709009 -2.151693 0
M  V30 5 C 5.248575 2.008288 -1.192984 0
M  V30 6 N 3.904754 2.097298 -0.795601 0
M  V30 7 C 2.887012 2.098856 -1.771609 0
M  V30 8 C 1.561757 2.400055 -1.099202 0
M  V30 9 C 1.306486 1.533836 0.094981 0
M  V30 10 C -0.061353 1.764052 0.635782 0
M  V30 11 C -1.021197 0.850123 1.013805 0
M  V30 12 C -2.173071 1.458275 1.464850 0
M  V30 13 C -3.396483 1.044154 1.947275 0
M  V30 14 C -3.651871 -0.384089 2.068240 0
M  V30 15 C -4.854191 -0.846304 2.565852 0
M  V30 16 N -5.131924 -2.143657 2.707124 0
M  V30 17 C -4.258582 -3.100263 2.374178 0
M  V30 18 C -3.049402 -2.672547 1.874301 0
M  V30 19 N -1.963091 -3.486642 1.472121 0
M  V30 20 C -1.701587 -4.220498 0.223966 0
M  V30 21 C -2.820535 -5.226036 0.158318 0
M  V30 22 C -4.053600 -5.046387 -0.424568 0
M  V30 23 C -5.002842 -6.046464 -0.412722 0
M  V30 24 C -4.712030 -7.269111 0.201991 0
M  V30 25 C -3.481084 -7.465531 0.790406 0
M  V30 26 C -2.530561 -6.445240 0.771279 0
M  V30 27 N -2.794118 -1.360476 1.741639 0
M  V30 28 C -4.305442 2.016505 2.302012 0
M  V30 29 C -4.011363 3.373575 2.183093 0
M  V30 30 N -2.809584 3.716451 1.710302 0
M  V30 31 C -1.863832 2.808356 1.341107 0
M  V30 32 N -0.606674 2.955587 0.847736 0
M  V30 33 C 2.367889 1.866418 1.120698 0
M  V30 34 C 3.589070 2.533584 0.508312 0
M  V30 35 H 5.267908 -2.362757 -1.088755 0
M  V30 36 H 4.483583 -0.548572 -0.379976 0
M  V30 37 H 6.250437 -0.179237 0.077723 0
M  V30 38 H 5.099870 0.429000 -2.720576 0
M  V30 39 H 7.143540 -0.124542 -2.705305 0
M  V30 40 H 5.899455 2.148580 -0.301511 0
M  V30 41 H 5.480648 2.854735 -1.860293 0
M  V30 42 H 2.824411 1.154705 -2.358902 0
M  V30 43 H 3.037801 2.963212 -2.484771 0
M  V30 44 H 1.667177 3.470145 -0.747483 0
M  V30 45 H 0.714482 2.393162 -1.842975 0
M  V30 46 H 1.431633 0.466473 -0.207561 0
M  V30 47 H -0.862921 -0.217052 0.954606 0
M  V30 48 H -5.663732 -0.209397 2.879356 0
M  V30 49 H -4.359699 -4.171936 2.438285 0
M  V30 50 H -1.245573 -3.532176 2.255173 0
M  V30 51 H -1.687467 -3.586606 -0.659618 0
M  V30 52 H -0.741839 -4.740839 0.274025 0
M  V30 53 H -4.222113 -4.068090 -0.889636 0
M  V30 54 H -5.961572 -5.882717 -0.874896 0
M  V30 55 H -5.448452 -8.082637 0.226846 0
M  V30 56 H -3.236569 -8.418327 1.278881 0
M  V30 57 H -1.568290 -6.649941 1.251811 0
M  V30 58 H -5.277155 1.746927 2.685052 0
M  V30 59 H -4.779840 4.075177 2.483265 0
M  V30 60 H -0.207997 3.898493 0.688619 0
M  V30 61 H 2.028558 2.503065 1.942600 0
M  V30 62 H 2.691038 0.903321 1.599613 0
M  V30 63 H 3.351232 3.633771 0.474929 0
M  V30 64 H 4.405059 2.419196 1.248702 0
M  V30 END ATOM
M  V30 BEGIN BOND
M  V30 1 1 1 2
M  V30 2 1 2 3
M  V30 3 1 3 4
M  V30 4 1 3 5
M  V30 5 1 5 6
M  V30 6 1 6 7
M  V30 7 1 7 8
M  V30 8 1 8 9
M  V30 9 1 9 10
M  V30 10 2 10 11
M  V30 11 1 11 12
M  V30 12 2 12 13
M  V30 13 1 13 14
M  V30 14 2 14 15
M  V30 15 1 15 16
M  V30 16 2 16 17
M  V30 17 1 17 18
M  V30 18 1 18 19
M  V30 19 1 19 20
M  V30 20 1 20 21
M  V30 21 2 21 22
M  V30 22 1 22 23
M  V30 23 2 23 24
M  V30 24 1 24 25
M  V30 25 2 25 26
M  V30 26 2 18 27
M  V30 27 1 13 28
M  V30 28 2 28 29
M  V30 29 1 29 30
M  V30 30 2 30 31
M  V30 31 1 31 32
M  V30 32 1 9 33
M  V30 33 1 33 34
M  V30 34 1 34 6
M  V30 35 1 32 10
M  V30 36 1 31 12
M  V30 37 1 27 14
M  V30 38 1 26 21
M  V30 39 1 1 35
M  V30 40 1 2 36
M  V30 41 1 2 37
M  V30 42 1 3 38
M  V30 43 1 4 39
M  V30 44 1 5 40
M  V30 45 1 5 41
M  V30 46 1 7 42
M  V30 47 1 7 43
M  V30 48 1 8 44
M  V30 49 1 8 45
M  V30 50 1 9 46
M  V30 51 1 11 47
M  V30 52 1 15 48
M  V30 53 1 17 49
M  V30 54 1 19 50
M  V30 55 1 20 51
M  V30 56 1 20 52
M  V30 57 1 22 53
M  V30 58 1 23 54
M  V30 59 1 24 55
M  V30 60 1 25 56
M  V30 61 1 26 57
M  V30 62 1 28 58
M  V30 63 1 29 59
M  V30 64 1 32 60
M  V30 65 1 33 61
M  V30 66 1 33 62
M  V30 67 1 34 63
M  V30 68 1 34 64
M  V30 END BOND
M  V30 END CTAB
M  END
>  <Dataset>  (873) 
ChEMBL_Kinases

>  <Ligand_Instance>  (873) 
nan

>  <PDB_ID>  (873) 
nan

>  <Standardized_SMILES>  (873) 
OCC(O)CN1CCC(c2cc3c(-c4cncc(NCc5ccccc5)n4)ccnc3[nH]2)CC1

>  <Name>  (873) 
nan

>  <Pocket>  (873) 
nan

>  <ATP_Site>  (873) 
nan

>  <Peripheral>  (873) 
nan

>  <Num_H_Atoms_ProtBoundConf>  (873) 
nan

>  <Num_Resolved_Atoms>  (873) 
nan

>  <Num_Not_Resolved_Atoms>  (873) 
nan

$$$$
CHEMBL3673515
     RDKit          3D

  0  0  0  0  0  0  0  0  0  0999 V3000
M  V30 BEGIN CTAB
M  V30 COUNTS 67 71 0 0 0
M  V30 BEGIN ATOM
M  V30 1 C 4.141529 -2.516187 5.040195 0
M  V30 2 C 3.149675 -2.218638 3.920188 0
M  V30 3 N 3.844448 -1.615998 2.784417 0
M  V30 4 C 4.392322 -2.519846 1.815552 0
M  V30 5 O 5.027222 -2.166834 0.772527 0
M  V30 6 O 4.303949 -3.885024 1.885907 0
M  V30 7 S 4.040098 0.089020 2.555677 0
M  V30 8 O 4.103003 0.817132 3.871296 0
M  V30 9 O 5.326761 0.306528 1.804524 0
M  V30 10 N 2.705042 0.620892 1.641255 0
M  V30 11 C 2.653197 0.010486 0.379287 0
M  V30 12 C 1.552980 0.437524 -0.530212 0
M  V30 13 C 1.216437 1.900171 -0.446644 0
M  V30 14 C -0.216426 2.013158 -0.069008 0
M  V30 15 C -1.298810 1.293809 -0.524027 0
M  V30 16 C -2.455413 1.740261 0.078197 0
M  V30 17 C -3.778293 1.369938 -0.039801 0
M  V30 18 C -4.228433 0.308414 -0.924760 0
M  V30 19 C -5.589030 0.178389 -1.163212 0
M  V30 20 N -6.120442 -0.732430 -1.971008 0
M  V30 21 C -5.303450 -1.588418 -2.603457 0
M  V30 22 C -3.924073 -1.516444 -2.410418 0
M  V30 23 N -3.055504 -2.413165 -3.089661 0
M  V30 24 C -1.638163 -2.607070 -2.861747 0
M  V30 25 C -1.351624 -3.248648 -1.578879 0
M  V30 26 C -1.275465 -4.647127 -1.631309 0
M  V30 27 C -1.014244 -5.400466 -0.509022 0
M  V30 28 C -0.813811 -4.831848 0.723114 0
M  V30 29 C -0.880614 -3.437524 0.824532 0
M  V30 30 C -1.143733 -2.732355 -0.323674 0
M  V30 31 N -3.428037 -0.559821 -1.568643 0
M  V30 32 C -4.636701 2.095621 0.738705 0
M  V30 33 C -4.244618 3.113191 1.579033 0
M  V30 34 N -2.923728 3.431213 1.653235 0
M  V30 35 C -2.010492 2.766910 0.919220 0
M  V30 36 N -0.673162 2.910425 0.814781 0
M  V30 37 C 2.114245 2.659151 0.469785 0
M  V30 38 C 2.328334 1.969891 1.787137 0
M  V30 39 H 4.149972 -1.728667 5.803636 0
M  V30 40 H 5.147258 -2.660784 4.616395 0
M  V30 41 H 3.895810 -3.473705 5.564847 0
M  V30 42 H 2.670719 -3.169123 3.651718 0
M  V30 43 H 2.359761 -1.541224 4.282517 0
M  V30 44 H 4.173864 -4.510287 1.100782 0
M  V30 45 H 3.635275 0.074106 -0.131672 0
M  V30 46 H 2.513329 -1.098162 0.554377 0
M  V30 47 H 0.662881 -0.196711 -0.354199 0
M  V30 48 H 1.894609 0.227593 -1.563955 0
M  V30 49 H 1.288341 2.354589 -1.461842 0
M  V30 50 H -1.244620 0.498880 -1.252911 0
M  V30 51 H -6.384968 0.794700 -0.730400 0
M  V30 52 H -5.676197 -2.363568 -3.282795 0
M  V30 53 H -3.496950 -3.008630 -3.850402 0
M  V30 54 H -1.193834 -3.164760 -3.681827 0
M  V30 55 H -1.118944 -1.605277 -2.857134 0
M  V30 56 H -1.405148 -5.254995 -2.503061 0
M  V30 57 H -0.944669 -6.482493 -0.495051 0
M  V30 58 H -0.605860 -5.362070 1.640483 0
M  V30 59 H -0.734942 -2.939162 1.750753 0
M  V30 60 H -1.207218 -1.657065 -0.286560 0
M  V30 61 H -5.693865 1.929172 0.759856 0
M  V30 62 H -4.925394 3.685397 2.193392 0
M  V30 63 H -0.151397 3.630506 1.369143 0
M  V30 64 H 3.136230 2.781139 0.022551 0
M  V30 65 H 1.762422 3.685478 0.681899 0
M  V30 66 H 3.164948 2.520762 2.311174 0
M  V30 67 H 1.444373 2.139867 2.439980 0
M  V30 END ATOM
M  V30 BEGIN BOND
M  V30 1 1 1 2
M  V30 2 1 2 3
M  V30 3 1 3 4
M  V30 4 2 4 5
M  V30 5 1 4 6
M  V30 6 1 3 7
M  V30 7 2 7 8
M  V30 8 2 7 9
M  V30 9 1 7 10
M  V30 10 1 10 11
M  V30 11 1 11 12
M  V30 12 1 12 13
M  V30 13 1 13 14
M  V30 14 2 14 15
M  V30 15 1 15 16
M  V30 16 2 16 17
M  V30 17 1 17 18
M  V30 18 2 18 19
M  V30 19 1 19 20
M  V30 20 2 20 21
M  V30 21 1 21 22
M  V30 22 1 22 23
M  V30 23 1 23 24
M  V30 24 1 24 25
M  V30 25 2 25 26
M  V30 26 1 26 27
M  V30 27 2 27 28
M  V30 28 1 28 29
M  V30 29 2 29 30
M  V30 30 2 22 31
M  V30 31 1 17 32
M  V30 32 2 32 33
M  V30 33 1 33 34
M  V30 34 2 34 35
M  V30 35 1 35 36
M  V30 36 1 13 37
M  V30 37 1 37 38
M  V30 38 1 38 10
M  V30 39 1 36 14
M  V30 40 1 35 16
M  V30 41 1 31 18
M  V30 42 1 30 25
M  V30 43 1 1 39
M  V30 44 1 1 40
M  V30 45 1 1 41
M  V30 46 1 2 42
M  V30 47 1 2 43
M  V30 48 1 6 44
M  V30 49 1 11 45
M  V30 50 1 11 46
M  V30 51 1 12 47
M  V30 52 1 12 48
M  V30 53 1 13 49
M  V30 54 1 15 50
M  V30 55 1 19 51
M  V30 56 1 21 52
M  V30 57 1 23 53
M  V30 58 1 24 54
M  V30 59 1 24 55
M  V30 60 1 26 56
M  V30 61 1 27 57
M  V30 62 1 28 58
M  V30 63 1 29 59
M  V30 64 1 30 60
M  V30 65 1 32 61
M  V30 66 1 33 62
M  V30 67 1 36 63
M  V30 68 1 37 64
M  V30 69 1 37 65
M  V30 70 1 38 66
M  V30 71 1 38 67
M  V30 END BOND
M  V30 END CTAB
M  END
>  <Dataset>  (874) 
ChEMBL_Kinases

>  <Ligand_Instance>  (874) 
nan

>  <PDB_ID>  (874) 
nan

>  <Standardized_SMILES>  (874) 
CCN(C(=O)O)S(=O)(=O)N1CCC(c2cc3c(-c4cncc(NCc5ccccc5)n4)ccnc3[nH]2)CC1

>  <Name>  (874) 
nan

>  <Pocket>  (874) 
nan

>  <ATP_Site>  (874) 
nan

>  <Peripheral>  (874) 
nan

>  <Num_H_Atoms_ProtBoundConf>  (874) 
nan

>  <Num_Resolved_Atoms>  (874) 
nan

>  <Num_Not_Resolved_Atoms>  (874) 
nan

$$$$
CHEMBL3673525
     RDKit          3D

  0  0  0  0  0  0  0  0  0  0999 V3000
M  V30 BEGIN CTAB
M  V30 COUNTS 60 64 0 0 0
M  V30 BEGIN ATOM
M  V30 1 C 4.610445 -2.802563 4.969596 0
M  V30 2 N 3.952892 -2.064650 3.891201 0
M  V30 3 C 3.111115 -2.742050 2.983438 0
M  V30 4 O 2.911635 -3.992520 3.089400 0
M  V30 5 N 2.441463 -2.093783 1.912978 0
M  V30 6 C 2.507670 -0.659771 1.583692 0
M  V30 7 C 3.315029 -0.604737 0.314902 0
M  V30 8 C 2.713512 -1.385657 -0.812810 0
M  V30 9 C 2.036592 -0.400641 -1.733647 0
M  V30 10 C 0.814623 0.193141 -1.460657 0
M  V30 11 C 0.462638 1.071473 -2.467783 0
M  V30 12 C -0.592575 1.937667 -2.741428 0
M  V30 13 C -1.679032 2.031632 -1.779065 0
M  V30 14 C -2.623989 3.057266 -1.890619 0
M  V30 15 N -3.647575 3.261126 -1.053551 0
M  V30 16 C -3.821673 2.440543 -0.009021 0
M  V30 17 C -2.903976 1.400537 0.143249 0
M  V30 18 N -2.827750 0.351807 1.139130 0
M  V30 19 C -3.892204 -0.535704 0.713706 0
M  V30 20 C -3.914504 -1.747012 1.581762 0
M  V30 21 C -4.582517 -1.911485 2.797931 0
M  V30 22 C -4.527230 -3.099729 3.472904 0
M  V30 23 C -3.816350 -4.201905 3.002173 0
M  V30 24 C -3.128608 -4.110974 1.801461 0
M  V30 25 C -3.216009 -2.882356 1.154485 0
M  V30 26 N -1.868172 1.220446 -0.729275 0
M  V30 27 C -0.557180 2.685888 -3.894708 0
M  V30 28 C 0.503215 2.584289 -4.769721 0
M  V30 29 N 1.510546 1.738549 -4.480887 0
M  V30 30 C 1.526543 0.986162 -3.369710 0
M  V30 31 N 2.436683 0.111756 -2.910963 0
M  V30 32 C 1.821086 -2.489960 -0.450883 0
M  V30 33 C 1.586101 -2.799297 0.976749 0
M  V30 34 H 5.326132 -2.124591 5.501653 0
M  V30 35 H 3.894469 -3.289075 5.656536 0
M  V30 36 H 5.223080 -3.584729 4.504707 0
M  V30 37 H 4.122902 -1.048576 3.815775 0
M  V30 38 H 1.459758 -0.315670 1.448522 0
M  V30 39 H 3.054863 -0.129540 2.371426 0
M  V30 40 H 3.406971 0.454605 0.016495 0
M  V30 41 H 4.344507 -0.939832 0.552743 0
M  V30 42 H 3.572923 -1.772922 -1.400612 0
M  V30 43 H 0.186130 0.033838 -0.606708 0
M  V30 44 H -2.607833 3.796060 -2.680406 0
M  V30 45 H -4.523049 2.341829 0.820467 0
M  V30 46 H -2.073202 0.537595 1.827814 0
M  V30 47 H -4.881416 -0.026585 0.730422 0
M  V30 48 H -3.714497 -0.880041 -0.327093 0
M  V30 49 H -5.117191 -1.016308 3.103915 0
M  V30 50 H -5.077725 -3.151106 4.424738 0
M  V30 51 H -3.782249 -5.132789 3.550196 0
M  V30 52 H -2.556417 -4.917476 1.369744 0
M  V30 53 H -2.670042 -2.827423 0.204613 0
M  V30 54 H -1.338413 3.371812 -4.168051 0
M  V30 55 H 0.532757 3.174276 -5.675707 0
M  V30 56 H 3.359735 -0.188854 -3.347740 0
M  V30 57 H 2.124542 -3.458140 -0.951977 0
M  V30 58 H 0.808025 -2.297741 -0.921552 0
M  V30 59 H 1.710368 -3.899558 1.200633 0
M  V30 60 H 0.509104 -2.601507 1.270289 0
M  V30 END ATOM
M  V30 BEGIN BOND
M  V30 1 1 1 2
M  V30 2 1 2 3
M  V30 3 2 3 4
M  V30 4 1 3 5
M  V30 5 1 5 6
M  V30 6 1 6 7
M  V30 7 1 7 8
M  V30 8 1 8 9
M  V30 9 2 9 10
M  V30 10 1 10 11
M  V30 11 2 11 12
M  V30 12 1 12 13
M  V30 13 2 13 14
M  V30 14 1 14 15
M  V30 15 2 15 16
M  V30 16 1 16 17
M  V30 17 1 17 18
M  V30 18 1 18 19
M  V30 19 1 19 20
M  V30 20 2 20 21
M  V30 21 1 21 22
M  V30 22 2 22 23
M  V30 23 1 23 24
M  V30 24 2 24 25
M  V30 25 2 17 26
M  V30 26 1 12 27
M  V30 27 2 27 28
M  V30 28 1 28 29
M  V30 29 2 29 30
M  V30 30 1 30 31
M  V30 31 1 8 32
M  V30 32 1 32 33
M  V30 33 1 33 5
M  V30 34 1 31 9
M  V30 35 1 30 11
M  V30 36 1 26 13
M  V30 37 1 25 20
M  V30 38 1 1 34
M  V30 39 1 1 35
M  V30 40 1 1 36
M  V30 41 1 2 37
M  V30 42 1 6 38
M  V30 43 1 6 39
M  V30 44 1 7 40
M  V30 45 1 7 41
M  V30 46 1 8 42
M  V30 47 1 10 43
M  V30 48 1 14 44
M  V30 49 1 16 45
M  V30 50 1 18 46
M  V30 51 1 19 47
M  V30 52 1 19 48
M  V30 53 1 21 49
M  V30 54 1 22 50
M  V30 55 1 23 51
M  V30 56 1 24 52
M  V30 57 1 25 53
M  V30 58 1 27 54
M  V30 59 1 28 55
M  V30 60 1 31 56
M  V30 61 1 32 57
M  V30 62 1 32 58
M  V30 63 1 33 59
M  V30 64 1 33 60
M  V30 END BOND
M  V30 END CTAB
M  END
>  <Dataset>  (875) 
ChEMBL_Kinases

>  <Ligand_Instance>  (875) 
nan

>  <PDB_ID>  (875) 
nan

>  <Standardized_SMILES>  (875) 
CNC(=O)N1CCC(c2cc3c(-c4cncc(NCc5ccccc5)n4)ccnc3[nH]2)CC1

>  <Name>  (875) 
nan

>  <Pocket>  (875) 
nan

>  <ATP_Site>  (875) 
nan

>  <Peripheral>  (875) 
nan

>  <Num_H_Atoms_ProtBoundConf>  (875) 
nan

>  <Num_Resolved_Atoms>  (875) 
nan

>  <Num_Not_Resolved_Atoms>  (875) 
nan

$$$$
CHEMBL3673517
     RDKit          3D

  0  0  0  0  0  0  0  0  0  0999 V3000
M  V30 BEGIN CTAB
M  V30 COUNTS 52 56 0 0 0
M  V30 BEGIN ATOM
M  V30 1 F 3.519099 -3.087319 3.265167 0
M  V30 2 C 4.384444 -2.840558 2.237318 0
M  V30 3 C 5.102590 -3.826768 1.602598 0
M  V30 4 C 5.930637 -3.421959 0.588156 0
M  V30 5 C 6.021937 -2.091765 0.240497 0
M  V30 6 C 5.287155 -1.089336 0.890907 0
M  V30 7 C 5.571377 0.253650 0.335703 0
M  V30 8 O 4.788273 0.610829 -0.767411 0
M  V30 9 C 3.424212 0.701209 -0.670586 0
M  V30 10 C 2.952144 1.066572 -1.940084 0
M  V30 11 N 1.605619 1.228292 -2.124399 0
M  V30 12 C 0.809165 1.025248 -1.067117 0
M  V30 13 C 1.198842 0.668876 0.190508 0
M  V30 14 C 0.470556 0.465162 1.418023 0
M  V30 15 C 1.139559 0.589750 2.635198 0
M  V30 16 C 0.521158 0.384683 3.843358 0
M  V30 17 N -0.761610 0.053161 3.901674 0
M  V30 18 C -1.480310 -0.089162 2.775103 0
M  V30 19 N -2.764995 -0.433320 2.583606 0
M  V30 20 C -2.978520 -0.454134 1.256651 0
M  V30 21 C -4.295178 -0.796014 0.632076 0
M  V30 22 C -4.847659 0.377869 -0.162221 0
M  V30 23 C -6.259628 0.069820 -0.545083 0
M  V30 24 N -6.548957 -1.341634 -0.387456 0
M  V30 25 C -5.508631 -2.163682 -0.978825 0
M  V30 26 C -4.189562 -1.977455 -0.284000 0
M  V30 27 C -1.804296 -0.116663 0.634150 0
M  V30 28 C -0.843933 0.120105 1.575335 0
M  V30 29 N 2.531053 0.529627 0.294595 0
M  V30 30 C 4.460107 -1.506792 1.906952 0
M  V30 31 H 4.958052 -4.832930 1.951118 0
M  V30 32 H 6.494947 -4.204719 0.090964 0
M  V30 33 H 6.719647 -1.916347 -0.583864 0
M  V30 34 H 5.421164 1.054013 1.103368 0
M  V30 35 H 6.643821 0.358860 0.038276 0
M  V30 36 H 3.505595 1.255506 -2.861713 0
M  V30 37 H -0.231209 1.186647 -1.223570 0
M  V30 38 H 2.179798 0.859875 2.688355 0
M  V30 39 H 1.059769 0.487712 4.772099 0
M  V30 40 H -3.451711 -0.641530 3.343960 0
M  V30 41 H -5.045421 -1.028411 1.395701 0
M  V30 42 H -4.752247 1.303398 0.460538 0
M  V30 43 H -4.234776 0.513781 -1.068846 0
M  V30 44 H -6.917030 0.596944 0.202034 0
M  V30 45 H -6.537670 0.429803 -1.576374 0
M  V30 46 H -7.423636 -1.529078 -0.927403 0
M  V30 47 H -5.847473 -3.226006 -0.862865 0
M  V30 48 H -5.440148 -1.989973 -2.077518 0
M  V30 49 H -3.936167 -2.862317 0.358143 0
M  V30 50 H -3.398791 -1.832386 -1.054562 0
M  V30 51 H -1.774641 -0.095214 -0.423464 0
M  V30 52 H 3.937820 -0.692461 2.358917 0
M  V30 END ATOM
M  V30 BEGIN BOND
M  V30 1 1 1 2
M  V30 2 2 2 3
M  V30 3 1 3 4
M  V30 4 2 4 5
M  V30 5 1 5 6
M  V30 6 1 6 7
M  V30 7 1 7 8
M  V30 8 1 8 9
M  V30 9 2 9 10
M  V30 10 1 10 11
M  V30 11 2 11 12
M  V30 12 1 12 13
M  V30 13 1 13 14
M  V30 14 2 14 15
M  V30 15 1 15 16
M  V30 16 2 16 17
M  V30 17 1 17 18
M  V30 18 1 18 19
M  V30 19 1 19 20
M  V30 20 1 20 21
M  V30 21 1 21 22
M  V30 22 1 22 23
M  V30 23 1 23 24
M  V30 24 1 24 25
M  V30 25 1 25 26
M  V30 26 2 20 27
M  V30 27 1 27 28
M  V30 28 2 13 29
M  V30 29 2 6 30
M  V30 30 1 30 2
M  V30 31 1 29 9
M  V30 32 1 28 14
M  V30 33 2 28 18
M  V30 34 1 26 21
M  V30 35 1 3 31
M  V30 36 1 4 32
M  V30 37 1 5 33
M  V30 38 1 7 34
M  V30 39 1 7 35
M  V30 40 1 10 36
M  V30 41 1 12 37
M  V30 42 1 15 38
M  V30 43 1 16 39
M  V30 44 1 19 40
M  V30 45 1 21 41
M  V30 46 1 22 42
M  V30 47 1 22 43
M  V30 48 1 23 44
M  V30 49 1 23 45
M  V30 50 1 24 46
M  V30 51 1 25 47
M  V30 52 1 25 48
M  V30 53 1 26 49
M  V30 54 1 26 50
M  V30 55 1 27 51
M  V30 56 1 30 52
M  V30 END BOND
M  V30 END CTAB
M  END
>  <Dataset>  (876) 
ChEMBL_Kinases

>  <Ligand_Instance>  (876) 
nan

>  <PDB_ID>  (876) 
nan

>  <Standardized_SMILES>  (876) 
Fc1cccc(COc2cncc(-c3ccnc4[nH]c(C5CCNCC5)cc34)n2)c1

>  <Name>  (876) 
nan

>  <Pocket>  (876) 
nan

>  <ATP_Site>  (876) 
nan

>  <Peripheral>  (876) 
nan

>  <Num_H_Atoms_ProtBoundConf>  (876) 
nan

>  <Num_Resolved_Atoms>  (876) 
nan

>  <Num_Not_Resolved_Atoms>  (876) 
nan

$$$$
CHEMBL3673518
     RDKit          3D

  0  0  0  0  0  0  0  0  0  0999 V3000
M  V30 BEGIN CTAB
M  V30 COUNTS 56 60 0 0 0
M  V30 BEGIN ATOM
M  V30 1 C -2.635516 -3.232720 4.268905 0
M  V30 2 N -1.857489 -4.307049 3.692538 0
M  V30 3 C -0.470529 -4.257367 4.083211 0
M  V30 4 C 0.358312 -3.312539 3.308611 0
M  V30 5 C -0.204870 -2.700198 2.098341 0
M  V30 6 C 0.804666 -2.722376 0.972940 0
M  V30 7 C 1.199975 -1.701051 0.140322 0
M  V30 8 C 2.157490 -2.124720 -0.753684 0
M  V30 9 C 2.845040 -1.480755 -1.765587 0
M  V30 10 C 2.612470 -0.077350 -2.087310 0
M  V30 11 C 3.261750 0.514422 -3.138252 0
M  V30 12 N 3.058966 1.811146 -3.486150 0
M  V30 13 C 2.195254 2.584478 -2.799827 0
M  V30 14 C 1.528577 1.992199 -1.726542 0
M  V30 15 N 0.565440 2.716521 -0.929052 0
M  V30 16 C -0.756219 2.358371 -1.405733 0
M  V30 17 C -1.844207 3.080726 -0.660947 0
M  V30 18 C -2.363735 2.500139 0.481212 0
M  V30 19 C -3.375939 3.076372 1.251665 0
M  V30 20 C -3.869682 4.291277 0.833056 0
M  V30 21 C -3.369055 4.888841 -0.299266 0
M  V30 22 F -3.859188 6.090150 -0.713074 0
M  V30 23 C -2.366431 4.301954 -1.049516 0
M  V30 24 N 1.748193 0.689975 -1.396144 0
M  V30 25 C 3.736281 -2.294430 -2.435391 0
M  V30 26 C 3.954228 -3.626845 -2.157830 0
M  V30 27 N 3.231746 -4.144724 -1.157295 0
M  V30 28 C 2.336637 -3.456383 -0.434908 0
M  V30 29 N 1.536083 -3.813083 0.587137 0
M  V30 30 C -1.545480 -3.165913 1.632728 0
M  V30 31 C -2.018561 -4.436881 2.261921 0
M  V30 32 H -3.674874 -3.315385 3.858916 0
M  V30 33 H -2.699400 -3.354215 5.355537 0
M  V30 34 H -2.268494 -2.239893 3.999083 0
M  V30 35 H -0.435587 -4.043848 5.170181 0
M  V30 36 H -0.073568 -5.300879 3.958662 0
M  V30 37 H 1.334774 -3.834245 3.051697 0
M  V30 38 H 0.713922 -2.507736 4.023875 0
M  V30 39 H -0.336204 -1.587659 2.281641 0
M  V30 40 H 0.778913 -0.715577 0.225294 0
M  V30 41 H 3.978517 0.018791 -3.774946 0
M  V30 42 H 1.986968 3.617861 -3.022343 0
M  V30 43 H 0.653239 3.396851 -0.135724 0
M  V30 44 H -0.905755 1.241357 -1.280374 0
M  V30 45 H -0.795389 2.547760 -2.489066 0
M  V30 46 H -2.007033 1.542081 0.856849 0
M  V30 47 H -3.745031 2.580618 2.132679 0
M  V30 48 H -4.669377 4.766709 1.423612 0
M  V30 49 H -1.962579 4.744229 -1.931668 0
M  V30 50 H 4.325829 -1.889472 -3.244941 0
M  V30 51 H 4.665895 -4.208937 -2.719729 0
M  V30 52 H 1.477000 -4.752719 1.015032 0
M  V30 53 H -2.325465 -2.369911 1.653868 0
M  V30 54 H -1.447477 -3.401849 0.530340 0
M  V30 55 H -3.109112 -4.506626 2.072835 0
M  V30 56 H -1.430413 -5.275358 1.895457 0
M  V30 END ATOM
M  V30 BEGIN BOND
M  V30 1 1 1 2
M  V30 2 1 2 3
M  V30 3 1 3 4
M  V30 4 1 4 5
M  V30 5 1 5 6
M  V30 6 2 6 7
M  V30 7 1 7 8
M  V30 8 2 8 9
M  V30 9 1 9 10
M  V30 10 2 10 11
M  V30 11 1 11 12
M  V30 12 2 12 13
M  V30 13 1 13 14
M  V30 14 1 14 15
M  V30 15 1 15 16
M  V30 16 1 16 17
M  V30 17 2 17 18
M  V30 18 1 18 19
M  V30 19 2 19 20
M  V30 20 1 20 21
M  V30 21 1 21 22
M  V30 22 2 21 23
M  V30 23 2 14 24
M  V30 24 1 9 25
M  V30 25 2 25 26
M  V30 26 1 26 27
M  V30 27 2 27 28
M  V30 28 1 28 29
M  V30 29 1 5 30
M  V30 30 1 30 31
M  V30 31 1 31 2
M  V30 32 1 29 6
M  V30 33 1 28 8
M  V30 34 1 24 10
M  V30 35 1 23 17
M  V30 36 1 1 32
M  V30 37 1 1 33
M  V30 38 1 1 34
M  V30 39 1 3 35
M  V30 40 1 3 36
M  V30 41 1 4 37
M  V30 42 1 4 38
M  V30 43 1 5 39
M  V30 44 1 7 40
M  V30 45 1 11 41
M  V30 46 1 13 42
M  V30 47 1 15 43
M  V30 48 1 16 44
M  V30 49 1 16 45
M  V30 50 1 18 46
M  V30 51 1 19 47
M  V30 52 1 20 48
M  V30 53 1 23 49
M  V30 54 1 25 50
M  V30 55 1 26 51
M  V30 56 1 29 52
M  V30 57 1 30 53
M  V30 58 1 30 54
M  V30 59 1 31 55
M  V30 60 1 31 56
M  V30 END BOND
M  V30 END CTAB
M  END
>  <Dataset>  (877) 
ChEMBL_Kinases

>  <Ligand_Instance>  (877) 
nan

>  <PDB_ID>  (877) 
nan

>  <Standardized_SMILES>  (877) 
CN1CCC(c2cc3c(-c4cncc(NCc5cccc(F)c5)n4)ccnc3[nH]2)CC1

>  <Name>  (877) 
nan

>  <Pocket>  (877) 
nan

>  <ATP_Site>  (877) 
nan

>  <Peripheral>  (877) 
nan

>  <Num_H_Atoms_ProtBoundConf>  (877) 
nan

>  <Num_Resolved_Atoms>  (877) 
nan

>  <Num_Not_Resolved_Atoms>  (877) 
nan

$$$$
CHEMBL3673519
     RDKit          3D

  0  0  0  0  0  0  0  0  0  0999 V3000
M  V30 BEGIN CTAB
M  V30 COUNTS 58 62 0 0 0
M  V30 BEGIN ATOM
M  V30 1 C 3.231689 -1.224056 4.844842 0
M  V30 2 C 2.533039 -2.124510 3.884552 0
M  V30 3 O 2.098680 -3.239001 4.305654 0
M  V30 4 N 2.382001 -1.697570 2.537426 0
M  V30 5 C 2.880772 -0.422831 2.082152 0
M  V30 6 C 3.671086 -0.521964 0.813725 0
M  V30 7 C 3.195755 -1.585596 -0.122961 0
M  V30 8 C 2.272513 -1.006213 -1.131997 0
M  V30 9 C 1.079246 -0.325359 -0.953581 0
M  V30 10 C 0.517629 0.062332 -2.158712 0
M  V30 11 C -0.620703 0.749085 -2.522369 0
M  V30 12 C -1.554862 1.252663 -1.526809 0
M  V30 13 C -2.601677 2.047225 -1.875674 0
M  V30 14 N -3.513406 2.580921 -1.045373 0
M  V30 15 C -3.404548 2.317593 0.286127 0
M  V30 16 C -2.351093 1.509561 0.693062 0
M  V30 17 N -2.217848 1.226090 2.079042 0
M  V30 18 C -3.214767 0.266713 2.475930 0
M  V30 19 C -3.210345 -0.994172 1.729260 0
M  V30 20 C -4.036205 -1.071377 0.609093 0
M  V30 21 C -4.138319 -2.197213 -0.191354 0
M  V30 22 C -3.392894 -3.309167 0.117528 0
M  V30 23 C -2.560333 -3.250730 1.234402 0
M  V30 24 F -1.840862 -4.362421 1.509426 0
M  V30 25 C -2.472332 -2.121367 2.019587 0
M  V30 26 N -1.476795 1.012476 -0.206679 0
M  V30 27 C -0.819993 0.944110 -3.873019 0
M  V30 28 C 0.057782 0.485524 -4.829705 0
M  V30 29 N 1.170547 -0.189322 -4.420122 0
M  V30 30 C 1.406520 -0.402465 -3.111649 0
M  V30 31 N 2.421530 -1.021745 -2.493548 0
M  V30 32 C 2.700410 -2.841858 0.483150 0
M  V30 33 C 1.707019 -2.557741 1.576299 0
M  V30 34 H 2.749803 -0.213096 4.784301 0
M  V30 35 H 3.155148 -1.585169 5.883778 0
M  V30 36 H 4.322259 -1.141720 4.599929 0
M  V30 37 H 2.030834 0.283161 1.983080 0
M  V30 38 H 3.551181 -0.028396 2.872107 0
M  V30 39 H 4.764709 -0.653789 1.009991 0
M  V30 40 H 3.578877 0.457947 0.301882 0
M  V30 41 H 4.115406 -1.893250 -0.732253 0
M  V30 42 H 0.605876 -0.092924 -0.028448 0
M  V30 43 H -2.829713 2.351073 -2.884423 0
M  V30 44 H -4.072042 2.687874 1.046988 0
M  V30 45 H -1.521115 1.618531 2.770878 0
M  V30 46 H -4.249328 0.730197 2.470736 0
M  V30 47 H -3.047244 0.009623 3.553712 0
M  V30 48 H -4.677155 -0.270166 0.253618 0
M  V30 49 H -4.771282 -2.274591 -1.058072 0
M  V30 50 H -3.436921 -4.219009 -0.477619 0
M  V30 51 H -1.829359 -2.071690 2.884673 0
M  V30 52 H -1.675064 1.465444 -4.270323 0
M  V30 53 H -0.107789 0.643256 -5.889183 0
M  V30 54 H 3.215606 -1.458700 -2.972191 0
M  V30 55 H 2.252602 -3.452836 -0.338059 0
M  V30 56 H 3.551813 -3.369726 0.969635 0
M  V30 57 H 0.797262 -2.044866 1.254589 0
M  V30 58 H 1.371010 -3.502641 2.080237 0
M  V30 END ATOM
M  V30 BEGIN BOND
M  V30 1 1 1 2
M  V30 2 2 2 3
M  V30 3 1 2 4
M  V30 4 1 4 5
M  V30 5 1 5 6
M  V30 6 1 6 7
M  V30 7 1 7 8
M  V30 8 2 8 9
M  V30 9 1 9 10
M  V30 10 2 10 11
M  V30 11 1 11 12
M  V30 12 2 12 13
M  V30 13 1 13 14
M  V30 14 2 14 15
M  V30 15 1 15 16
M  V30 16 1 16 17
M  V30 17 1 17 18
M  V30 18 1 18 19
M  V30 19 2 19 20
M  V30 20 1 20 21
M  V30 21 2 21 22
M  V30 22 1 22 23
M  V30 23 1 23 24
M  V30 24 2 23 25
M  V30 25 2 16 26
M  V30 26 1 11 27
M  V30 27 2 27 28
M  V30 28 1 28 29
M  V30 29 2 29 30
M  V30 30 1 30 31
M  V30 31 1 7 32
M  V30 32 1 32 33
M  V30 33 1 33 4
M  V30 34 1 31 8
M  V30 35 1 30 10
M  V30 36 1 26 12
M  V30 37 1 25 19
M  V30 38 1 1 34
M  V30 39 1 1 35
M  V30 40 1 1 36
M  V30 41 1 5 37
M  V30 42 1 5 38
M  V30 43 1 6 39
M  V30 44 1 6 40
M  V30 45 1 7 41
M  V30 46 1 9 42
M  V30 47 1 13 43
M  V30 48 1 15 44
M  V30 49 1 17 45
M  V30 50 1 18 46
M  V30 51 1 18 47
M  V30 52 1 20 48
M  V30 53 1 21 49
M  V30 54 1 22 50
M  V30 55 1 25 51
M  V30 56 1 27 52
M  V30 57 1 28 53
M  V30 58 1 31 54
M  V30 59 1 32 55
M  V30 60 1 32 56
M  V30 61 1 33 57
M  V30 62 1 33 58
M  V30 END BOND
M  V30 END CTAB
M  END
>  <Dataset>  (878) 
ChEMBL_Kinases

>  <Ligand_Instance>  (878) 
nan

>  <PDB_ID>  (878) 
nan

>  <Standardized_SMILES>  (878) 
CC(=O)N1CCC(c2cc3c(-c4cncc(NCc5cccc(F)c5)n4)ccnc3[nH]2)CC1

>  <Name>  (878) 
nan

>  <Pocket>  (878) 
nan

>  <ATP_Site>  (878) 
nan

>  <Peripheral>  (878) 
nan

>  <Num_H_Atoms_ProtBoundConf>  (878) 
nan

>  <Num_Resolved_Atoms>  (878) 
nan

>  <Num_Not_Resolved_Atoms>  (878) 
nan

$$$$
CHEMBL3673520
     RDKit          3D

  0  0  0  0  0  0  0  0  0  0999 V3000
M  V30 BEGIN CTAB
M  V30 COUNTS 55 59 0 0 0
M  V30 BEGIN ATOM
M  V30 1 C -2.361706 0.283662 4.044238 0
M  V30 2 N -1.397951 -0.288924 3.164932 0
M  V30 3 C -0.037263 -0.019429 3.437440 0
M  V30 4 C 0.833599 -1.179284 3.796426 0
M  V30 5 C 0.477197 -2.492071 3.226227 0
M  V30 6 C 1.065480 -2.797123 1.902332 0
M  V30 7 C 1.204934 -1.946695 0.796909 0
M  V30 8 C 1.803331 -2.652783 -0.223151 0
M  V30 9 C 2.171247 -2.292644 -1.498343 0
M  V30 10 C 2.013604 -0.974049 -2.071941 0
M  V30 11 C 2.669284 -0.696000 -3.265863 0
M  V30 12 N 2.634079 0.513143 -3.883561 0
M  V30 13 C 1.907742 1.517393 -3.292504 0
M  V30 14 C 1.237503 1.251218 -2.083960 0
M  V30 15 O 0.629345 2.413779 -1.766315 0
M  V30 16 C -0.181415 2.822064 -0.739050 0
M  V30 17 C -1.476710 2.053679 -0.708988 0
M  V30 18 C -1.783331 0.895957 -0.036198 0
M  V30 19 C -3.038257 0.353197 -0.152025 0
M  V30 20 C -4.043111 0.904047 -0.918719 0
M  V30 21 C -3.761549 2.066637 -1.604542 0
M  V30 22 F -4.715426 2.646186 -2.371090 0
M  V30 23 C -2.498218 2.595972 -1.476288 0
M  V30 24 N 1.321154 0.047578 -1.545676 0
M  V30 25 C 2.764835 -3.292512 -2.229317 0
M  V30 26 C 2.986902 -4.557864 -1.753899 0
M  V30 27 N 2.605120 -4.869969 -0.480359 0
M  V30 28 C 2.010417 -3.906619 0.284783 0
M  V30 29 N 1.571575 -3.992885 1.549223 0
M  V30 30 C -1.026623 -2.697117 3.273375 0
M  V30 31 C -1.698557 -1.549683 2.602647 0
M  V30 32 H -3.093992 0.866801 3.436730 0
M  V30 33 H -2.825977 -0.403411 4.768592 0
M  V30 34 H -1.835411 1.070229 4.658775 0
M  V30 35 H 0.022738 0.722127 4.262561 0
M  V30 36 H 0.360686 0.556105 2.550791 0
M  V30 37 H 1.882168 -0.868247 3.517339 0
M  V30 38 H 0.871375 -1.265015 4.902743 0
M  V30 39 H 0.862199 -3.294871 3.930491 0
M  V30 40 H 0.911061 -0.926869 0.727757 0
M  V30 41 H 3.289161 -1.385656 -3.856402 0
M  V30 42 H 1.963480 2.438275 -3.892751 0
M  V30 43 H -0.447729 3.889203 -0.872236 0
M  V30 44 H 0.285553 2.745447 0.275651 0
M  V30 45 H -0.963484 0.527408 0.535107 0
M  V30 46 H -3.259202 -0.551994 0.381198 0
M  V30 47 H -5.012580 0.407078 -0.955027 0
M  V30 48 H -2.345279 3.521438 -2.049878 0
M  V30 49 H 3.121449 -3.224406 -3.243939 0
M  V30 50 H 3.445519 -5.371946 -2.284688 0
M  V30 51 H 1.611965 -4.833208 2.156678 0
M  V30 52 H -1.230227 -3.604125 2.650335 0
M  V30 53 H -1.309225 -2.830871 4.320241 0
M  V30 54 H -1.437620 -1.573877 1.529402 0
M  V30 55 H -2.808776 -1.709410 2.681036 0
M  V30 END ATOM
M  V30 BEGIN BOND
M  V30 1 1 1 2
M  V30 2 1 2 3
M  V30 3 1 3 4
M  V30 4 1 4 5
M  V30 5 1 5 6
M  V30 6 2 6 7
M  V30 7 1 7 8
M  V30 8 2 8 9
M  V30 9 1 9 10
M  V30 10 2 10 11
M  V30 11 1 11 12
M  V30 12 2 12 13
M  V30 13 1 13 14
M  V30 14 1 14 15
M  V30 15 1 15 16
M  V30 16 1 16 17
M  V30 17 2 17 18
M  V30 18 1 18 19
M  V30 19 2 19 20
M  V30 20 1 20 21
M  V30 21 1 21 22
M  V30 22 2 21 23
M  V30 23 2 14 24
M  V30 24 1 9 25
M  V30 25 2 25 26
M  V30 26 1 26 27
M  V30 27 2 27 28
M  V30 28 1 28 29
M  V30 29 1 5 30
M  V30 30 1 30 31
M  V30 31 1 31 2
M  V30 32 1 29 6
M  V30 33 1 28 8
M  V30 34 1 24 10
M  V30 35 1 23 17
M  V30 36 1 1 32
M  V30 37 1 1 33
M  V30 38 1 1 34
M  V30 39 1 3 35
M  V30 40 1 3 36
M  V30 41 1 4 37
M  V30 42 1 4 38
M  V30 43 1 5 39
M  V30 44 1 7 40
M  V30 45 1 11 41
M  V30 46 1 13 42
M  V30 47 1 16 43
M  V30 48 1 16 44
M  V30 49 1 18 45
M  V30 50 1 19 46
M  V30 51 1 20 47
M  V30 52 1 23 48
M  V30 53 1 25 49
M  V30 54 1 26 50
M  V30 55 1 29 51
M  V30 56 1 30 52
M  V30 57 1 30 53
M  V30 58 1 31 54
M  V30 59 1 31 55
M  V30 END BOND
M  V30 END CTAB
M  END
>  <Dataset>  (879) 
ChEMBL_Kinases

>  <Ligand_Instance>  (879) 
nan

>  <PDB_ID>  (879) 
nan

>  <Standardized_SMILES>  (879) 
CN1CCC(c2cc3c(-c4cncc(OCc5cccc(F)c5)n4)ccnc3[nH]2)CC1

>  <Name>  (879) 
nan

>  <Pocket>  (879) 
nan

>  <ATP_Site>  (879) 
nan

>  <Peripheral>  (879) 
nan

>  <Num_H_Atoms_ProtBoundConf>  (879) 
nan

>  <Num_Resolved_Atoms>  (879) 
nan

>  <Num_Not_Resolved_Atoms>  (879) 
nan

$$$$
CHEMBL3673521
     RDKit          3D

  0  0  0  0  0  0  0  0  0  0999 V3000
M  V30 BEGIN CTAB
M  V30 COUNTS 51 55 0 0 0
M  V30 BEGIN ATOM
M  V30 1 C -2.807219 -5.345270 1.466777 0
M  V30 2 C -2.366301 -4.377857 0.679132 0
M  V30 3 C -1.218408 -3.515911 0.923276 0
M  V30 4 C -0.748432 -2.514125 0.102418 0
M  V30 5 C 0.335165 -1.953055 0.749361 0
M  V30 6 C 1.216175 -0.929689 0.528604 0
M  V30 7 C 1.071330 -0.118481 -0.668073 0
M  V30 8 C 0.795293 -0.573476 -1.961713 0
M  V30 9 N 0.749365 0.270533 -2.991252 0
M  V30 10 C 0.954852 1.592827 -2.890560 0
M  V30 11 C 1.229348 2.069327 -1.620523 0
M  V30 12 N 1.436058 3.412963 -1.188043 0
M  V30 13 C 2.319265 4.284734 -0.466105 0
M  V30 14 C 2.504385 3.831991 0.951205 0
M  V30 15 C 1.610333 4.284461 1.922025 0
M  V30 16 C 1.707815 3.933497 3.252750 0
M  V30 17 C 2.742783 3.091635 3.635413 0
M  V30 18 C 3.616862 2.648761 2.680887 0
M  V30 19 C 3.537553 2.991848 1.327762 0
M  V30 20 N 1.273256 1.206123 -0.598259 0
M  V30 21 C 2.171361 -0.658599 1.497939 0
M  V30 22 C 2.284649 -1.359726 2.665746 0
M  V30 23 N 1.425024 -2.367256 2.892798 0
M  V30 24 C 0.480764 -2.637026 1.941185 0
M  V30 25 N -0.471536 -3.586438 2.032293 0
M  V30 26 C -3.198430 -4.208065 -0.564822 0
M  V30 27 C -4.639023 -4.034257 -0.113909 0
M  V30 28 N -5.035344 -5.029412 0.832649 0
M  V30 29 C -4.020046 -6.083104 0.965208 0
M  V30 30 H -2.235170 -5.479660 2.382295 0
M  V30 31 H -1.153282 -2.222174 -0.849413 0
M  V30 32 H 0.644267 -1.622675 -2.120310 0
M  V30 33 H 0.944532 2.349856 -3.642796 0
M  V30 34 H 0.542893 3.840227 -1.595992 0
M  V30 35 H 1.841552 5.301899 -0.438611 0
M  V30 36 H 3.313088 4.277010 -0.932126 0
M  V30 37 H 0.769245 4.947608 1.709114 0
M  V30 38 H 1.003082 4.288437 4.013173 0
M  V30 39 H 2.882175 2.769009 4.654874 0
M  V30 40 H 4.435370 1.994438 2.935832 0
M  V30 41 H 4.204297 2.665131 0.547259 0
M  V30 42 H 2.815419 0.165884 1.225684 0
M  V30 43 H 3.091710 -1.006359 3.300084 0
M  V30 44 H -0.623432 -4.274858 2.829591 0
M  V30 45 H -2.843587 -3.285617 -1.080441 0
M  V30 46 H -3.079398 -5.118918 -1.170948 0
M  V30 47 H -5.292889 -4.074533 -1.013547 0
M  V30 48 H -4.690132 -3.027328 0.390423 0
M  V30 49 H -5.090105 -4.606261 1.792506 0
M  V30 50 H -4.358670 -6.736953 1.783180 0
M  V30 51 H -3.830160 -6.597823 0.020657 0
M  V30 END ATOM
M  V30 BEGIN BOND
M  V30 1 2 1 2
M  V30 2 1 2 3
M  V30 3 2 3 4
M  V30 4 1 4 5
M  V30 5 2 5 6
M  V30 6 1 6 7
M  V30 7 2 7 8
M  V30 8 1 8 9
M  V30 9 2 9 10
M  V30 10 1 10 11
M  V30 11 1 11 12
M  V30 12 1 12 13
M  V30 13 1 13 14
M  V30 14 2 14 15
M  V30 15 1 15 16
M  V30 16 2 16 17
M  V30 17 1 17 18
M  V30 18 2 18 19
M  V30 19 2 11 20
M  V30 20 1 6 21
M  V30 21 2 21 22
M  V30 22 1 22 23
M  V30 23 2 23 24
M  V30 24 1 24 25
M  V30 25 1 2 26
M  V30 26 1 26 27
M  V30 27 1 27 28
M  V30 28 1 28 29
M  V30 29 1 29 1
M  V30 30 1 25 3
M  V30 31 1 24 5
M  V30 32 1 20 7
M  V30 33 1 19 14
M  V30 34 1 1 30
M  V30 35 1 4 31
M  V30 36 1 8 32
M  V30 37 1 10 33
M  V30 38 1 12 34
M  V30 39 1 13 35
M  V30 40 1 13 36
M  V30 41 1 15 37
M  V30 42 1 16 38
M  V30 43 1 17 39
M  V30 44 1 18 40
M  V30 45 1 19 41
M  V30 46 1 21 42
M  V30 47 1 22 43
M  V30 48 1 25 44
M  V30 49 1 26 45
M  V30 50 1 26 46
M  V30 51 1 27 47
M  V30 52 1 27 48
M  V30 53 1 28 49
M  V30 54 1 29 50
M  V30 55 1 29 51
M  V30 END BOND
M  V30 END CTAB
M  END
>  <Dataset>  (880) 
ChEMBL_Kinases

>  <Ligand_Instance>  (880) 
nan

>  <PDB_ID>  (880) 
nan

>  <Standardized_SMILES>  (880) 
C1=C(c2cc3c(-c4cncc(NCc5ccccc5)n4)ccnc3[nH]2)CCNC1

>  <Name>  (880) 
nan

>  <Pocket>  (880) 
nan

>  <ATP_Site>  (880) 
nan

>  <Peripheral>  (880) 
nan

>  <Num_H_Atoms_ProtBoundConf>  (880) 
nan

>  <Num_Resolved_Atoms>  (880) 
nan

>  <Num_Not_Resolved_Atoms>  (880) 
nan

$$$$
CHEMBL3673522
     RDKit          3D

  0  0  0  0  0  0  0  0  0  0999 V3000
M  V30 BEGIN CTAB
M  V30 COUNTS 58 62 0 0 0
M  V30 BEGIN ATOM
M  V30 1 O 4.878310 -3.383322 2.099263 0
M  V30 2 C 4.297706 -3.187271 0.975739 0
M  V30 3 C 4.386064 -4.458725 0.213701 0
M  V30 4 O 5.069686 -5.398552 1.008739 0
M  V30 5 N 3.682706 -1.987436 0.525883 0
M  V30 6 C 3.093762 -2.010217 -0.771503 0
M  V30 7 C 1.945373 -1.048352 -0.941410 0
M  V30 8 C 2.252897 0.210335 -0.222673 0
M  V30 9 C 1.233846 1.277322 -0.417607 0
M  V30 10 C -0.150492 1.078020 -0.301197 0
M  V30 11 C -0.697676 2.319138 -0.538964 0
M  V30 12 C -1.995154 2.779253 -0.557290 0
M  V30 13 C -3.165874 1.962301 -0.297127 0
M  V30 14 C -4.400428 2.540689 -0.116866 0
M  V30 15 N -5.516956 1.803036 0.144461 0
M  V30 16 C -5.353260 0.441449 0.219867 0
M  V30 17 C -4.088718 -0.184606 0.038199 0
M  V30 18 O -4.443020 -1.465257 0.200284 0
M  V30 19 C -3.815694 -2.661687 0.170647 0
M  V30 20 C -2.721234 -2.935171 1.111671 0
M  V30 21 C -1.375714 -2.739063 0.793746 0
M  V30 22 C -0.424752 -3.049736 1.768957 0
M  V30 23 C -0.762692 -3.534283 3.018030 0
M  V30 24 C -2.076722 -3.730480 3.343965 0
M  V30 25 F -2.419397 -4.204675 4.561271 0
M  V30 26 C -2.999858 -3.420484 2.371617 0
M  V30 27 N -3.065362 0.630746 -0.211376 0
M  V30 28 C -2.190844 4.118234 -0.824557 0
M  V30 29 C -1.151934 4.989526 -1.068432 0
M  V30 30 N 0.132043 4.520253 -1.047347 0
M  V30 31 C 0.336882 3.218212 -0.787716 0
M  V30 32 N 1.503706 2.559719 -0.708651 0
M  V30 33 C 2.409596 -0.106879 1.268705 0
M  V30 34 C 3.714218 -0.855491 1.420759 0
M  V30 35 H 3.349255 -4.819525 0.048677 0
M  V30 36 H 4.922403 -4.318000 -0.755442 0
M  V30 37 H 4.406011 -5.752329 1.641930 0
M  V30 38 H 2.664490 -3.027781 -0.948638 0
M  V30 39 H 3.865569 -1.866251 -1.555241 0
M  V30 40 H 1.943658 -0.792286 -2.047138 0
M  V30 41 H 0.978086 -1.459106 -0.654893 0
M  V30 42 H 3.243164 0.631296 -0.516656 0
M  V30 43 H -0.731284 0.192044 -0.079167 0
M  V30 44 H -4.592108 3.623688 -0.160351 0
M  V30 45 H -6.374597 0.051084 0.436650 0
M  V30 46 H -4.608448 -3.468533 0.327767 0
M  V30 47 H -3.435666 -2.931793 -0.877324 0
M  V30 48 H -1.182523 -2.362853 -0.185863 0
M  V30 49 H 0.615103 -2.901667 1.507204 0
M  V30 50 H 0.059662 -3.744628 3.699050 0
M  V30 51 H -4.046071 -3.587773 2.658447 0
M  V30 52 H -3.116173 4.669931 -0.889469 0
M  V30 53 H -1.219157 6.041710 -1.286191 0
M  V30 54 H 2.465719 2.959918 -0.846856 0
M  V30 55 H 2.426979 0.854603 1.849145 0
M  V30 56 H 1.578155 -0.751690 1.548911 0
M  V30 57 H 4.535625 -0.175244 1.064732 0
M  V30 58 H 3.875742 -1.189212 2.465189 0
M  V30 END ATOM
M  V30 BEGIN BOND
M  V30 1 2 1 2
M  V30 2 1 2 3
M  V30 3 1 3 4
M  V30 4 1 2 5
M  V30 5 1 5 6
M  V30 6 1 6 7
M  V30 7 1 7 8
M  V30 8 1 8 9
M  V30 9 2 9 10
M  V30 10 1 10 11
M  V30 11 2 11 12
M  V30 12 1 12 13
M  V30 13 2 13 14
M  V30 14 1 14 15
M  V30 15 2 15 16
M  V30 16 1 16 17
M  V30 17 1 17 18
M  V30 18 1 18 19
M  V30 19 1 19 20
M  V30 20 2 20 21
M  V30 21 1 21 22
M  V30 22 2 22 23
M  V30 23 1 23 24
M  V30 24 1 24 25
M  V30 25 2 24 26
M  V30 26 2 17 27
M  V30 27 1 12 28
M  V30 28 2 28 29
M  V30 29 1 29 30
M  V30 30 2 30 31
M  V30 31 1 31 32
M  V30 32 1 8 33
M  V30 33 1 33 34
M  V30 34 1 34 5
M  V30 35 1 32 9
M  V30 36 1 31 11
M  V30 37 1 27 13
M  V30 38 1 26 20
M  V30 39 1 3 35
M  V30 40 1 3 36
M  V30 41 1 4 37
M  V30 42 1 6 38
M  V30 43 1 6 39
M  V30 44 1 7 40
M  V30 45 1 7 41
M  V30 46 1 8 42
M  V30 47 1 10 43
M  V30 48 1 14 44
M  V30 49 1 16 45
M  V30 50 1 19 46
M  V30 51 1 19 47
M  V30 52 1 21 48
M  V30 53 1 22 49
M  V30 54 1 23 50
M  V30 55 1 26 51
M  V30 56 1 28 52
M  V30 57 1 29 53
M  V30 58 1 32 54
M  V30 59 1 33 55
M  V30 60 1 33 56
M  V30 61 1 34 57
M  V30 62 1 34 58
M  V30 END BOND
M  V30 END CTAB
M  END
>  <Dataset>  (881) 
ChEMBL_Kinases

>  <Ligand_Instance>  (881) 
nan

>  <PDB_ID>  (881) 
nan

>  <Standardized_SMILES>  (881) 
O=C(CO)N1CCC(c2cc3c(-c4cncc(OCc5cccc(F)c5)n4)ccnc3[nH]2)CC1

>  <Name>  (881) 
nan

>  <Pocket>  (881) 
nan

>  <ATP_Site>  (881) 
nan

>  <Peripheral>  (881) 
nan

>  <Num_H_Atoms_ProtBoundConf>  (881) 
nan

>  <Num_Resolved_Atoms>  (881) 
nan

>  <Num_Not_Resolved_Atoms>  (881) 
nan

$$$$
CHEMBL3673523
     RDKit          3D

  0  0  0  0  0  0  0  0  0  0999 V3000
M  V30 BEGIN CTAB
M  V30 COUNTS 63 67 0 0 0
M  V30 BEGIN ATOM
M  V30 1 O 1.706835 -2.204055 5.194066 0
M  V30 2 C 0.908056 -1.054892 5.268043 0
M  V30 3 C 0.377520 -0.799369 3.876363 0
M  V30 4 O 1.484805 -0.612733 3.050942 0
M  V30 5 C -0.392039 0.475870 3.910099 0
M  V30 6 N -0.882749 0.921766 2.620552 0
M  V30 7 C -1.897705 0.022588 2.182395 0
M  V30 8 C -2.751809 0.567966 1.098237 0
M  V30 9 C -2.382503 1.887952 0.539346 0
M  V30 10 C -1.444169 1.815395 -0.630122 0
M  V30 11 C -0.432826 0.917562 -0.882554 0
M  V30 12 C 0.208682 1.220331 -2.063812 0
M  V30 13 C 1.267048 0.596858 -2.665891 0
M  V30 14 C 1.982153 -0.572705 -2.197297 0
M  V30 15 C 3.236646 -0.862354 -2.695512 0
M  V30 16 N 3.925601 -1.944449 -2.227498 0
M  V30 17 C 3.320360 -2.709409 -1.261495 0
M  V30 18 C 2.039681 -2.426211 -0.744932 0
M  V30 19 O 1.858460 -3.424833 0.160410 0
M  V30 20 C 0.694088 -3.569386 0.917136 0
M  V30 21 C -0.442179 -3.823336 -0.006918 0
M  V30 22 C -1.358631 -2.998184 -0.610352 0
M  V30 23 C -2.331877 -3.473993 -1.454248 0
M  V30 24 C -2.459787 -4.810779 -1.756354 0
M  V30 25 C -1.573156 -5.674502 -1.182174 0
M  V30 26 F -1.687328 -6.989269 -1.470397 0
M  V30 27 C -0.601133 -5.182074 -0.336979 0
M  V30 28 N 1.428847 -1.351149 -1.251066 0
M  V30 29 C 1.678960 1.184930 -3.839708 0
M  V30 30 C 1.054220 2.304632 -4.338735 0
M  V30 31 N -0.001139 2.886270 -3.697134 0
M  V30 32 C -0.438476 2.339936 -2.536667 0
M  V30 33 N -1.417523 2.686686 -1.682844 0
M  V30 34 C -1.877559 2.888730 1.538047 0
M  V30 35 C -1.310900 2.268225 2.780096 0
M  V30 36 H 1.233720 -2.925079 4.688432 0
M  V30 37 H 0.115776 -1.266979 6.011169 0
M  V30 38 H 1.593127 -0.236024 5.594244 0
M  V30 39 H -0.267765 -1.631086 3.601250 0
M  V30 40 H 2.017476 -1.441506 2.984108 0
M  V30 41 H -1.243249 0.402514 4.630124 0
M  V30 42 H 0.279632 1.254034 4.349835 0
M  V30 43 H -2.491222 -0.402167 3.037934 0
M  V30 44 H -1.354240 -0.888007 1.789783 0
M  V30 45 H -3.813446 0.549160 1.491749 0
M  V30 46 H -2.802005 -0.172723 0.245384 0
M  V30 47 H -3.313830 2.357940 0.101963 0
M  V30 48 H -0.192688 0.112991 -0.232788 0
M  V30 49 H 3.739220 -0.262083 -3.467149 0
M  V30 50 H 4.053974 -3.510723 -1.044339 0
M  V30 51 H 0.491491 -2.678716 1.565652 0
M  V30 52 H 0.750792 -4.420978 1.619992 0
M  V30 53 H -1.211879 -1.979825 -0.335925 0
M  V30 54 H -2.995442 -2.723370 -1.868163 0
M  V30 55 H -3.237525 -5.127122 -2.421408 0
M  V30 56 H 0.057923 -5.966677 0.068196 0
M  V30 57 H 2.472724 0.889603 -4.488622 0
M  V30 58 H 1.297473 2.829839 -5.233911 0
M  V30 59 H -2.049421 3.524049 -1.849307 0
M  V30 60 H -2.667150 3.626943 1.778398 0
M  V30 61 H -1.069738 3.473341 1.053609 0
M  V30 62 H -2.089711 2.310992 3.569645 0
M  V30 63 H -0.447958 2.867077 3.177393 0
M  V30 END ATOM
M  V30 BEGIN BOND
M  V30 1 1 1 2
M  V30 2 1 2 3
M  V30 3 1 3 4
M  V30 4 1 3 5
M  V30 5 1 5 6
M  V30 6 1 6 7
M  V30 7 1 7 8
M  V30 8 1 8 9
M  V30 9 1 9 10
M  V30 10 2 10 11
M  V30 11 1 11 12
M  V30 12 2 12 13
M  V30 13 1 13 14
M  V30 14 2 14 15
M  V30 15 1 15 16
M  V30 16 2 16 17
M  V30 17 1 17 18
M  V30 18 1 18 19
M  V30 19 1 19 20
M  V30 20 1 20 21
M  V30 21 2 21 22
M  V30 22 1 22 23
M  V30 23 2 23 24
M  V30 24 1 24 25
M  V30 25 1 25 26
M  V30 26 2 25 27
M  V30 27 2 18 28
M  V30 28 1 13 29
M  V30 29 2 29 30
M  V30 30 1 30 31
M  V30 31 2 31 32
M  V30 32 1 32 33
M  V30 33 1 9 34
M  V30 34 1 34 35
M  V30 35 1 35 6
M  V30 36 1 33 10
M  V30 37 1 32 12
M  V30 38 1 28 14
M  V30 39 1 27 21
M  V30 40 1 1 36
M  V30 41 1 2 37
M  V30 42 1 2 38
M  V30 43 1 3 39
M  V30 44 1 4 40
M  V30 45 1 5 41
M  V30 46 1 5 42
M  V30 47 1 7 43
M  V30 48 1 7 44
M  V30 49 1 8 45
M  V30 50 1 8 46
M  V30 51 1 9 47
M  V30 52 1 11 48
M  V30 53 1 15 49
M  V30 54 1 17 50
M  V30 55 1 20 51
M  V30 56 1 20 52
M  V30 57 1 22 53
M  V30 58 1 23 54
M  V30 59 1 24 55
M  V30 60 1 27 56
M  V30 61 1 29 57
M  V30 62 1 30 58
M  V30 63 1 33 59
M  V30 64 1 34 60
M  V30 65 1 34 61
M  V30 66 1 35 62
M  V30 67 1 35 63
M  V30 END BOND
M  V30 END CTAB
M  END
>  <Dataset>  (882) 
ChEMBL_Kinases

>  <Ligand_Instance>  (882) 
nan

>  <PDB_ID>  (882) 
nan

>  <Standardized_SMILES>  (882) 
OCC(O)CN1CCC(c2cc3c(-c4cncc(OCc5cccc(F)c5)n4)ccnc3[nH]2)CC1

>  <Name>  (882) 
nan

>  <Pocket>  (882) 
nan

>  <ATP_Site>  (882) 
nan

>  <Peripheral>  (882) 
nan

>  <Num_H_Atoms_ProtBoundConf>  (882) 
nan

>  <Num_Resolved_Atoms>  (882) 
nan

>  <Num_Not_Resolved_Atoms>  (882) 
nan

$$$$
CHEMBL3673524
     RDKit          3D

  0  0  0  0  0  0  0  0  0  0999 V3000
M  V30 BEGIN CTAB
M  V30 COUNTS 67 71 0 0 0
M  V30 BEGIN ATOM
M  V30 1 C -4.022474 1.598990 -5.811029 0
M  V30 2 C -3.073170 0.771256 -4.944182 0
M  V30 3 O -1.737674 1.177986 -5.187876 0
M  V30 4 C -0.641319 0.606345 -4.540077 0
M  V30 5 O -0.919327 -0.297976 -3.721356 0
M  V30 6 N 0.698195 1.016097 -4.786054 0
M  V30 7 S 2.020865 0.253349 -3.930106 0
M  V30 8 O 1.653799 -1.154576 -3.551758 0
M  V30 9 O 3.239179 0.275708 -4.822745 0
M  V30 10 N 2.254813 1.157485 -2.508078 0
M  V30 11 C 2.619153 2.527589 -2.752661 0
M  V30 12 C 2.244054 3.352025 -1.567566 0
M  V30 13 C 2.198089 2.567796 -0.273495 0
M  V30 14 C 0.786767 2.326363 0.150329 0
M  V30 15 C 0.027471 1.179811 0.047951 0
M  V30 16 C -1.230056 1.445637 0.543669 0
M  V30 17 C -2.397328 0.737556 0.696656 0
M  V30 18 C -2.480417 -0.654681 0.291082 0
M  V30 19 C -3.713639 -1.298711 0.272587 0
M  V30 20 N -3.878892 -2.597110 -0.109039 0
M  V30 21 C -2.793411 -3.314241 -0.494240 0
M  V30 22 C -1.554617 -2.666957 -0.474420 0
M  V30 23 N -0.510401 -3.521428 -0.891232 0
M  V30 24 C -0.245843 -4.559311 0.068584 0
M  V30 25 C 0.143452 -3.963735 1.363785 0
M  V30 26 C 1.429842 -3.653172 1.753486 0
M  V30 27 C 1.778344 -3.113567 2.962399 0
M  V30 28 C 0.764042 -2.854937 3.874752 0
M  V30 29 C -0.517851 -3.145604 3.532858 0
M  V30 30 F -1.452775 -2.861372 4.488537 0
M  V30 31 C -0.833283 -3.684728 2.315379 0
M  V30 32 N -1.427176 -1.386987 -0.093515 0
M  V30 33 C -3.459617 1.417110 1.240702 0
M  V30 34 C -3.422714 2.737851 1.633810 0
M  V30 35 N -2.260219 3.399468 1.469301 0
M  V30 36 C -1.198971 2.757843 0.936204 0
M  V30 37 N -0.006543 3.289022 0.707641 0
M  V30 38 C 3.061857 1.366411 -0.266434 0
M  V30 39 C 3.147133 0.598501 -1.549606 0
M  V30 40 H -3.518164 1.794012 -6.778459 0
M  V30 41 H -4.222504 2.592578 -5.355314 0
M  V30 42 H -4.977488 1.052129 -5.969577 0
M  V30 43 H -3.357431 0.959625 -3.890326 0
M  V30 44 H -3.231567 -0.301634 -5.130239 0
M  V30 45 H 0.844216 1.776114 -5.485971 0
M  V30 46 H 3.704861 2.607621 -3.003492 0
M  V30 47 H 2.079172 2.855713 -3.681569 0
M  V30 48 H 2.921634 4.226979 -1.520400 0
M  V30 49 H 1.216779 3.766170 -1.744640 0
M  V30 50 H 2.615573 3.297157 0.475813 0
M  V30 51 H 0.340195 0.225855 -0.347551 0
M  V30 52 H -4.649744 -0.841624 0.552501 0
M  V30 53 H -2.953562 -4.341198 -0.791576 0
M  V30 54 H 0.061305 -3.507268 -1.743331 0
M  V30 55 H 0.528721 -5.284144 -0.260258 0
M  V30 56 H -1.173989 -5.162905 0.211919 0
M  V30 57 H 2.180716 -3.883516 0.986329 0
M  V30 58 H 2.811836 -2.905819 3.177943 0
M  V30 59 H 1.092516 -2.425994 4.825067 0
M  V30 60 H -1.890879 -3.862804 2.185177 0
M  V30 61 H -4.411700 0.959889 1.401790 0
M  V30 62 H -4.260758 3.259241 2.055930 0
M  V30 63 H 0.335901 4.276562 0.900442 0
M  V30 64 H 2.687478 0.693246 0.558445 0
M  V30 65 H 4.116174 1.604040 0.061768 0
M  V30 66 H 2.794407 -0.454919 -1.365749 0
M  V30 67 H 4.193845 0.527310 -1.896210 0
M  V30 END ATOM
M  V30 BEGIN BOND
M  V30 1 1 1 2
M  V30 2 1 2 3
M  V30 3 1 3 4
M  V30 4 2 4 5
M  V30 5 1 4 6
M  V30 6 1 6 7
M  V30 7 2 7 8
M  V30 8 2 7 9
M  V30 9 1 7 10
M  V30 10 1 10 11
M  V30 11 1 11 12
M  V30 12 1 12 13
M  V30 13 1 13 14
M  V30 14 2 14 15
M  V30 15 1 15 16
M  V30 16 2 16 17
M  V30 17 1 17 18
M  V30 18 2 18 19
M  V30 19 1 19 20
M  V30 20 2 20 21
M  V30 21 1 21 22
M  V30 22 1 22 23
M  V30 23 1 23 24
M  V30 24 1 24 25
M  V30 25 2 25 26
M  V30 26 1 26 27
M  V30 27 2 27 28
M  V30 28 1 28 29
M  V30 29 1 29 30
M  V30 30 2 29 31
M  V30 31 2 22 32
M  V30 32 1 17 33
M  V30 33 2 33 34
M  V30 34 1 34 35
M  V30 35 2 35 36
M  V30 36 1 36 37
M  V30 37 1 13 38
M  V30 38 1 38 39
M  V30 39 1 39 10
M  V30 40 1 37 14
M  V30 41 1 36 16
M  V30 42 1 32 18
M  V30 43 1 31 25
M  V30 44 1 1 40
M  V30 45 1 1 41
M  V30 46 1 1 42
M  V30 47 1 2 43
M  V30 48 1 2 44
M  V30 49 1 6 45
M  V30 50 1 11 46
M  V30 51 1 11 47
M  V30 52 1 12 48
M  V30 53 1 12 49
M  V30 54 1 13 50
M  V30 55 1 15 51
M  V30 56 1 19 52
M  V30 57 1 21 53
M  V30 58 1 23 54
M  V30 59 1 24 55
M  V30 60 1 24 56
M  V30 61 1 26 57
M  V30 62 1 27 58
M  V30 63 1 28 59
M  V30 64 1 31 60
M  V30 65 1 33 61
M  V30 66 1 34 62
M  V30 67 1 37 63
M  V30 68 1 38 64
M  V30 69 1 38 65
M  V30 70 1 39 66
M  V30 71 1 39 67
M  V30 END BOND
M  V30 END CTAB
M  END
>  <Dataset>  (883) 
ChEMBL_Kinases

>  <Ligand_Instance>  (883) 
nan

>  <PDB_ID>  (883) 
nan

>  <Standardized_SMILES>  (883) 
CCOC(=O)NS(=O)(=O)N1CCC(c2cc3c(-c4cncc(NCc5cccc(F)c5)n4)ccnc3[nH]2)CC1

>  <Name>  (883) 
nan

>  <Pocket>  (883) 
nan

>  <ATP_Site>  (883) 
nan

>  <Peripheral>  (883) 
nan

>  <Num_H_Atoms_ProtBoundConf>  (883) 
nan

>  <Num_Resolved_Atoms>  (883) 
nan

>  <Num_Not_Resolved_Atoms>  (883) 
nan

$$$$
CHEMBL3673516
     RDKit          3D

  0  0  0  0  0  0  0  0  0  0999 V3000
M  V30 BEGIN CTAB
M  V30 COUNTS 39 42 0 0 0
M  V30 BEGIN ATOM
M  V30 1 F 1.294202 -3.638898 -1.273400 0
M  V30 2 C 2.065809 -3.413209 -0.165337 0
M  V30 3 C 2.412292 -4.587461 0.511300 0
M  V30 4 C 3.197268 -4.471696 1.667434 0
M  V30 5 C 3.592217 -3.224983 2.091113 0
M  V30 6 Cl 4.583262 -2.851301 3.506316 0
M  V30 7 N 3.247748 -2.097238 1.425342 0
M  V30 8 C 2.489264 -2.160616 0.300407 0
M  V30 9 C 1.991723 -1.098885 -0.557831 0
M  V30 10 C 2.448853 -1.139607 -1.859256 0
M  V30 11 C 2.013578 -0.138533 -2.688083 0
M  V30 12 N 1.186018 0.854821 -2.316439 0
M  V30 13 C 0.727851 0.915686 -1.057920 0
M  V30 14 N -0.087739 1.705957 -0.337938 0
M  V30 15 C -0.181676 1.231455 0.930810 0
M  V30 16 C -1.023072 1.885576 1.967111 0
M  V30 17 C -2.324230 2.278830 1.241116 0
M  V30 18 C -2.876690 0.993220 0.663252 0
M  V30 19 N -3.332234 0.161047 1.741224 0
M  V30 20 C -2.293277 -0.153828 2.675693 0
M  V30 21 C -1.417022 0.984138 3.077040 0
M  V30 22 C 0.583513 0.098716 1.080232 0
M  V30 23 C 1.129037 -0.060594 -0.176890 0
M  V30 24 H 2.171439 -5.605118 0.288022 0
M  V30 25 H 3.570615 -5.262113 2.330871 0
M  V30 26 H 3.117404 -1.921224 -2.222389 0
M  V30 27 H 2.296462 -0.063618 -3.727914 0
M  V30 28 H -0.511452 2.533723 -0.844508 0
M  V30 29 H -0.502149 2.767097 2.338497 0
M  V30 30 H -3.011742 2.750360 1.964368 0
M  V30 31 H -2.081895 2.928328 0.381358 0
M  V30 32 H -2.081537 0.472422 0.095661 0
M  V30 33 H -3.776332 1.213739 0.027522 0
M  V30 34 H -3.685612 -0.752916 1.331837 0
M  V30 35 H -1.692670 -1.005629 2.313962 0
M  V30 36 H -2.824296 -0.487562 3.616202 0
M  V30 37 H -0.531606 0.552543 3.600316 0
M  V30 38 H -1.969559 1.618972 3.817537 0
M  V30 39 H 0.673196 -0.452402 1.989478 0
M  V30 END ATOM
M  V30 BEGIN BOND
M  V30 1 1 1 2
M  V30 2 2 2 3
M  V30 3 1 3 4
M  V30 4 2 4 5
M  V30 5 1 5 6
M  V30 6 1 5 7
M  V30 7 2 7 8
M  V30 8 1 8 9
M  V30 9 2 9 10
M  V30 10 1 10 11
M  V30 11 2 11 12
M  V30 12 1 12 13
M  V30 13 1 13 14
M  V30 14 1 14 15
M  V30 15 1 15 16
M  V30 16 1 16 17
M  V30 17 1 17 18
M  V30 18 1 18 19
M  V30 19 1 19 20
M  V30 20 1 20 21
M  V30 21 2 15 22
M  V30 22 1 22 23
M  V30 23 1 8 2
M  V30 24 1 23 9
M  V30 25 2 23 13
M  V30 26 1 21 16
M  V30 27 1 3 24
M  V30 28 1 4 25
M  V30 29 1 10 26
M  V30 30 1 11 27
M  V30 31 1 14 28
M  V30 32 1 16 29
M  V30 33 1 17 30
M  V30 34 1 17 31
M  V30 35 1 18 32
M  V30 36 1 18 33
M  V30 37 1 19 34
M  V30 38 1 20 35
M  V30 39 1 20 36
M  V30 40 1 21 37
M  V30 41 1 21 38
M  V30 42 1 22 39
M  V30 END BOND
M  V30 END CTAB
M  END
>  <Dataset>  (884) 
ChEMBL_Kinases

>  <Ligand_Instance>  (884) 
nan

>  <PDB_ID>  (884) 
nan

>  <Standardized_SMILES>  (884) 
Fc1ccc(Cl)nc1-c1ccnc2[nH]c(C3CCNCC3)cc12

>  <Name>  (884) 
nan

>  <Pocket>  (884) 
nan

>  <ATP_Site>  (884) 
nan

>  <Peripheral>  (884) 
nan

>  <Num_H_Atoms_ProtBoundConf>  (884) 
nan

>  <Num_Resolved_Atoms>  (884) 
nan

>  <Num_Not_Resolved_Atoms>  (884) 
nan

$$$$
CHEMBL3674703
     RDKit          3D

  0  0  0  0  0  0  0  0  0  0999 V3000
M  V30 BEGIN CTAB
M  V30 COUNTS 87 92 0 0 0
M  V30 BEGIN ATOM
M  V30 1 C -0.577100 -6.286032 -1.533464 0
M  V30 2 C 0.828275 -5.716648 -1.536727 0
M  V30 3 O 0.840061 -4.318678 -1.500172 0
M  V30 4 C 2.200709 -3.958142 -1.504773 0
M  V30 5 C 2.447457 -3.194072 -0.218812 0
M  V30 6 C 3.821970 -2.531141 -0.368112 0
M  V30 7 N 3.629983 -1.436482 -1.299426 0
M  V30 8 C 4.426959 -0.298500 -1.042504 0
M  V30 9 O 5.097124 -0.604480 -0.021564 0
M  V30 10 C 4.482142 0.986264 -1.793656 0 CFG=1
M  V30 11 C 3.158193 1.705438 -1.829723 0
M  V30 12 C 2.967548 2.701434 -0.722671 0
M  V30 13 C 3.878407 2.536321 0.436094 0 CFG=2
M  V30 14 N 3.695409 3.653930 1.342593 0
M  V30 15 C 2.482553 3.997623 2.007557 0
M  V30 16 N 2.381415 5.058407 2.845402 0
M  V30 17 C 1.217540 5.346676 3.450919 0
M  V30 18 C 0.074461 4.598451 3.263578 0
M  V30 19 C 0.194847 3.523426 2.408324 0
M  V30 20 N -0.845950 2.616174 2.061653 0
M  V30 21 C -2.000689 3.145462 1.571357 0
M  V30 22 C -2.875713 2.089880 1.297331 0
M  V30 23 C -2.185687 0.966592 1.644677 0
M  V30 24 C -2.563635 -0.358183 1.583386 0
M  V30 25 N -3.820830 -0.839260 1.119630 0
M  V30 26 C -5.135270 -0.536675 1.674094 0
M  V30 27 C -6.099494 -1.544825 1.046059 0
M  V30 28 C -6.168955 -1.219860 -0.440718 0
M  V30 29 S -7.072100 -2.476454 -1.317733 0
M  V30 30 C -6.188605 -4.000856 -1.116406 0
M  V30 31 O -7.004936 -2.092974 -2.780001 0
M  V30 32 O -8.472441 -2.549945 -0.815696 0
M  V30 33 C -4.790384 -1.159729 -1.044405 0
M  V30 34 C -3.826681 -1.736299 -0.038865 0
M  V30 35 C -1.661290 -1.335130 2.003569 0
M  V30 36 C -0.398093 -0.960532 2.476416 0
M  V30 37 C 0.001463 0.358159 2.546469 0
M  V30 38 C -0.935537 1.275204 2.116610 0
M  V30 39 N 1.374045 3.261586 1.818031 0
M  V30 40 C 5.329691 2.434404 0.071261 0
M  V30 41 C 5.599028 1.868026 -1.292693 0
M  V30 42 C 2.669899 -1.630381 -2.355163 0
M  V30 43 C 2.586562 -3.114910 -2.680163 0
M  V30 44 H -1.054544 -6.218789 -2.535508 0
M  V30 45 H -0.466507 -7.361936 -1.285153 0
M  V30 46 H -1.224634 -5.806903 -0.792104 0
M  V30 47 H 1.376604 -6.080782 -0.656477 0
M  V30 48 H 1.380192 -6.006747 -2.439454 0
M  V30 49 H 2.770209 -4.906262 -1.536262 0
M  V30 50 H 2.394986 -3.857649 0.656835 0
M  V30 51 H 1.700742 -2.359411 -0.189806 0
M  V30 52 H 4.216821 -2.208997 0.595513 0
M  V30 53 H 4.553451 -3.246118 -0.820381 0
M  V30 54 H 4.735257 0.726996 -2.843688 0
M  V30 55 H 3.031382 2.280645 -2.777508 0
M  V30 56 H 2.362135 0.933831 -1.839458 0
M  V30 57 H 1.920141 2.581588 -0.377215 0
M  V30 58 H 3.028966 3.765351 -1.073002 0
M  V30 59 H 3.619415 1.588352 0.986256 0
M  V30 60 H 4.518358 4.296072 1.553135 0
M  V30 61 H 1.146035 6.193160 4.116023 0
M  V30 62 H -0.891272 4.765206 3.711078 0
M  V30 63 H -2.292482 4.174280 1.386975 0
M  V30 64 H -3.878445 2.151253 0.898300 0
M  V30 65 H -5.491478 0.470710 1.454506 0
M  V30 66 H -5.123413 -0.747528 2.782034 0
M  V30 67 H -5.780903 -2.577812 1.177330 0
M  V30 68 H -7.125861 -1.436253 1.463344 0
M  V30 69 H -6.665076 -0.227858 -0.526406 0
M  V30 70 H -6.721637 -4.815281 -1.648667 0
M  V30 71 H -6.051882 -4.248605 -0.050291 0
M  V30 72 H -5.185190 -3.836812 -1.569575 0
M  V30 73 H -4.706697 -1.674293 -2.022916 0
M  V30 74 H -4.508927 -0.099192 -1.176832 0
M  V30 75 H -3.988903 -2.776509 0.226729 0
M  V30 76 H -2.821312 -1.700121 -0.547769 0
M  V30 77 H -1.888345 -2.389283 1.983897 0
M  V30 78 H 0.278214 -1.742344 2.795647 0
M  V30 79 H 0.961182 0.682053 2.902654 0
M  V30 80 H 5.872428 1.848423 0.841397 0
M  V30 81 H 5.805468 3.455861 0.098674 0
M  V30 82 H 5.773087 2.646813 -2.064229 0
M  V30 83 H 6.517355 1.244543 -1.258524 0
M  V30 84 H 2.950283 -1.131819 -3.310536 0
M  V30 85 H 1.642246 -1.344159 -2.055823 0
M  V30 86 H 1.761390 -3.244921 -3.440006 0
M  V30 87 H 3.510002 -3.494707 -3.130251 0
M  V30 END ATOM
M  V30 BEGIN BOND
M  V30 1 1 1 2
M  V30 2 1 2 3
M  V30 3 1 3 4
M  V30 4 1 4 5
M  V30 5 1 5 6
M  V30 6 1 6 7
M  V30 7 1 7 8
M  V30 8 2 8 9
M  V30 9 1 8 10
M  V30 10 1 10 11
M  V30 11 1 11 12
M  V30 12 1 12 13
M  V30 13 1 13 14
M  V30 14 1 14 15
M  V30 15 2 15 16
M  V30 16 1 16 17
M  V30 17 2 17 18
M  V30 18 1 18 19
M  V30 19 1 19 20
M  V30 20 1 20 21
M  V30 21 2 21 22
M  V30 22 1 22 23
M  V30 23 2 23 24
M  V30 24 1 24 25
M  V30 25 1 25 26
M  V30 26 1 26 27
M  V30 27 1 27 28
M  V30 28 1 28 29
M  V30 29 1 29 30
M  V30 30 2 29 31
M  V30 31 2 29 32
M  V30 32 1 28 33
M  V30 33 1 33 34
M  V30 34 1 24 35
M  V30 35 2 35 36
M  V30 36 1 36 37
M  V30 37 2 37 38
M  V30 38 2 19 39
M  V30 39 1 13 40
M  V30 40 1 40 41
M  V30 41 1 7 42
M  V30 42 1 42 43
M  V30 43 1 43 4
M  V30 44 1 41 10
M  V30 45 1 39 15
M  V30 46 1 38 20
M  V30 47 1 38 23
M  V30 48 1 34 25
M  V30 49 1 1 44
M  V30 50 1 1 45
M  V30 51 1 1 46
M  V30 52 1 2 47
M  V30 53 1 2 48
M  V30 54 1 4 49
M  V30 55 1 5 50
M  V30 56 1 5 51
M  V30 57 1 6 52
M  V30 58 1 6 53
M  V30 59 1 10 54 CFG=3
M  V30 60 1 11 55
M  V30 61 1 11 56
M  V30 62 1 12 57
M  V30 63 1 12 58
M  V30 64 1 13 59 CFG=1
M  V30 65 1 14 60
M  V30 66 1 17 61
M  V30 67 1 18 62
M  V30 68 1 21 63
M  V30 69 1 22 64
M  V30 70 1 26 65
M  V30 71 1 26 66
M  V30 72 1 27 67
M  V30 73 1 27 68
M  V30 74 1 28 69
M  V30 75 1 30 70
M  V30 76 1 30 71
M  V30 77 1 30 72
M  V30 78 1 33 73
M  V30 79 1 33 74
M  V30 80 1 34 75
M  V30 81 1 34 76
M  V30 82 1 35 77
M  V30 83 1 36 78
M  V30 84 1 37 79
M  V30 85 1 40 80
M  V30 86 1 40 81
M  V30 87 1 41 82
M  V30 88 1 41 83
M  V30 89 1 42 84
M  V30 90 1 42 85
M  V30 91 1 43 86
M  V30 92 1 43 87
M  V30 END BOND
M  V30 END CTAB
M  END
>  <Dataset>  (885) 
ChEMBL_Kinases

>  <Ligand_Instance>  (885) 
nan

>  <PDB_ID>  (885) 
nan

>  <Standardized_SMILES>  (885) 
CCOC1CCN(C(=O)[C@H]2CC[C@H](Nc3nccc(-n4ccc5c(N6CCC(S(C)(=O)=O)CC6)cccc54)n3)CC2)CC1

>  <Name>  (885) 
nan

>  <Pocket>  (885) 
nan

>  <ATP_Site>  (885) 
nan

>  <Peripheral>  (885) 
nan

>  <Num_H_Atoms_ProtBoundConf>  (885) 
nan

>  <Num_Resolved_Atoms>  (885) 
nan

>  <Num_Not_Resolved_Atoms>  (885) 
nan

$$$$
CHEMBL3674702
     RDKit          3D

  0  0  0  0  0  0  0  0  0  0999 V3000
M  V30 BEGIN CTAB
M  V30 COUNTS 77 82 0 0 0
M  V30 BEGIN ATOM
M  V30 1 C 3.085443 2.737935 6.733083 0
M  V30 2 C 4.254780 1.944954 6.302573 0
M  V30 3 O 4.084914 0.841163 6.904230 0
M  V30 4 N 5.453455 1.787023 5.571513 0
M  V30 5 C 6.119188 0.504441 5.685024 0
M  V30 6 C 6.054737 -0.105802 4.279754 0
M  V30 7 N 5.545497 0.879354 3.309846 0
M  V30 8 C 4.425228 0.663483 2.461977 0
M  V30 9 C 3.401114 1.575970 2.678648 0
M  V30 10 C 2.242161 1.497398 1.932828 0
M  V30 11 C 2.078659 0.521693 0.967144 0
M  V30 12 C 3.103676 -0.401621 0.740868 0
M  V30 13 C 4.242407 -0.295392 1.499893 0
M  V30 14 C 5.133322 -1.275314 1.144687 0
M  V30 15 C 4.476311 -1.982151 0.130829 0
M  V30 16 N 3.266517 -1.443690 -0.094184 0
M  V30 17 C 2.295032 -1.867879 -1.042776 0
M  V30 18 C 2.402961 -3.027006 -1.781817 0
M  V30 19 C 1.418827 -3.377939 -2.692444 0
M  V30 20 N 0.323494 -2.604779 -2.890827 0
M  V30 21 C 0.221288 -1.455546 -2.154236 0
M  V30 22 N -0.889640 -0.586713 -2.304292 0
M  V30 23 C -1.972436 -0.802016 -3.204597 0 CFG=1
M  V30 24 C -2.736962 -2.075866 -2.924391 0
M  V30 25 C -3.324348 -1.979675 -1.555942 0
M  V30 26 C -4.252985 -0.836853 -1.386397 0 CFG=2
M  V30 27 C -5.714825 -1.133444 -1.455761 0
M  V30 28 N -6.220660 -1.716510 -2.655915 0
M  V30 29 C -7.707299 -1.659644 -2.513939 0
M  V30 30 C -8.188887 -2.565541 -3.638196 0
M  V30 31 C -7.195804 -3.702214 -3.568437 0 CFG=1
M  V30 32 O -6.705955 -4.018995 -4.824763 0
M  V30 33 C -6.112876 -3.191687 -2.623506 0
M  V30 34 C -3.884643 0.421903 -2.102186 0
M  V30 35 C -2.965368 0.303503 -3.257817 0
M  V30 36 N 1.196609 -1.167006 -1.293638 0
M  V30 37 C 6.358731 2.093331 3.364563 0
M  V30 38 C 6.143069 2.722710 4.705071 0
M  V30 39 H 3.063573 2.912652 7.813810 0
M  V30 40 H 3.114222 3.707933 6.158008 0
M  V30 41 H 2.127230 2.277105 6.430383 0
M  V30 42 H 5.655226 -0.143935 6.424726 0
M  V30 43 H 7.211690 0.676978 5.926882 0
M  V30 44 H 7.073828 -0.349224 3.915940 0
M  V30 45 H 5.388747 -0.984712 4.372389 0
M  V30 46 H 3.430707 2.370249 3.404751 0
M  V30 47 H 1.431007 2.193726 2.078742 0
M  V30 48 H 1.166118 0.486557 0.403255 0
M  V30 49 H 6.122840 -1.475957 1.542651 0
M  V30 50 H 4.825045 -2.824691 -0.417291 0
M  V30 51 H 3.270567 -3.671247 -1.648138 0
M  V30 52 H 1.560197 -4.285171 -3.234486 0
M  V30 53 H -0.946847 0.275762 -1.731679 0
M  V30 54 H -1.524185 -0.867599 -4.238819 0
M  V30 55 H -2.009840 -2.917893 -2.963349 0
M  V30 56 H -3.482966 -2.150023 -3.750622 0
M  V30 57 H -2.438843 -1.824820 -0.863396 0
M  V30 58 H -3.807354 -2.902874 -1.179999 0
M  V30 59 H -4.113462 -0.544335 -0.268941 0
M  V30 60 H -6.041613 -1.829340 -0.622839 0
M  V30 61 H -6.279513 -0.189921 -1.208740 0
M  V30 62 H -8.076561 -0.636585 -2.619458 0
M  V30 63 H -7.950278 -2.160056 -1.565952 0
M  V30 64 H -8.148830 -2.069996 -4.632580 0
M  V30 65 H -9.206357 -2.927130 -3.458031 0
M  V30 66 H -7.662890 -4.625758 -3.146182 0
M  V30 67 H -5.818502 -4.424791 -4.811702 0
M  V30 68 H -6.321494 -3.508113 -1.569693 0
M  V30 69 H -5.173318 -3.579981 -2.984547 0
M  V30 70 H -3.540949 1.240502 -1.403190 0
M  V30 71 H -4.852809 0.847424 -2.511933 0
M  V30 72 H -2.423394 1.288084 -3.354031 0
M  V30 73 H -3.523896 0.222724 -4.230080 0
M  V30 74 H 6.177510 2.748571 2.497014 0
M  V30 75 H 7.421701 1.789928 3.300189 0
M  V30 76 H 5.586986 3.699418 4.636043 0
M  V30 77 H 7.123719 3.021972 5.170102 0
M  V30 END ATOM
M  V30 BEGIN BOND
M  V30 1 1 1 2
M  V30 2 2 2 3
M  V30 3 1 2 4
M  V30 4 1 4 5
M  V30 5 1 5 6
M  V30 6 1 6 7
M  V30 7 1 7 8
M  V30 8 2 8 9
M  V30 9 1 9 10
M  V30 10 2 10 11
M  V30 11 1 11 12
M  V30 12 2 12 13
M  V30 13 1 13 14
M  V30 14 2 14 15
M  V30 15 1 15 16
M  V30 16 1 16 17
M  V30 17 2 17 18
M  V30 18 1 18 19
M  V30 19 2 19 20
M  V30 20 1 20 21
M  V30 21 1 21 22
M  V30 22 1 22 23
M  V30 23 1 23 24
M  V30 24 1 24 25
M  V30 25 1 25 26
M  V30 26 1 26 27
M  V30 27 1 27 28
M  V30 28 1 28 29
M  V30 29 1 29 30
M  V30 30 1 30 31
M  V30 31 1 31 32
M  V30 32 1 31 33
M  V30 33 1 26 34
M  V30 34 1 34 35
M  V30 35 2 21 36
M  V30 36 1 7 37
M  V30 37 1 37 38
M  V30 38 1 38 4
M  V30 39 1 13 8
M  V30 40 1 36 17
M  V30 41 1 16 12
M  V30 42 1 35 23
M  V30 43 1 33 28
M  V30 44 1 1 39
M  V30 45 1 1 40
M  V30 46 1 1 41
M  V30 47 1 5 42
M  V30 48 1 5 43
M  V30 49 1 6 44
M  V30 50 1 6 45
M  V30 51 1 9 46
M  V30 52 1 10 47
M  V30 53 1 11 48
M  V30 54 1 14 49
M  V30 55 1 15 50
M  V30 56 1 18 51
M  V30 57 1 19 52
M  V30 58 1 22 53
M  V30 59 1 23 54 CFG=3
M  V30 60 1 24 55
M  V30 61 1 24 56
M  V30 62 1 25 57
M  V30 63 1 25 58
M  V30 64 1 26 59 CFG=1
M  V30 65 1 27 60
M  V30 66 1 27 61
M  V30 67 1 29 62
M  V30 68 1 29 63
M  V30 69 1 30 64
M  V30 70 1 30 65
M  V30 71 1 31 66 CFG=1
M  V30 72 1 32 67
M  V30 73 1 33 68
M  V30 74 1 33 69
M  V30 75 1 34 70
M  V30 76 1 34 71
M  V30 77 1 35 72
M  V30 78 1 35 73
M  V30 79 1 37 74
M  V30 80 1 37 75
M  V30 81 1 38 76
M  V30 82 1 38 77
M  V30 END BOND
M  V30 END CTAB
M  END
>  <Dataset>  (886) 
ChEMBL_Kinases

>  <Ligand_Instance>  (886) 
nan

>  <PDB_ID>  (886) 
nan

>  <Standardized_SMILES>  (886) 
CC(=O)N1CCN(c2cccc3c2ccn3-c2ccnc(N[C@H]3CC[C@H](CN4CC[C@@H](O)C4)CC3)n2)CC1

>  <Name>  (886) 
nan

>  <Pocket>  (886) 
nan

>  <ATP_Site>  (886) 
nan

>  <Peripheral>  (886) 
nan

>  <Num_H_Atoms_ProtBoundConf>  (886) 
nan

>  <Num_Resolved_Atoms>  (886) 
nan

>  <Num_Not_Resolved_Atoms>  (886) 
nan

$$$$
CHEMBL3674701
     RDKit          3D

  0  0  0  0  0  0  0  0  0  0999 V3000
M  V30 BEGIN CTAB
M  V30 COUNTS 78 83 0 0 0
M  V30 BEGIN ATOM
M  V30 1 N 6.223494 3.316626 3.735574 0
M  V30 2 C 6.135460 4.163500 2.951180 0
M  V30 3 C 6.049185 5.241606 1.958405 0
M  V30 4 C 4.731565 5.864401 1.869074 0
M  V30 5 O 4.933797 6.765956 0.979729 0
M  V30 6 N 3.426383 5.771900 2.423217 0
M  V30 7 C 2.878077 4.880900 3.416691 0
M  V30 8 C 1.455651 4.478157 3.183483 0
M  V30 9 N 0.981949 4.625590 1.836777 0
M  V30 10 C 0.431707 3.631286 0.965071 0
M  V30 11 C 1.091814 3.418008 -0.228934 0
M  V30 12 C 0.592358 2.462122 -1.107832 0
M  V30 13 C -0.542898 1.766316 -0.749216 0
M  V30 14 C -1.237481 1.952579 0.446362 0
M  V30 15 C -0.701675 2.923046 1.301265 0
M  V30 16 C -1.532331 2.954598 2.427105 0
M  V30 17 C -2.490037 2.014766 2.167500 0
M  V30 18 N -2.335632 1.398530 0.984079 0
M  V30 19 C -3.138759 0.383046 0.407733 0
M  V30 20 C -4.487871 0.323026 0.681486 0
M  V30 21 C -5.250148 -0.672108 0.112510 0
M  V30 22 N -4.643040 -1.548075 -0.690802 0
M  V30 23 C -3.337885 -1.517741 -0.976537 0
M  V30 24 N -2.684343 -2.444500 -1.827199 0
M  V30 25 C -3.255266 -3.570485 -2.523698 0 CFG=1
M  V30 26 C -2.263912 -4.295669 -3.390999 0
M  V30 27 C -1.873694 -5.625970 -2.799798 0
M  V30 28 C -1.852001 -5.482670 -1.297735 0 CFG=2
M  V30 29 C -1.057518 -6.578697 -0.623430 0
M  V30 30 N 0.316832 -6.593280 -1.050844 0
M  V30 31 C 1.111884 -7.630433 -0.421906 0
M  V30 32 C 2.506632 -7.301043 -0.872885 0
M  V30 33 C 2.458680 -5.797040 -1.042985 0 CFG=2
M  V30 34 O 3.358678 -5.122322 -0.245218 0
M  V30 35 C 1.034226 -5.398759 -0.646517 0
M  V30 36 C -3.270276 -5.451467 -0.833002 0
M  V30 37 C -4.062262 -4.485475 -1.660229 0
M  V30 38 N -2.624460 -0.535396 -0.405504 0
M  V30 39 C 1.156841 6.017844 1.468668 0
M  V30 40 C 2.412011 6.653540 2.007832 0
M  V30 41 H 6.856886 5.965591 2.263348 0
M  V30 42 H 6.416105 4.800148 1.005771 0
M  V30 43 H 3.567038 4.007347 3.408784 0
M  V30 44 H 3.037246 5.370737 4.400017 0
M  V30 45 H 1.392989 3.405058 3.455145 0
M  V30 46 H 0.820391 5.116436 3.831425 0
M  V30 47 H 1.983819 3.928840 -0.566160 0
M  V30 48 H 1.021685 2.199208 -2.082344 0
M  V30 49 H -0.959262 1.007830 -1.419853 0
M  V30 50 H -1.373530 3.600671 3.251933 0
M  V30 51 H -3.283663 1.818038 2.880466 0
M  V30 52 H -4.960952 1.043586 1.335710 0
M  V30 53 H -6.321560 -0.719540 0.330404 0
M  V30 54 H -1.642638 -2.317549 -1.992617 0
M  V30 55 H -3.996507 -3.114687 -3.248416 0
M  V30 56 H -2.639240 -4.469353 -4.433311 0
M  V30 57 H -1.362582 -3.626217 -3.501816 0
M  V30 58 H -0.895283 -5.981678 -3.191093 0
M  V30 59 H -2.672790 -6.367751 -3.076413 0
M  V30 60 H -1.411660 -4.502010 -1.048520 0
M  V30 61 H -1.142580 -6.429640 0.470567 0
M  V30 62 H -1.517205 -7.562157 -0.834199 0
M  V30 63 H 1.063056 -7.418552 0.662793 0
M  V30 64 H 0.799399 -8.654817 -0.680776 0
M  V30 65 H 3.267269 -7.579014 -0.099132 0
M  V30 66 H 2.687606 -7.820148 -1.833179 0
M  V30 67 H 2.592383 -5.523096 -2.119359 0
M  V30 68 H 2.963687 -4.286770 0.145157 0
M  V30 69 H 1.060787 -5.281711 0.458367 0
M  V30 70 H 0.700305 -4.506484 -1.194705 0
M  V30 71 H -3.361821 -5.276727 0.268780 0
M  V30 72 H -3.712212 -6.469262 -0.987132 0
M  V30 73 H -4.790267 -5.024719 -2.331041 0
M  V30 74 H -4.702554 -3.868533 -1.001558 0
M  V30 75 H 0.254659 6.611707 1.756572 0
M  V30 76 H 1.241542 6.150225 0.368555 0
M  V30 77 H 2.082561 7.245572 2.912648 0
M  V30 78 H 2.826008 7.422739 1.328623 0
M  V30 END ATOM
M  V30 BEGIN BOND
M  V30 1 3 1 2
M  V30 2 1 2 3
M  V30 3 1 3 4
M  V30 4 2 4 5
M  V30 5 1 4 6
M  V30 6 1 6 7
M  V30 7 1 7 8
M  V30 8 1 8 9
M  V30 9 1 9 10
M  V30 10 2 10 11
M  V30 11 1 11 12
M  V30 12 2 12 13
M  V30 13 1 13 14
M  V30 14 2 14 15
M  V30 15 1 15 16
M  V30 16 2 16 17
M  V30 17 1 17 18
M  V30 18 1 18 19
M  V30 19 2 19 20
M  V30 20 1 20 21
M  V30 21 2 21 22
M  V30 22 1 22 23
M  V30 23 1 23 24
M  V30 24 1 24 25
M  V30 25 1 25 26
M  V30 26 1 26 27
M  V30 27 1 27 28
M  V30 28 1 28 29
M  V30 29 1 29 30
M  V30 30 1 30 31
M  V30 31 1 31 32
M  V30 32 1 32 33
M  V30 33 1 33 34
M  V30 34 1 33 35
M  V30 35 1 28 36
M  V30 36 1 36 37
M  V30 37 2 23 38
M  V30 38 1 9 39
M  V30 39 1 39 40
M  V30 40 1 40 6
M  V30 41 1 15 10
M  V30 42 1 38 19
M  V30 43 1 18 14
M  V30 44 1 37 25
M  V30 45 1 35 30
M  V30 46 1 3 41
M  V30 47 1 3 42
M  V30 48 1 7 43
M  V30 49 1 7 44
M  V30 50 1 8 45
M  V30 51 1 8 46
M  V30 52 1 11 47
M  V30 53 1 12 48
M  V30 54 1 13 49
M  V30 55 1 16 50
M  V30 56 1 17 51
M  V30 57 1 20 52
M  V30 58 1 21 53
M  V30 59 1 24 54
M  V30 60 1 25 55 CFG=3
M  V30 61 1 26 56
M  V30 62 1 26 57
M  V30 63 1 27 58
M  V30 64 1 27 59
M  V30 65 1 28 60 CFG=3
M  V30 66 1 29 61
M  V30 67 1 29 62
M  V30 68 1 31 63
M  V30 69 1 31 64
M  V30 70 1 32 65
M  V30 71 1 32 66
M  V30 72 1 33 67 CFG=3
M  V30 73 1 34 68
M  V30 74 1 35 69
M  V30 75 1 35 70
M  V30 76 1 36 71
M  V30 77 1 36 72
M  V30 78 1 37 73
M  V30 79 1 37 74
M  V30 80 1 39 75
M  V30 81 1 39 76
M  V30 82 1 40 77
M  V30 83 1 40 78
M  V30 END BOND
M  V30 END CTAB
M  END
>  <Dataset>  (887) 
ChEMBL_Kinases

>  <Ligand_Instance>  (887) 
nan

>  <PDB_ID>  (887) 
nan

>  <Standardized_SMILES>  (887) 
N#CCC(=O)N1CCN(c2cccc3c2ccn3-c2ccnc(N[C@H]3CC[C@H](CN4CC[C@H](O)C4)CC3)n2)CC1

>  <Name>  (887) 
nan

>  <Pocket>  (887) 
nan

>  <ATP_Site>  (887) 
nan

>  <Peripheral>  (887) 
nan

>  <Num_H_Atoms_ProtBoundConf>  (887) 
nan

>  <Num_Resolved_Atoms>  (887) 
nan

>  <Num_Not_Resolved_Atoms>  (887) 
nan

$$$$
CHEMBL3674700
     RDKit          3D

  0  0  0  0  0  0  0  0  0  0999 V3000
M  V30 BEGIN CTAB
M  V30 COUNTS 66 70 0 0 0
M  V30 BEGIN ATOM
M  V30 1 N 3.964524 -2.013554 6.803084 0
M  V30 2 C 3.298226 -1.754255 5.889623 0
M  V30 3 C 2.442952 -1.445699 4.734194 0
M  V30 4 C 3.264467 -0.766002 3.716822 0
M  V30 5 O 4.000648 -1.554342 3.062468 0
M  V30 6 N 3.250012 0.651699 3.472298 0
M  V30 7 C 2.439953 1.624456 4.172130 0
M  V30 8 C 2.146460 2.764154 3.273014 0
M  V30 9 N 2.066017 2.338022 1.915746 0
M  V30 10 C 1.009284 2.273544 0.983777 0
M  V30 11 C 1.259912 3.099382 -0.117592 0
M  V30 12 C 0.331054 3.182175 -1.158551 0
M  V30 13 C -0.844029 2.471585 -1.146650 0
M  V30 14 C -1.082700 1.656557 -0.050994 0
M  V30 15 C -0.175898 1.574200 0.967910 0
M  V30 16 C -0.582588 0.715630 1.965567 0
M  V30 17 C -1.818367 0.250326 1.514426 0
M  V30 18 N -2.085494 0.830685 0.310779 0
M  V30 19 C -3.253055 0.616141 -0.484333 0
M  V30 20 C -4.367162 1.404379 -0.689483 0
M  V30 21 C -5.353471 0.927830 -1.527008 0
M  V30 22 N -5.223701 -0.270089 -2.120637 0
M  V30 23 C -4.146123 -1.053347 -1.933724 0
M  V30 24 N -4.024414 -2.333784 -2.579269 0
M  V30 25 C -2.830987 -3.104736 -2.318459 0 CFG=1
M  V30 26 C -1.575560 -2.376947 -2.734942 0
M  V30 27 C -0.453054 -3.419791 -2.726844 0
M  V30 28 C -0.288538 -4.005259 -1.342394 0 CFG=2
M  V30 29 C 0.704125 -5.142625 -1.438746 0
M  V30 30 O 0.919034 -5.746998 -0.200116 0
M  V30 31 C -1.590654 -4.564333 -0.812258 0
M  V30 32 C -2.681502 -3.489365 -0.882109 0
M  V30 33 N -3.198103 -0.583625 -1.122289 0
M  V30 34 C 3.348917 1.876580 1.356717 0
M  V30 35 C 4.139182 1.142873 2.424583 0
M  V30 36 H 2.067986 -2.422525 4.341937 0
M  V30 37 H 1.535267 -0.893589 5.031880 0
M  V30 38 H 1.514798 1.068825 4.509837 0
M  V30 39 H 2.913760 1.931633 5.136490 0
M  V30 40 H 3.041712 3.454765 3.329202 0
M  V30 41 H 1.302457 3.402891 3.596508 0
M  V30 42 H 2.123715 3.729826 -0.305133 0
M  V30 43 H 0.463334 3.802195 -2.036176 0
M  V30 44 H -1.585832 2.510338 -1.932709 0
M  V30 45 H -0.089773 0.442932 2.886644 0
M  V30 46 H -2.455489 -0.456797 2.041592 0
M  V30 47 H -4.303525 2.331600 -0.135157 0
M  V30 48 H -6.191316 1.594291 -1.639372 0
M  V30 49 H -4.795940 -2.638748 -3.196133 0
M  V30 50 H -2.887033 -4.030781 -2.932292 0
M  V30 51 H -1.246858 -1.634552 -1.980738 0
M  V30 52 H -1.616597 -1.968278 -3.755172 0
M  V30 53 H 0.474746 -2.803511 -2.898301 0
M  V30 54 H -0.617681 -4.190208 -3.481738 0
M  V30 55 H 0.130376 -3.273778 -0.645649 0
M  V30 56 H 0.280422 -5.870550 -2.136017 0
M  V30 57 H 1.661836 -4.773515 -1.881176 0
M  V30 58 H 1.329202 -5.139939 0.450591 0
M  V30 59 H -1.414568 -4.902404 0.212023 0
M  V30 60 H -1.909084 -5.371862 -1.504219 0
M  V30 61 H -3.602490 -3.890998 -0.426320 0
M  V30 62 H -2.249749 -2.619800 -0.336712 0
M  V30 63 H 3.242861 1.294744 0.440320 0
M  V30 64 H 3.922186 2.793459 1.106437 0
M  V30 65 H 4.820359 1.851952 2.940168 0
M  V30 66 H 4.688333 0.322617 1.939884 0
M  V30 END ATOM
M  V30 BEGIN BOND
M  V30 1 3 1 2
M  V30 2 1 2 3
M  V30 3 1 3 4
M  V30 4 2 4 5
M  V30 5 1 4 6
M  V30 6 1 6 7
M  V30 7 1 7 8
M  V30 8 1 8 9
M  V30 9 1 9 10
M  V30 10 2 10 11
M  V30 11 1 11 12
M  V30 12 2 12 13
M  V30 13 1 13 14
M  V30 14 2 14 15
M  V30 15 1 15 16
M  V30 16 2 16 17
M  V30 17 1 17 18
M  V30 18 1 18 19
M  V30 19 2 19 20
M  V30 20 1 20 21
M  V30 21 2 21 22
M  V30 22 1 22 23
M  V30 23 1 23 24
M  V30 24 1 24 25
M  V30 25 1 25 26
M  V30 26 1 26 27
M  V30 27 1 27 28
M  V30 28 1 28 29
M  V30 29 1 29 30
M  V30 30 1 28 31
M  V30 31 1 31 32
M  V30 32 2 23 33
M  V30 33 1 9 34
M  V30 34 1 34 35
M  V30 35 1 35 6
M  V30 36 1 15 10
M  V30 37 1 33 19
M  V30 38 1 18 14
M  V30 39 1 32 25
M  V30 40 1 3 36
M  V30 41 1 3 37
M  V30 42 1 7 38
M  V30 43 1 7 39
M  V30 44 1 8 40
M  V30 45 1 8 41
M  V30 46 1 11 42
M  V30 47 1 12 43
M  V30 48 1 13 44
M  V30 49 1 16 45
M  V30 50 1 17 46
M  V30 51 1 20 47
M  V30 52 1 21 48
M  V30 53 1 24 49
M  V30 54 1 25 50 CFG=3
M  V30 55 1 26 51
M  V30 56 1 26 52
M  V30 57 1 27 53
M  V30 58 1 27 54
M  V30 59 1 28 55 CFG=1
M  V30 60 1 29 56
M  V30 61 1 29 57
M  V30 62 1 30 58
M  V30 63 1 31 59
M  V30 64 1 31 60
M  V30 65 1 32 61
M  V30 66 1 32 62
M  V30 67 1 34 63
M  V30 68 1 34 64
M  V30 69 1 35 65
M  V30 70 1 35 66
M  V30 END BOND
M  V30 END CTAB
M  END
>  <Dataset>  (888) 
ChEMBL_Kinases

>  <Ligand_Instance>  (888) 
nan

>  <PDB_ID>  (888) 
nan

>  <Standardized_SMILES>  (888) 
N#CCC(=O)N1CCN(c2cccc3c2ccn3-c2ccnc(N[C@H]3CC[C@H](CO)CC3)n2)CC1

>  <Name>  (888) 
nan

>  <Pocket>  (888) 
nan

>  <ATP_Site>  (888) 
nan

>  <Peripheral>  (888) 
nan

>  <Num_H_Atoms_ProtBoundConf>  (888) 
nan

>  <Num_Resolved_Atoms>  (888) 
nan

>  <Num_Not_Resolved_Atoms>  (888) 
nan

$$$$
CHEMBL3674699
     RDKit          3D

  0  0  0  0  0  0  0  0  0  0999 V3000
M  V30 BEGIN CTAB
M  V30 COUNTS 84 88 0 0 0
M  V30 BEGIN ATOM
M  V30 1 C 1.595652 -4.649719 3.096300 0
M  V30 2 N 2.357140 -4.069671 1.998593 0
M  V30 3 C 2.231382 -5.006874 0.892978 0
M  V30 4 C 1.847134 -2.817438 1.576262 0
M  V30 5 C 2.017820 -1.650165 2.504618 0
M  V30 6 N 3.340054 -1.299374 2.747383 0
M  V30 7 C 3.890872 -0.144568 2.133879 0 CFG=1
M  V30 8 C 4.562288 -0.423198 0.781789 0
M  V30 9 C 5.017901 0.973262 0.326438 0
M  V30 10 C 3.766872 1.587647 -0.281446 0 CFG=2
M  V30 11 N 3.982882 2.978310 -0.662754 0
M  V30 12 C 2.859095 3.637509 -1.278509 0
M  V30 13 N 2.938672 4.938343 -1.671395 0
M  V30 14 C 1.891932 5.549840 -2.247898 0
M  V30 15 C 0.698017 4.898716 -2.468498 0
M  V30 16 C 0.610972 3.581443 -2.073149 0
M  V30 17 N -0.460408 2.647147 -2.159442 0
M  V30 18 C -0.465260 1.757299 -3.169524 0
M  V30 19 C -1.564520 0.936355 -3.092633 0
M  V30 20 C -2.233588 1.387835 -1.961151 0
M  V30 21 C -3.400889 0.969555 -1.358133 0
M  V30 22 N -4.192127 -0.098543 -1.840847 0
M  V30 23 C -3.592202 -1.442830 -1.968601 0
M  V30 24 C -4.450944 -2.471990 -1.274421 0
M  V30 25 N -5.780869 -2.339914 -1.814265 0
M  V30 26 C -6.820637 -3.252314 -1.458954 0
M  V30 27 O -7.997288 -3.115379 -1.947871 0
M  V30 28 C -6.958378 -4.430330 -0.606922 0
M  V30 29 C -5.690537 -4.769635 0.067445 0
M  V30 30 N -4.689812 -5.054123 0.616420 0
M  V30 31 C -6.129966 -1.284352 -2.742228 0
M  V30 32 C -5.551324 0.012420 -2.217356 0
M  V30 33 C -3.861726 1.606710 -0.203885 0
M  V30 34 C -3.124956 2.666843 0.324766 0
M  V30 35 C -1.935001 3.116641 -0.262778 0
M  V30 36 C -1.550118 2.433855 -1.398522 0
M  V30 37 N 1.701344 3.039746 -1.503443 0
M  V30 38 C 2.590935 1.446159 0.661550 0
M  V30 39 C 3.020725 1.061096 2.059604 0
M  V30 40 S 4.161306 -1.752100 4.131663 0
M  V30 41 C 4.387480 -3.459990 4.427562 0
M  V30 42 O 5.566936 -1.143299 4.046689 0
M  V30 43 O 3.486090 -1.174371 5.362734 0
M  V30 44 H 1.423818 -3.908111 3.911646 0
M  V30 45 H 2.221946 -5.455067 3.533904 0
M  V30 46 H 0.650866 -5.122048 2.751581 0
M  V30 47 H 1.280573 -4.868248 0.327580 0
M  V30 48 H 2.167710 -6.065292 1.272826 0
M  V30 49 H 3.058889 -4.949082 0.167830 0
M  V30 50 H 2.326145 -2.586612 0.580064 0
M  V30 51 H 0.767781 -2.975795 1.308659 0
M  V30 52 H 1.453960 -1.814402 3.464809 0
M  V30 53 H 1.499725 -0.793279 1.990933 0
M  V30 54 H 4.772242 0.153822 2.785400 0
M  V30 55 H 3.865865 -0.829955 0.039852 0
M  V30 56 H 5.477648 -1.009051 0.933064 0
M  V30 57 H 5.792215 0.847078 -0.446556 0
M  V30 58 H 5.357782 1.573753 1.177719 0
M  V30 59 H 3.533677 0.987078 -1.185036 0
M  V30 60 H 4.854936 3.540790 -0.538809 0
M  V30 61 H 1.899918 6.578541 -2.578278 0
M  V30 62 H -0.221118 5.253793 -2.916107 0
M  V30 63 H 0.245905 1.614621 -3.987290 0
M  V30 64 H -1.884699 0.131389 -3.715072 0
M  V30 65 H -3.538950 -1.643703 -3.056722 0
M  V30 66 H -2.585898 -1.502475 -1.557497 0
M  V30 67 H -4.406255 -2.407958 -0.187457 0
M  V30 68 H -4.053996 -3.460108 -1.582776 0
M  V30 69 H -7.747755 -4.326334 0.187337 0
M  V30 70 H -7.257731 -5.328090 -1.221225 0
M  V30 71 H -7.215156 -1.211028 -2.908427 0
M  V30 72 H -5.619657 -1.512929 -3.722193 0
M  V30 73 H -6.226079 0.248585 -1.344330 0
M  V30 74 H -5.737460 0.716279 -3.070957 0
M  V30 75 H -4.776090 1.311578 0.305426 0
M  V30 76 H -3.457830 3.188754 1.228201 0
M  V30 77 H -1.368782 3.926221 0.138393 0
M  V30 78 H 2.140386 2.463897 0.759224 0
M  V30 79 H 1.790234 0.804907 0.244803 0
M  V30 80 H 3.542788 1.987896 2.453541 0
M  V30 81 H 2.100964 1.007819 2.677908 0
M  V30 82 H 3.541697 -3.830992 5.046069 0
M  V30 83 H 4.645534 -4.072945 3.566300 0
M  V30 84 H 5.277570 -3.553018 5.123947 0
M  V30 END ATOM
M  V30 BEGIN BOND
M  V30 1 1 1 2
M  V30 2 1 2 3
M  V30 3 1 2 4
M  V30 4 1 4 5
M  V30 5 1 5 6
M  V30 6 1 6 7
M  V30 7 1 7 8
M  V30 8 1 8 9
M  V30 9 1 9 10
M  V30 10 1 10 11
M  V30 11 1 11 12
M  V30 12 2 12 13
M  V30 13 1 13 14
M  V30 14 2 14 15
M  V30 15 1 15 16
M  V30 16 1 16 17
M  V30 17 1 17 18
M  V30 18 2 18 19
M  V30 19 1 19 20
M  V30 20 2 20 21
M  V30 21 1 21 22
M  V30 22 1 22 23
M  V30 23 1 23 24
M  V30 24 1 24 25
M  V30 25 1 25 26
M  V30 26 2 26 27
M  V30 27 1 26 28
M  V30 28 1 28 29
M  V30 29 3 29 30
M  V30 30 1 25 31
M  V30 31 1 31 32
M  V30 32 1 21 33
M  V30 33 2 33 34
M  V30 34 1 34 35
M  V30 35 2 35 36
M  V30 36 2 16 37
M  V30 37 1 10 38
M  V30 38 1 38 39
M  V30 39 1 6 40
M  V30 40 1 40 41
M  V30 41 2 40 42
M  V30 42 2 40 43
M  V30 43 1 39 7
M  V30 44 1 37 12
M  V30 45 1 36 17
M  V30 46 1 36 20
M  V30 47 1 32 22
M  V30 48 1 1 44
M  V30 49 1 1 45
M  V30 50 1 1 46
M  V30 51 1 3 47
M  V30 52 1 3 48
M  V30 53 1 3 49
M  V30 54 1 4 50
M  V30 55 1 4 51
M  V30 56 1 5 52
M  V30 57 1 5 53
M  V30 58 1 7 54 CFG=1
M  V30 59 1 8 55
M  V30 60 1 8 56
M  V30 61 1 9 57
M  V30 62 1 9 58
M  V30 63 1 10 59 CFG=3
M  V30 64 1 11 60
M  V30 65 1 14 61
M  V30 66 1 15 62
M  V30 67 1 18 63
M  V30 68 1 19 64
M  V30 69 1 23 65
M  V30 70 1 23 66
M  V30 71 1 24 67
M  V30 72 1 24 68
M  V30 73 1 28 69
M  V30 74 1 28 70
M  V30 75 1 31 71
M  V30 76 1 31 72
M  V30 77 1 32 73
M  V30 78 1 32 74
M  V30 79 1 33 75
M  V30 80 1 34 76
M  V30 81 1 35 77
M  V30 82 1 38 78
M  V30 83 1 38 79
M  V30 84 1 39 80
M  V30 85 1 39 81
M  V30 86 1 41 82
M  V30 87 1 41 83
M  V30 88 1 41 84
M  V30 END BOND
M  V30 END CTAB
M  END
>  <Dataset>  (889) 
ChEMBL_Kinases

>  <Ligand_Instance>  (889) 
nan

>  <PDB_ID>  (889) 
nan

>  <Standardized_SMILES>  (889) 
CN(C)CCN([C@H]1CC[C@H](Nc2nccc(-n3ccc4c(N5CCN(C(=O)CC#N)CC5)cccc43)n2)CC1)S(C)(=O)=O

>  <Name>  (889) 
nan

>  <Pocket>  (889) 
nan

>  <ATP_Site>  (889) 
nan

>  <Peripheral>  (889) 
nan

>  <Num_H_Atoms_ProtBoundConf>  (889) 
nan

>  <Num_Resolved_Atoms>  (889) 
nan

>  <Num_Not_Resolved_Atoms>  (889) 
nan

$$$$
CHEMBL3674698
     RDKit          3D

  0  0  0  0  0  0  0  0  0  0999 V3000
M  V30 BEGIN CTAB
M  V30 COUNTS 78 83 0 0 0
M  V30 BEGIN ATOM
M  V30 1 N 3.946524 2.604995 5.768030 0
M  V30 2 C 4.634739 2.988863 4.905604 0
M  V30 3 C 5.512901 3.460479 3.844345 0
M  V30 4 C 4.833349 4.264718 2.834144 0
M  V30 5 O 5.725264 4.546190 1.958393 0
M  V30 6 N 3.486400 4.749945 2.657340 0
M  V30 7 C 2.438275 4.475232 3.600315 0
M  V30 8 C 1.156218 5.082458 3.158871 0
M  V30 9 N 0.901290 4.738528 1.788124 0
M  V30 10 C -0.179060 4.094729 1.106043 0
M  V30 11 C -0.811949 4.843976 0.105978 0
M  V30 12 C -1.875990 4.385459 -0.663797 0
M  V30 13 C -2.315626 3.104428 -0.402908 0
M  V30 14 C -1.726446 2.347718 0.559318 0
M  V30 15 C -0.680745 2.826626 1.301107 0
M  V30 16 C -0.262684 1.894202 2.193953 0
M  V30 17 C -1.061637 0.783866 2.021892 0
M  V30 18 N -1.916916 1.105986 1.036401 0
M  V30 19 C -2.901899 0.148047 0.600539 0
M  V30 20 C -4.197233 -0.005602 1.044800 0
M  V30 21 C -4.968154 -0.997657 0.484113 0
M  V30 22 N -4.463946 -1.778534 -0.459057 0
M  V30 23 C -3.207035 -1.649516 -0.908525 0
M  V30 24 N -2.637815 -2.472820 -1.918820 0
M  V30 25 C -3.256210 -3.566501 -2.622610 0 CFG=1
M  V30 26 C -2.361848 -4.167728 -3.666236 0
M  V30 27 C -1.515507 -5.305757 -3.164221 0
M  V30 28 C -1.632215 -5.378895 -1.679158 0 CFG=2
M  V30 29 C -0.639950 -6.414077 -1.188019 0
M  V30 30 N 0.670316 -5.942681 -1.603000 0
M  V30 31 C 1.722351 -6.853508 -1.220575 0
M  V30 32 C 2.819841 -6.050371 -0.565637 0
M  V30 33 C 2.472752 -4.625759 -0.883954 0 CFG=1
M  V30 34 O 3.011890 -4.195886 -2.087115 0
M  V30 35 C 0.985956 -4.665456 -1.000208 0
M  V30 36 C -3.044792 -5.721182 -1.316599 0
M  V30 37 C -3.930056 -4.580314 -1.760036 0
M  V30 38 N -2.462907 -0.679011 -0.355445 0
M  V30 39 C 1.927265 5.103687 0.799789 0
M  V30 40 C 3.201574 5.527369 1.494975 0
M  V30 41 H 6.361213 4.070772 4.276064 0
M  V30 42 H 5.992385 2.538652 3.422845 0
M  V30 43 H 2.330365 3.361140 3.612901 0
M  V30 44 H 2.715798 4.833634 4.635389 0
M  V30 45 H 1.304334 6.201477 3.204551 0
M  V30 46 H 0.303113 4.885523 3.827148 0
M  V30 47 H -0.462067 5.866082 -0.103073 0
M  V30 48 H -2.309771 5.027858 -1.417230 0
M  V30 49 H -3.142186 2.688348 -0.969040 0
M  V30 50 H 0.535340 1.969750 2.914564 0
M  V30 51 H -0.974659 -0.127141 2.588088 0
M  V30 52 H -4.481591 0.696927 1.816578 0
M  V30 53 H -5.967476 -1.055173 0.882997 0
M  V30 54 H -1.636844 -2.269709 -2.206328 0
M  V30 55 H -4.093792 -3.078262 -3.217274 0
M  V30 56 H -2.919701 -4.450584 -4.591155 0
M  V30 57 H -1.649896 -3.341039 -3.962900 0
M  V30 58 H -0.425564 -5.145695 -3.405840 0
M  V30 59 H -1.835987 -6.281696 -3.626828 0
M  V30 60 H -1.308502 -4.416418 -1.243857 0
M  V30 61 H -0.813437 -7.396235 -1.634375 0
M  V30 62 H -0.744409 -6.482803 -0.094156 0
M  V30 63 H 2.145813 -7.238777 -2.189941 0
M  V30 64 H 1.379068 -7.704645 -0.632654 0
M  V30 65 H 2.781061 -6.191260 0.530514 0
M  V30 66 H 3.824830 -6.321474 -0.984778 0
M  V30 67 H 2.747794 -3.923587 -0.069305 0
M  V30 68 H 3.220349 -3.223263 -2.033289 0
M  V30 69 H 0.445412 -4.514392 -0.033783 0
M  V30 70 H 0.681642 -3.872719 -1.712576 0
M  V30 71 H -3.206021 -5.911375 -0.256736 0
M  V30 72 H -3.319493 -6.647482 -1.865855 0
M  V30 73 H -4.792349 -5.014328 -2.348924 0
M  V30 74 H -4.408194 -4.072642 -0.912154 0
M  V30 75 H 1.531942 6.009969 0.284266 0
M  V30 76 H 2.090759 4.336586 0.040673 0
M  V30 77 H 3.219856 6.601420 1.773452 0
M  V30 78 H 4.019429 5.415847 0.725783 0
M  V30 END ATOM
M  V30 BEGIN BOND
M  V30 1 3 1 2
M  V30 2 1 2 3
M  V30 3 1 3 4
M  V30 4 2 4 5
M  V30 5 1 4 6
M  V30 6 1 6 7
M  V30 7 1 7 8
M  V30 8 1 8 9
M  V30 9 1 9 10
M  V30 10 2 10 11
M  V30 11 1 11 12
M  V30 12 2 12 13
M  V30 13 1 13 14
M  V30 14 2 14 15
M  V30 15 1 15 16
M  V30 16 2 16 17
M  V30 17 1 17 18
M  V30 18 1 18 19
M  V30 19 2 19 20
M  V30 20 1 20 21
M  V30 21 2 21 22
M  V30 22 1 22 23
M  V30 23 1 23 24
M  V30 24 1 24 25
M  V30 25 1 25 26
M  V30 26 1 26 27
M  V30 27 1 27 28
M  V30 28 1 28 29
M  V30 29 1 29 30
M  V30 30 1 30 31
M  V30 31 1 31 32
M  V30 32 1 32 33
M  V30 33 1 33 34
M  V30 34 1 33 35
M  V30 35 1 28 36
M  V30 36 1 36 37
M  V30 37 2 23 38
M  V30 38 1 9 39
M  V30 39 1 39 40
M  V30 40 1 40 6
M  V30 41 1 15 10
M  V30 42 1 38 19
M  V30 43 1 18 14
M  V30 44 1 37 25
M  V30 45 1 35 30
M  V30 46 1 3 41
M  V30 47 1 3 42
M  V30 48 1 7 43
M  V30 49 1 7 44
M  V30 50 1 8 45
M  V30 51 1 8 46
M  V30 52 1 11 47
M  V30 53 1 12 48
M  V30 54 1 13 49
M  V30 55 1 16 50
M  V30 56 1 17 51
M  V30 57 1 20 52
M  V30 58 1 21 53
M  V30 59 1 24 54
M  V30 60 1 25 55 CFG=3
M  V30 61 1 26 56
M  V30 62 1 26 57
M  V30 63 1 27 58
M  V30 64 1 27 59
M  V30 65 1 28 60 CFG=1
M  V30 66 1 29 61
M  V30 67 1 29 62
M  V30 68 1 31 63
M  V30 69 1 31 64
M  V30 70 1 32 65
M  V30 71 1 32 66
M  V30 72 1 33 67 CFG=1
M  V30 73 1 34 68
M  V30 74 1 35 69
M  V30 75 1 35 70
M  V30 76 1 36 71
M  V30 77 1 36 72
M  V30 78 1 37 73
M  V30 79 1 37 74
M  V30 80 1 39 75
M  V30 81 1 39 76
M  V30 82 1 40 77
M  V30 83 1 40 78
M  V30 END BOND
M  V30 END CTAB
M  END
>  <Dataset>  (890) 
ChEMBL_Kinases

>  <Ligand_Instance>  (890) 
nan

>  <PDB_ID>  (890) 
nan

>  <Standardized_SMILES>  (890) 
N#CCC(=O)N1CCN(c2cccc3c2ccn3-c2ccnc(N[C@H]3CC[C@H](CN4CC[C@@H](O)C4)CC3)n2)CC1

>  <Name>  (890) 
nan

>  <Pocket>  (890) 
nan

>  <ATP_Site>  (890) 
nan

>  <Peripheral>  (890) 
nan

>  <Num_H_Atoms_ProtBoundConf>  (890) 
nan

>  <Num_Resolved_Atoms>  (890) 
nan

>  <Num_Not_Resolved_Atoms>  (890) 
nan

$$$$
CHEMBL3674697
     RDKit          3D

  0  0  0  0  0  0  0  0  0  0999 V3000
M  V30 BEGIN CTAB
M  V30 COUNTS 71 75 0 0 0
M  V30 BEGIN ATOM
M  V30 1 C 4.113065 -1.872803 4.723145 0
M  V30 2 S 5.359907 -0.693657 4.253542 0
M  V30 3 O 5.707756 0.126047 5.446304 0
M  V30 4 O 6.591396 -1.461800 3.857265 0
M  V30 5 N 4.856784 0.309742 2.993180 0
M  V30 6 C 4.541756 -0.292965 1.755113 0 CFG=1
M  V30 7 C 3.084154 -0.137103 1.359025 0
M  V30 8 C 3.035861 0.461182 -0.058089 0
M  V30 9 C 3.624952 1.849465 0.094518 0 CFG=2
M  V30 10 N 3.351689 2.716967 -1.027554 0
M  V30 11 C 2.052937 3.031311 -1.509246 0
M  V30 12 N 1.905762 3.868568 -2.534870 0
M  V30 13 C 0.639347 4.124206 -2.962715 0
M  V30 14 C -0.493099 3.567400 -2.395864 0
M  V30 15 C -0.300699 2.693472 -1.323122 0
M  V30 16 N -1.359163 2.018854 -0.632704 0
M  V30 17 C -2.355066 2.337083 0.207763 0
M  V30 18 C -3.099302 1.264912 0.568481 0
M  V30 19 C -2.519482 0.198102 -0.101088 0
M  V30 20 C -2.867417 -1.148855 -0.109530 0
M  V30 21 N -3.949130 -1.690146 0.631289 0
M  V30 22 C -5.350747 -1.247500 0.550203 0
M  V30 23 C -6.239554 -2.433543 0.229007 0
M  V30 24 N -5.429547 -3.606693 -0.043699 0
M  V30 25 C -5.525729 -4.206389 -1.319466 0
M  V30 26 O -6.365321 -3.539909 -1.976957 0
M  V30 27 C -5.051204 -5.281090 -2.188835 0
M  V30 28 N -4.072745 -6.158366 -1.594404 0
M  V30 29 C -4.643042 -3.941785 1.116200 0
M  V30 30 C -3.877594 -2.768859 1.586635 0
M  V30 31 C -2.112306 -2.003486 -0.876130 0
M  V30 32 C -1.038563 -1.621970 -1.633455 0
M  V30 33 C -0.730353 -0.276865 -1.594316 0
M  V30 34 C -1.434834 0.677634 -0.847471 0
M  V30 35 N 0.979840 2.495788 -0.963265 0
M  V30 36 C 5.116721 1.657927 0.293270 0
M  V30 37 C 5.479693 0.250762 0.704280 0
M  V30 38 H 3.207616 -1.321383 5.077406 0
M  V30 39 H 3.776364 -2.419102 3.815110 0
M  V30 40 H 4.437078 -2.522908 5.541508 0
M  V30 41 H 4.668680 1.275925 3.154309 0
M  V30 42 H 4.718564 -1.403518 1.822734 0
M  V30 43 H 2.539803 -1.100456 1.347455 0
M  V30 44 H 2.559355 0.530438 2.069539 0
M  V30 45 H 2.005081 0.440145 -0.401548 0
M  V30 46 H 3.683066 -0.190409 -0.681642 0
M  V30 47 H 3.170350 2.262437 1.037193 0
M  V30 48 H 4.199068 3.140117 -1.513091 0
M  V30 49 H 0.462669 4.803996 -3.803032 0
M  V30 50 H -1.496181 3.742305 -2.698115 0
M  V30 51 H -2.440942 3.374231 0.487056 0
M  V30 52 H -3.946354 1.255552 1.230116 0
M  V30 53 H -5.686380 -0.771742 1.489516 0
M  V30 54 H -5.502699 -0.519812 -0.263498 0
M  V30 55 H -6.818516 -2.193359 -0.675568 0
M  V30 56 H -6.943153 -2.567175 1.046223 0
M  V30 57 H -5.878386 -5.942702 -2.550682 0
M  V30 58 H -4.569099 -4.887043 -3.122930 0
M  V30 59 H -4.432525 -6.619123 -0.722846 0
M  V30 60 H -3.916815 -6.921868 -2.313604 0
M  V30 61 H -5.385972 -4.279626 1.888288 0
M  V30 62 H -4.016394 -4.846570 0.936388 0
M  V30 63 H -2.770592 -3.020833 1.642669 0
M  V30 64 H -4.112535 -2.446162 2.618441 0
M  V30 65 H -2.354840 -3.067760 -0.907330 0
M  V30 66 H -0.471735 -2.314663 -2.214497 0
M  V30 67 H 0.109362 0.053369 -2.178826 0
M  V30 68 H 5.577213 1.858841 -0.696215 0
M  V30 69 H 5.532422 2.352746 1.060174 0
M  V30 70 H 5.617734 -0.447974 -0.138471 0
M  V30 71 H 6.489242 0.319016 1.210930 0
M  V30 END ATOM
M  V30 BEGIN BOND
M  V30 1 1 1 2
M  V30 2 2 2 3
M  V30 3 2 2 4
M  V30 4 1 2 5
M  V30 5 1 5 6
M  V30 6 1 6 7
M  V30 7 1 7 8
M  V30 8 1 8 9
M  V30 9 1 9 10
M  V30 10 1 10 11
M  V30 11 2 11 12
M  V30 12 1 12 13
M  V30 13 2 13 14
M  V30 14 1 14 15
M  V30 15 1 15 16
M  V30 16 1 16 17
M  V30 17 2 17 18
M  V30 18 1 18 19
M  V30 19 2 19 20
M  V30 20 1 20 21
M  V30 21 1 21 22
M  V30 22 1 22 23
M  V30 23 1 23 24
M  V30 24 1 24 25
M  V30 25 2 25 26
M  V30 26 1 25 27
M  V30 27 1 27 28
M  V30 28 1 24 29
M  V30 29 1 29 30
M  V30 30 1 20 31
M  V30 31 2 31 32
M  V30 32 1 32 33
M  V30 33 2 33 34
M  V30 34 2 15 35
M  V30 35 1 9 36
M  V30 36 1 36 37
M  V30 37 1 37 6
M  V30 38 1 35 11
M  V30 39 1 34 16
M  V30 40 1 34 19
M  V30 41 1 30 21
M  V30 42 1 1 38
M  V30 43 1 1 39
M  V30 44 1 1 40
M  V30 45 1 5 41
M  V30 46 1 6 42 CFG=1
M  V30 47 1 7 43
M  V30 48 1 7 44
M  V30 49 1 8 45
M  V30 50 1 8 46
M  V30 51 1 9 47 CFG=1
M  V30 52 1 10 48
M  V30 53 1 13 49
M  V30 54 1 14 50
M  V30 55 1 17 51
M  V30 56 1 18 52
M  V30 57 1 22 53
M  V30 58 1 22 54
M  V30 59 1 23 55
M  V30 60 1 23 56
M  V30 61 1 27 57
M  V30 62 1 27 58
M  V30 63 1 28 59
M  V30 64 1 28 60
M  V30 65 1 29 61
M  V30 66 1 29 62
M  V30 67 1 30 63
M  V30 68 1 30 64
M  V30 69 1 31 65
M  V30 70 1 32 66
M  V30 71 1 33 67
M  V30 72 1 36 68
M  V30 73 1 36 69
M  V30 74 1 37 70
M  V30 75 1 37 71
M  V30 END BOND
M  V30 END CTAB
M  END
>  <Dataset>  (891) 
ChEMBL_Kinases

>  <Ligand_Instance>  (891) 
nan

>  <PDB_ID>  (891) 
nan

>  <Standardized_SMILES>  (891) 
CS(=O)(=O)N[C@H]1CC[C@H](Nc2nccc(-n3ccc4c(N5CCN(C(=O)CN)CC5)cccc43)n2)CC1

>  <Name>  (891) 
nan

>  <Pocket>  (891) 
nan

>  <ATP_Site>  (891) 
nan

>  <Peripheral>  (891) 
nan

>  <Num_H_Atoms_ProtBoundConf>  (891) 
nan

>  <Num_Resolved_Atoms>  (891) 
nan

>  <Num_Not_Resolved_Atoms>  (891) 
nan

$$$$
CHEMBL3674696
     RDKit          3D

  0  0  0  0  0  0  0  0  0  0999 V3000
M  V30 BEGIN CTAB
M  V30 COUNTS 77 81 0 0 0
M  V30 BEGIN ATOM
M  V30 1 C 4.309503 -1.606344 3.005449 0
M  V30 2 N 5.405234 -0.719243 3.423056 0
M  V30 3 C 5.513006 -0.843675 4.856514 0
M  V30 4 C 5.013810 0.648622 3.063981 0
M  V30 5 C 4.982876 0.819820 1.593979 0
M  V30 6 O 5.202316 0.110784 0.562762 0
M  V30 7 N 4.613745 2.109264 1.116835 0
M  V30 8 C 4.544060 2.414324 -0.299661 0
M  V30 9 C 3.197316 2.906156 -0.724446 0
M  V30 10 N 2.440898 3.282656 0.425132 0
M  V30 11 C 1.069067 2.973656 0.745620 0
M  V30 12 C 0.154134 4.002213 0.920335 0
M  V30 13 C -1.169812 3.744361 1.231069 0
M  V30 14 C -1.595701 2.438908 1.371693 0
M  V30 15 C -0.713066 1.395371 1.204735 0
M  V30 16 C 0.604477 1.662792 0.894868 0
M  V30 17 C 1.271863 0.471526 0.782210 0
M  V30 18 C 0.345382 -0.532306 1.027799 0
M  V30 19 N -0.846176 0.046738 1.280922 0
M  V30 20 C -2.037535 -0.662567 1.584364 0
M  V30 21 C -2.428369 -0.386462 2.898991 0
M  V30 22 C -3.578516 -0.981540 3.418957 0
M  V30 23 N -4.312362 -1.811098 2.680465 0
M  V30 24 C -3.925232 -2.070716 1.411338 0
M  V30 25 N -4.642076 -2.943619 0.552720 0
M  V30 26 C -4.309981 -3.292759 -0.838557 0 CFG=1
M  V30 27 C -2.948441 -3.928880 -0.912629 0
M  V30 28 C -2.588749 -4.318186 -2.305867 0
M  V30 29 C -3.686365 -4.208711 -3.308936 0 CFG=2
M  V30 30 N -3.789214 -2.854519 -3.811394 0
M  V30 31 S -3.470482 -2.816608 -5.512148 0
M  V30 32 C -1.818909 -3.384746 -5.780104 0
M  V30 33 O -4.484033 -3.641213 -6.255239 0
M  V30 34 O -3.616467 -1.407985 -6.007950 0
M  V30 35 C -4.951947 -4.753736 -2.734487 0
M  V30 36 C -5.309978 -4.287490 -1.372065 0
M  V30 37 N -2.808378 -1.499997 0.889098 0
M  V30 38 C 3.180645 4.091272 1.394465 0
M  V30 39 C 4.275877 3.226540 1.979206 0
M  V30 40 H 4.231067 -1.526740 1.917115 0
M  V30 41 H 4.496797 -2.631366 3.387136 0
M  V30 42 H 3.356247 -1.272819 3.470149 0
M  V30 43 H 4.517818 -0.829444 5.347391 0
M  V30 44 H 5.994252 -1.844934 5.057004 0
M  V30 45 H 6.160460 -0.087817 5.331075 0
M  V30 46 H 4.031939 0.819100 3.540982 0
M  V30 47 H 5.753932 1.325813 3.541112 0
M  V30 48 H 5.332563 3.202285 -0.468779 0
M  V30 49 H 4.882749 1.520189 -0.865697 0
M  V30 50 H 2.668231 2.227508 -1.416336 0
M  V30 51 H 3.345423 3.850310 -1.316370 0
M  V30 52 H 0.465954 5.036549 0.815007 0
M  V30 53 H -1.927206 4.526096 1.377749 0
M  V30 54 H -2.638473 2.196094 1.617578 0
M  V30 55 H 2.294646 0.294649 0.554171 0
M  V30 56 H 0.555502 -1.572383 1.014431 0
M  V30 57 H -1.943469 0.267799 3.640642 0
M  V30 58 H -3.960068 -0.830550 4.420256 0
M  V30 59 H -5.495661 -3.378274 0.965394 0
M  V30 60 H -4.389988 -2.329628 -1.382390 0
M  V30 61 H -3.010500 -4.862875 -0.286138 0
M  V30 62 H -2.136728 -3.326886 -0.458587 0
M  V30 63 H -2.229887 -5.385151 -2.337137 0
M  V30 64 H -1.718305 -3.730432 -2.709727 0
M  V30 65 H -3.408334 -4.853020 -4.179255 0
M  V30 66 H -3.047105 -2.288309 -3.339349 0
M  V30 67 H -1.518392 -3.306212 -6.847316 0
M  V30 68 H -1.787921 -4.467248 -5.464049 0
M  V30 69 H -1.147514 -2.830701 -5.110161 0
M  V30 70 H -5.833744 -4.572811 -3.391667 0
M  V30 71 H -4.838154 -5.878381 -2.746385 0
M  V30 72 H -5.277044 -5.161196 -0.671378 0
M  V30 73 H -6.304773 -3.791060 -1.342794 0
M  V30 74 H 2.509493 4.508828 2.160450 0
M  V30 75 H 3.606041 4.935701 0.805351 0
M  V30 76 H 3.959609 2.905340 2.983709 0
M  V30 77 H 5.219864 3.836385 2.039410 0
M  V30 END ATOM
M  V30 BEGIN BOND
M  V30 1 1 1 2
M  V30 2 1 2 3
M  V30 3 1 2 4
M  V30 4 1 4 5
M  V30 5 2 5 6
M  V30 6 1 5 7
M  V30 7 1 7 8
M  V30 8 1 8 9
M  V30 9 1 9 10
M  V30 10 1 10 11
M  V30 11 2 11 12
M  V30 12 1 12 13
M  V30 13 2 13 14
M  V30 14 1 14 15
M  V30 15 2 15 16
M  V30 16 1 16 17
M  V30 17 2 17 18
M  V30 18 1 18 19
M  V30 19 1 19 20
M  V30 20 2 20 21
M  V30 21 1 21 22
M  V30 22 2 22 23
M  V30 23 1 23 24
M  V30 24 1 24 25
M  V30 25 1 25 26
M  V30 26 1 26 27
M  V30 27 1 27 28
M  V30 28 1 28 29
M  V30 29 1 29 30
M  V30 30 1 30 31
M  V30 31 1 31 32
M  V30 32 2 31 33
M  V30 33 2 31 34
M  V30 34 1 29 35
M  V30 35 1 35 36
M  V30 36 2 24 37
M  V30 37 1 10 38
M  V30 38 1 38 39
M  V30 39 1 39 7
M  V30 40 1 16 11
M  V30 41 1 37 20
M  V30 42 1 19 15
M  V30 43 1 36 26
M  V30 44 1 1 40
M  V30 45 1 1 41
M  V30 46 1 1 42
M  V30 47 1 3 43
M  V30 48 1 3 44
M  V30 49 1 3 45
M  V30 50 1 4 46
M  V30 51 1 4 47
M  V30 52 1 8 48
M  V30 53 1 8 49
M  V30 54 1 9 50
M  V30 55 1 9 51
M  V30 56 1 12 52
M  V30 57 1 13 53
M  V30 58 1 14 54
M  V30 59 1 17 55
M  V30 60 1 18 56
M  V30 61 1 21 57
M  V30 62 1 22 58
M  V30 63 1 25 59
M  V30 64 1 26 60 CFG=3
M  V30 65 1 27 61
M  V30 66 1 27 62
M  V30 67 1 28 63
M  V30 68 1 28 64
M  V30 69 1 29 65 CFG=3
M  V30 70 1 30 66
M  V30 71 1 32 67
M  V30 72 1 32 68
M  V30 73 1 32 69
M  V30 74 1 35 70
M  V30 75 1 35 71
M  V30 76 1 36 72
M  V30 77 1 36 73
M  V30 78 1 38 74
M  V30 79 1 38 75
M  V30 80 1 39 76
M  V30 81 1 39 77
M  V30 END BOND
M  V30 END CTAB
M  END
>  <Dataset>  (892) 
ChEMBL_Kinases

>  <Ligand_Instance>  (892) 
nan

>  <PDB_ID>  (892) 
nan

>  <Standardized_SMILES>  (892) 
CN(C)CC(=O)N1CCN(c2cccc3c2ccn3-c2ccnc(N[C@H]3CC[C@H](NS(C)(=O)=O)CC3)n2)CC1

>  <Name>  (892) 
nan

>  <Pocket>  (892) 
nan

>  <ATP_Site>  (892) 
nan

>  <Peripheral>  (892) 
nan

>  <Num_H_Atoms_ProtBoundConf>  (892) 
nan

>  <Num_Resolved_Atoms>  (892) 
nan

>  <Num_Not_Resolved_Atoms>  (892) 
nan

$$$$
CHEMBL3674695
     RDKit          3D

  0  0  0  0  0  0  0  0  0  0999 V3000
M  V30 BEGIN CTAB
M  V30 COUNTS 86 90 0 0 0
M  V30 BEGIN ATOM
M  V30 1 C -2.605959 -3.559513 -3.513111 0
M  V30 2 C -3.485534 -4.750563 -3.163128 0
M  V30 3 C -3.188199 -5.822788 -4.190560 0
M  V30 4 C -3.033122 -5.264048 -1.820795 0
M  V30 5 O -4.852689 -4.462469 -3.215547 0
M  V30 6 C -5.485518 -3.499989 -2.448047 0
M  V30 7 O -4.599801 -2.971831 -1.731099 0
M  V30 8 N -6.853008 -3.143199 -2.435247 0
M  V30 9 C -7.127868 -2.074475 -1.481429 0
M  V30 10 C -6.353576 -0.852426 -1.813433 0
M  V30 11 O -5.531188 -0.628070 -2.766096 0
M  V30 12 N -6.466623 0.315374 -1.012537 0
M  V30 13 C -5.704716 1.503322 -1.348906 0
M  V30 14 C -5.122742 2.160620 -0.091212 0
M  V30 15 N -5.074187 1.075648 0.893255 0
M  V30 16 C -3.756464 0.555040 1.169952 0
M  V30 17 C -3.581106 -0.798113 0.899088 0
M  V30 18 C -2.341384 -1.370690 1.138989 0
M  V30 19 C -1.258608 -0.644997 1.642280 0
M  V30 20 C -1.501071 0.689120 1.888163 0
M  V30 21 C -2.707649 1.297575 1.666896 0
M  V30 22 C -2.650932 2.621838 2.000591 0
M  V30 23 C -1.358173 2.815192 2.439723 0
M  V30 24 N -0.665683 1.644139 2.370280 0
M  V30 25 C 0.697211 1.451371 2.738351 0
M  V30 26 C 1.170901 0.964547 3.940315 0
M  V30 27 C 2.538327 0.857964 4.087474 0
M  V30 28 N 3.342572 1.225181 3.073961 0
M  V30 29 C 2.899431 1.702750 1.892519 0
M  V30 30 N 3.797677 2.076972 0.853896 0
M  V30 31 C 5.210580 1.920437 1.123477 0 CFG=1
M  V30 32 C 5.470287 0.458640 1.400312 0
M  V30 33 C 6.285292 -0.188460 0.317911 0
M  V30 34 C 7.606153 0.500658 0.111986 0 CFG=2
M  V30 35 N 8.429893 0.242037 1.279067 0
M  V30 36 S 9.826648 -0.688793 0.876171 0
M  V30 37 C 9.234149 -2.248196 0.238461 0
M  V30 38 O 10.683072 0.015197 -0.130407 0
M  V30 39 O 10.576231 -0.987701 2.140842 0
M  V30 40 C 7.386179 1.950695 -0.115673 0
M  V30 41 C 5.958374 2.384863 -0.108968 0
M  V30 42 N 1.551931 1.803006 1.759976 0
M  V30 43 C -6.403908 0.720940 1.417318 0
M  V30 44 C -7.269848 0.546412 0.173977 0
M  V30 45 H -1.640249 -3.948639 -3.908838 0
M  V30 46 H -2.422351 -2.988001 -2.579922 0
M  V30 47 H -3.071922 -2.881939 -4.241230 0
M  V30 48 H -2.911038 -5.311311 -5.154654 0
M  V30 49 H -4.119126 -6.380319 -4.434154 0
M  V30 50 H -2.362066 -6.466690 -3.827358 0
M  V30 51 H -2.029859 -5.741815 -1.996922 0
M  V30 52 H -3.674388 -6.048925 -1.396972 0
M  V30 53 H -2.802683 -4.442532 -1.099233 0
M  V30 54 H -7.360048 -3.750563 -3.135996 0
M  V30 55 H -6.827545 -2.439183 -0.496031 0
M  V30 56 H -8.198369 -1.809707 -1.466996 0
M  V30 57 H -4.861355 1.184934 -1.996561 0
M  V30 58 H -6.276781 2.233703 -1.957047 0
M  V30 59 H -4.125827 2.545316 -0.359550 0
M  V30 60 H -5.817094 2.921150 0.266063 0
M  V30 61 H -4.372840 -1.392143 0.515594 0
M  V30 62 H -2.200193 -2.424312 0.929324 0
M  V30 63 H -0.319673 -1.157754 1.804936 0
M  V30 64 H -3.468706 3.323699 1.919498 0
M  V30 65 H -0.955463 3.764103 2.788814 0
M  V30 66 H 0.416594 0.706173 4.668219 0
M  V30 67 H 2.899615 0.476071 5.031986 0
M  V30 68 H 3.379647 2.438601 -0.030820 0
M  V30 69 H 5.465443 2.588264 1.969484 0
M  V30 70 H 5.981544 0.371327 2.367214 0
M  V30 71 H 4.512093 -0.082541 1.472459 0
M  V30 72 H 6.401643 -1.264296 0.539869 0
M  V30 73 H 5.680398 -0.156859 -0.635676 0
M  V30 74 H 8.049988 0.036677 -0.802820 0
M  V30 75 H 7.893360 -0.176648 2.040615 0
M  V30 76 H 10.046924 -3.003478 0.208695 0
M  V30 77 H 8.703404 -2.118649 -0.726843 0
M  V30 78 H 8.472498 -2.646582 0.940599 0
M  V30 79 H 8.026639 2.597107 0.552145 0
M  V30 80 H 7.778333 2.207637 -1.144156 0
M  V30 81 H 5.877738 3.490355 -0.130441 0
M  V30 82 H 5.400209 2.020283 -0.993745 0
M  V30 83 H -6.739449 1.634160 1.961837 0
M  V30 84 H -6.370025 -0.157327 2.058882 0
M  V30 85 H -7.970480 -0.270246 0.390995 0
M  V30 86 H -7.886419 1.449686 -0.012922 0
M  V30 END ATOM
M  V30 BEGIN BOND
M  V30 1 1 1 2
M  V30 2 1 2 3
M  V30 3 1 2 4
M  V30 4 1 2 5
M  V30 5 1 5 6
M  V30 6 2 6 7
M  V30 7 1 6 8
M  V30 8 1 8 9
M  V30 9 1 9 10
M  V30 10 2 10 11
M  V30 11 1 10 12
M  V30 12 1 12 13
M  V30 13 1 13 14
M  V30 14 1 14 15
M  V30 15 1 15 16
M  V30 16 2 16 17
M  V30 17 1 17 18
M  V30 18 2 18 19
M  V30 19 1 19 20
M  V30 20 2 20 21
M  V30 21 1 21 22
M  V30 22 2 22 23
M  V30 23 1 23 24
M  V30 24 1 24 25
M  V30 25 2 25 26
M  V30 26 1 26 27
M  V30 27 2 27 28
M  V30 28 1 28 29
M  V30 29 1 29 30
M  V30 30 1 30 31
M  V30 31 1 31 32
M  V30 32 1 32 33
M  V30 33 1 33 34
M  V30 34 1 34 35
M  V30 35 1 35 36
M  V30 36 1 36 37
M  V30 37 2 36 38
M  V30 38 2 36 39
M  V30 39 1 34 40
M  V30 40 1 40 41
M  V30 41 2 29 42
M  V30 42 1 15 43
M  V30 43 1 43 44
M  V30 44 1 44 12
M  V30 45 1 21 16
M  V30 46 1 42 25
M  V30 47 1 24 20
M  V30 48 1 41 31
M  V30 49 1 1 45
M  V30 50 1 1 46
M  V30 51 1 1 47
M  V30 52 1 3 48
M  V30 53 1 3 49
M  V30 54 1 3 50
M  V30 55 1 4 51
M  V30 56 1 4 52
M  V30 57 1 4 53
M  V30 58 1 8 54
M  V30 59 1 9 55
M  V30 60 1 9 56
M  V30 61 1 13 57
M  V30 62 1 13 58
M  V30 63 1 14 59
M  V30 64 1 14 60
M  V30 65 1 17 61
M  V30 66 1 18 62
M  V30 67 1 19 63
M  V30 68 1 22 64
M  V30 69 1 23 65
M  V30 70 1 26 66
M  V30 71 1 27 67
M  V30 72 1 30 68
M  V30 73 1 31 69 CFG=1
M  V30 74 1 32 70
M  V30 75 1 32 71
M  V30 76 1 33 72
M  V30 77 1 33 73
M  V30 78 1 34 74 CFG=3
M  V30 79 1 35 75
M  V30 80 1 37 76
M  V30 81 1 37 77
M  V30 82 1 37 78
M  V30 83 1 40 79
M  V30 84 1 40 80
M  V30 85 1 41 81
M  V30 86 1 41 82
M  V30 87 1 43 83
M  V30 88 1 43 84
M  V30 89 1 44 85
M  V30 90 1 44 86
M  V30 END BOND
M  V30 END CTAB
M  END
>  <Dataset>  (893) 
ChEMBL_Kinases

>  <Ligand_Instance>  (893) 
nan

>  <PDB_ID>  (893) 
nan

>  <Standardized_SMILES>  (893) 
CC(C)(C)OC(=O)NCC(=O)N1CCN(c2cccc3c2ccn3-c2ccnc(N[C@H]3CC[C@H](NS(C)(=O)=O)CC3)n2)CC1

>  <Name>  (893) 
nan

>  <Pocket>  (893) 
nan

>  <ATP_Site>  (893) 
nan

>  <Peripheral>  (893) 
nan

>  <Num_H_Atoms_ProtBoundConf>  (893) 
nan

>  <Num_Resolved_Atoms>  (893) 
nan

>  <Num_Not_Resolved_Atoms>  (893) 
nan

$$$$
CHEMBL3674694
     RDKit          3D

  0  0  0  0  0  0  0  0  0  0999 V3000
M  V30 BEGIN CTAB
M  V30 COUNTS 82 87 0 0 0
M  V30 BEGIN ATOM
M  V30 1 C 5.397812 3.005883 8.816299 0
M  V30 2 C 4.784494 4.166127 8.101953 0
M  V30 3 O 5.281712 5.304255 8.314741 0
M  V30 4 N 3.680323 3.851723 7.239517 0
M  V30 5 C 3.156854 2.504973 7.042556 0
M  V30 6 C 3.546916 2.104024 5.632860 0
M  V30 7 N 2.981748 3.097568 4.737297 0
M  V30 8 C 2.382819 2.618415 3.532772 0
M  V30 9 C 2.950943 3.080000 2.362786 0
M  V30 10 C 2.425288 2.659009 1.156793 0
M  V30 11 C 1.355869 1.796216 1.125842 0
M  V30 12 C 0.757256 1.310307 2.293935 0
M  V30 13 C 1.297283 1.742397 3.478907 0
M  V30 14 C 0.618253 1.192315 4.520334 0
M  V30 15 C -0.364640 0.400968 3.962963 0
M  V30 16 N -0.274195 0.477705 2.624794 0
M  V30 17 C -0.987977 -0.091422 1.512226 0
M  V30 18 C -2.274271 0.276966 1.179271 0
M  V30 19 C -2.935187 -0.273123 0.102275 0
M  V30 20 N -2.276310 -1.192119 -0.621659 0
M  V30 21 C -1.024178 -1.578748 -0.330991 0
M  V30 22 N -0.324906 -2.546543 -1.107174 0
M  V30 23 C -0.850520 -3.202351 -2.278790 0 CFG=1
M  V30 24 C 0.103366 -4.162587 -2.912750 0
M  V30 25 C -0.508671 -4.827815 -4.090640 0
M  V30 26 C -1.870528 -5.395412 -3.930400 0 CFG=2
M  V30 27 C -2.542423 -5.625215 -5.247641 0
M  V30 28 O -2.804294 -6.856437 -5.523866 0
M  V30 29 N -2.854103 -4.513884 -6.113118 0
M  V30 30 C -2.728133 -3.078706 -6.119769 0
M  V30 31 C -4.117454 -2.476190 -6.114447 0
M  V30 32 C -4.807462 -2.906337 -7.375632 0
M  V30 33 O -6.026571 -3.543602 -7.086639 0
M  V30 34 C -3.952722 -3.881731 -8.172192 0
M  V30 35 C -3.470352 -5.023559 -7.344633 0
M  V30 36 C -2.751781 -4.564327 -3.073167 0
M  V30 37 C -2.061738 -4.018490 -1.842113 0
M  V30 38 N -0.417803 -1.026299 0.715503 0
M  V30 39 C 2.986950 4.526322 4.985878 0 CFG=2
M  V30 40 C 4.253716 5.145807 4.423428 0
M  V30 41 C 2.974607 4.854940 6.475490 0
M  V30 42 H 6.388406 3.259932 9.244373 0
M  V30 43 H 5.546276 2.128957 8.159409 0
M  V30 44 H 4.745428 2.691928 9.655441 0
M  V30 45 H 2.063716 2.568902 7.140666 0
M  V30 46 H 3.555609 1.788801 7.788128 0
M  V30 47 H 3.138390 1.113872 5.428921 0
M  V30 48 H 4.646643 2.170333 5.506436 0
M  V30 49 H 3.785470 3.753035 2.233530 0
M  V30 50 H 2.810047 2.972720 0.179633 0
M  V30 51 H 0.948047 1.466867 0.187763 0
M  V30 52 H 0.746749 1.292153 5.592142 0
M  V30 53 H -1.137502 -0.222935 4.394742 0
M  V30 54 H -2.743162 1.013661 1.798042 0
M  V30 55 H -3.951281 0.056806 -0.113955 0
M  V30 56 H 0.643538 -2.830017 -0.842359 0
M  V30 57 H -1.168041 -2.475334 -3.054490 0
M  V30 58 H 1.030627 -3.641177 -3.284070 0
M  V30 59 H 0.489564 -4.873295 -2.147705 0
M  V30 60 H 0.166110 -5.727536 -4.312590 0
M  V30 61 H -0.404558 -4.234767 -5.031245 0
M  V30 62 H -1.812712 -6.406447 -3.423279 0
M  V30 63 H -2.231739 -2.762315 -7.074232 0
M  V30 64 H -2.098602 -2.656386 -5.319502 0
M  V30 65 H -3.967651 -1.373926 -6.042712 0
M  V30 66 H -4.695999 -2.827654 -5.250016 0
M  V30 67 H -5.008235 -2.042788 -8.031151 0
M  V30 68 H -6.618688 -3.372070 -7.853413 0
M  V30 69 H -3.194011 -3.344661 -8.748235 0
M  V30 70 H -4.666736 -4.291727 -8.951883 0
M  V30 71 H -4.331451 -5.671411 -7.071541 0
M  V30 72 H -2.727115 -5.594233 -7.949213 0
M  V30 73 H -3.586443 -5.231542 -2.691627 0
M  V30 74 H -3.268181 -3.726581 -3.560853 0
M  V30 75 H -1.667302 -4.853447 -1.234893 0
M  V30 76 H -2.748759 -3.431663 -1.211915 0
M  V30 77 H 2.094211 4.959561 4.501149 0
M  V30 78 H 5.022105 4.367950 4.187679 0
M  V30 79 H 4.767526 5.814049 5.170450 0
M  V30 80 H 4.021022 5.793265 3.552949 0
M  V30 81 H 3.479310 5.825464 6.613197 0
M  V30 82 H 1.923011 4.963469 6.787151 0
M  V30 END ATOM
M  V30 BEGIN BOND
M  V30 1 1 1 2
M  V30 2 2 2 3
M  V30 3 1 2 4
M  V30 4 1 4 5
M  V30 5 1 5 6
M  V30 6 1 6 7
M  V30 7 1 7 8
M  V30 8 2 8 9
M  V30 9 1 9 10
M  V30 10 2 10 11
M  V30 11 1 11 12
M  V30 12 2 12 13
M  V30 13 1 13 14
M  V30 14 2 14 15
M  V30 15 1 15 16
M  V30 16 1 16 17
M  V30 17 2 17 18
M  V30 18 1 18 19
M  V30 19 2 19 20
M  V30 20 1 20 21
M  V30 21 1 21 22
M  V30 22 1 22 23
M  V30 23 1 23 24
M  V30 24 1 24 25
M  V30 25 1 25 26
M  V30 26 1 26 27
M  V30 27 2 27 28
M  V30 28 1 27 29
M  V30 29 1 29 30
M  V30 30 1 30 31
M  V30 31 1 31 32
M  V30 32 1 32 33
M  V30 33 1 32 34
M  V30 34 1 34 35
M  V30 35 1 26 36
M  V30 36 1 36 37
M  V30 37 2 21 38
M  V30 38 1 7 39
M  V30 39 1 39 40
M  V30 40 1 39 41
M  V30 41 1 41 4
M  V30 42 1 13 8
M  V30 43 1 38 17
M  V30 44 1 16 12
M  V30 45 1 37 23
M  V30 46 1 35 29
M  V30 47 1 1 42
M  V30 48 1 1 43
M  V30 49 1 1 44
M  V30 50 1 5 45
M  V30 51 1 5 46
M  V30 52 1 6 47
M  V30 53 1 6 48
M  V30 54 1 9 49
M  V30 55 1 10 50
M  V30 56 1 11 51
M  V30 57 1 14 52
M  V30 58 1 15 53
M  V30 59 1 18 54
M  V30 60 1 19 55
M  V30 61 1 22 56
M  V30 62 1 23 57 CFG=3
M  V30 63 1 24 58
M  V30 64 1 24 59
M  V30 65 1 25 60
M  V30 66 1 25 61
M  V30 67 1 26 62 CFG=1
M  V30 68 1 30 63
M  V30 69 1 30 64
M  V30 70 1 31 65
M  V30 71 1 31 66
M  V30 72 1 32 67
M  V30 73 1 33 68
M  V30 74 1 34 69
M  V30 75 1 34 70
M  V30 76 1 35 71
M  V30 77 1 35 72
M  V30 78 1 36 73
M  V30 79 1 36 74
M  V30 80 1 37 75
M  V30 81 1 37 76
M  V30 82 1 39 77 CFG=3
M  V30 83 1 40 78
M  V30 84 1 40 79
M  V30 85 1 40 80
M  V30 86 1 41 81
M  V30 87 1 41 82
M  V30 END BOND
M  V30 END CTAB
M  END
>  <Dataset>  (894) 
ChEMBL_Kinases

>  <Ligand_Instance>  (894) 
nan

>  <PDB_ID>  (894) 
nan

>  <Standardized_SMILES>  (894) 
CC(=O)N1CCN(c2cccc3c2ccn3-c2ccnc(N[C@H]3CC[C@H](C(=O)N4CCC(O)CC4)CC3)n2)[C@H](C)C1

>  <Name>  (894) 
nan

>  <Pocket>  (894) 
nan

>  <ATP_Site>  (894) 
nan

>  <Peripheral>  (894) 
nan

>  <Num_H_Atoms_ProtBoundConf>  (894) 
nan

>  <Num_Resolved_Atoms>  (894) 
nan

>  <Num_Not_Resolved_Atoms>  (894) 
nan

$$$$
CHEMBL3674693
     RDKit          3D

  0  0  0  0  0  0  0  0  0  0999 V3000
M  V30 BEGIN CTAB
M  V30 COUNTS 73 77 0 0 0
M  V30 BEGIN ATOM
M  V30 1 C 2.942866 -2.240104 3.458120 0
M  V30 2 C 3.794502 -2.075448 2.234912 0
M  V30 3 N 3.214773 -2.727956 1.057012 0
M  V30 4 C 3.945781 -2.635938 -0.176603 0
M  V30 5 O 5.000953 -1.959669 0.064707 0
M  V30 6 C 3.259650 -3.335309 -1.299512 0 CFG=1
M  V30 7 C 1.895719 -2.761540 -1.560992 0
M  V30 8 C 1.928347 -1.890449 -2.794552 0
M  V30 9 C 3.209723 -1.124752 -2.837147 0 CFG=2
M  V30 10 N 3.167791 0.045808 -3.692049 0
M  V30 11 C 2.217537 1.060959 -3.383326 0
M  V30 12 N 2.115181 2.177928 -4.127700 0
M  V30 13 C 1.239020 3.160471 -3.878655 0
M  V30 14 C 0.371095 3.047327 -2.793451 0
M  V30 15 C 0.460867 1.906937 -2.016540 0
M  V30 16 N -0.315313 1.576727 -0.869318 0
M  V30 17 C 0.199939 1.295032 0.341486 0
M  V30 18 C -0.860487 1.029557 1.177299 0
M  V30 19 C -2.037731 1.150131 0.472726 0
M  V30 20 C -3.330135 0.969326 0.895860 0
M  V30 21 N -3.768491 0.661390 2.209534 0
M  V30 22 C -5.081132 0.059069 2.361790 0
M  V30 23 C -5.167306 -0.895701 3.491260 0
M  V30 24 C -3.879211 -1.539851 3.925736 0
M  V30 25 S -3.364379 -2.880053 2.904030 0
M  V30 26 C -3.048075 -2.402533 1.228608 0
M  V30 27 O -2.072264 -3.441434 3.446874 0
M  V30 28 O -4.374926 -3.991525 2.896157 0
M  V30 29 C -2.764844 -0.514471 4.057337 0
M  V30 30 C -3.227949 0.826710 3.520276 0
M  V30 31 C -4.285781 1.158443 -0.082136 0
M  V30 32 C -3.942226 1.501157 -1.369324 0
M  V30 33 C -2.626234 1.671915 -1.743116 0
M  V30 34 C -1.652133 1.491120 -0.796301 0
M  V30 35 N 1.372854 0.999374 -2.364638 0
M  V30 36 C 4.343198 -2.042750 -3.160239 0
M  V30 37 C 4.117427 -3.398015 -2.542047 0
M  V30 38 H 2.087657 -2.939793 3.316096 0
M  V30 39 H 3.568746 -2.575830 4.331732 0
M  V30 40 H 2.528399 -1.255634 3.794274 0
M  V30 41 H 4.803401 -2.520482 2.446016 0
M  V30 42 H 3.952325 -0.990777 2.065484 0
M  V30 43 H 2.296671 -3.217981 1.213238 0
M  V30 44 H 3.124627 -4.391975 -0.978716 0
M  V30 45 H 1.569688 -2.237977 -0.663332 0
M  V30 46 H 1.118937 -3.558351 -1.747851 0
M  V30 47 H 1.011038 -1.305533 -2.828696 0
M  V30 48 H 1.908822 -2.544727 -3.695934 0
M  V30 49 H 3.425335 -0.708342 -1.811794 0
M  V30 50 H 3.789448 0.188276 -4.516230 0
M  V30 51 H 1.133851 4.066713 -4.457175 0
M  V30 52 H -0.387440 3.759414 -2.470966 0
M  V30 53 H 1.256245 1.289639 0.571382 0
M  V30 54 H -0.695879 0.772489 2.188462 0
M  V30 55 H -5.795823 0.890677 2.546695 0
M  V30 56 H -5.415087 -0.383931 1.386252 0
M  V30 57 H -5.609826 -0.408419 4.409220 0
M  V30 58 H -5.881116 -1.736067 3.282706 0
M  V30 59 H -4.047889 -1.943100 4.946462 0
M  V30 60 H -2.657267 -3.337027 0.729320 0
M  V30 61 H -2.219727 -1.692053 1.177239 0
M  V30 62 H -3.953969 -2.143017 0.667908 0
M  V30 63 H -1.889199 -0.876040 3.488807 0
M  V30 64 H -2.438340 -0.352426 5.101774 0
M  V30 65 H -2.374455 1.520332 3.562033 0
M  V30 66 H -3.983848 1.281188 4.232084 0
M  V30 67 H -5.345950 1.074832 0.021571 0
M  V30 68 H -4.644392 1.664895 -2.185796 0
M  V30 69 H -2.318921 1.942542 -2.749380 0
M  V30 70 H 5.337382 -1.654217 -2.895433 0
M  V30 71 H 4.324982 -2.202950 -4.270899 0
M  V30 72 H 3.581632 -4.083439 -3.243715 0
M  V30 73 H 5.082069 -3.828416 -2.255790 0
M  V30 END ATOM
M  V30 BEGIN BOND
M  V30 1 1 1 2
M  V30 2 1 2 3
M  V30 3 1 3 4
M  V30 4 2 4 5
M  V30 5 1 4 6
M  V30 6 1 6 7
M  V30 7 1 7 8
M  V30 8 1 8 9
M  V30 9 1 9 10
M  V30 10 1 10 11
M  V30 11 2 11 12
M  V30 12 1 12 13
M  V30 13 2 13 14
M  V30 14 1 14 15
M  V30 15 1 15 16
M  V30 16 1 16 17
M  V30 17 2 17 18
M  V30 18 1 18 19
M  V30 19 2 19 20
M  V30 20 1 20 21
M  V30 21 1 21 22
M  V30 22 1 22 23
M  V30 23 1 23 24
M  V30 24 1 24 25
M  V30 25 1 25 26
M  V30 26 2 25 27
M  V30 27 2 25 28
M  V30 28 1 24 29
M  V30 29 1 29 30
M  V30 30 1 20 31
M  V30 31 2 31 32
M  V30 32 1 32 33
M  V30 33 2 33 34
M  V30 34 2 15 35
M  V30 35 1 9 36
M  V30 36 1 36 37
M  V30 37 1 37 6
M  V30 38 1 35 11
M  V30 39 1 34 16
M  V30 40 1 34 19
M  V30 41 1 30 21
M  V30 42 1 1 38
M  V30 43 1 1 39
M  V30 44 1 1 40
M  V30 45 1 2 41
M  V30 46 1 2 42
M  V30 47 1 3 43
M  V30 48 1 6 44 CFG=1
M  V30 49 1 7 45
M  V30 50 1 7 46
M  V30 51 1 8 47
M  V30 52 1 8 48
M  V30 53 1 9 49 CFG=1
M  V30 54 1 10 50
M  V30 55 1 13 51
M  V30 56 1 14 52
M  V30 57 1 17 53
M  V30 58 1 18 54
M  V30 59 1 22 55
M  V30 60 1 22 56
M  V30 61 1 23 57
M  V30 62 1 23 58
M  V30 63 1 24 59
M  V30 64 1 26 60
M  V30 65 1 26 61
M  V30 66 1 26 62
M  V30 67 1 29 63
M  V30 68 1 29 64
M  V30 69 1 30 65
M  V30 70 1 30 66
M  V30 71 1 31 67
M  V30 72 1 32 68
M  V30 73 1 33 69
M  V30 74 1 36 70
M  V30 75 1 36 71
M  V30 76 1 37 72
M  V30 77 1 37 73
M  V30 END BOND
M  V30 END CTAB
M  END
>  <Dataset>  (895) 
ChEMBL_Kinases

>  <Ligand_Instance>  (895) 
nan

>  <PDB_ID>  (895) 
nan

>  <Standardized_SMILES>  (895) 
CCNC(=O)[C@H]1CC[C@H](Nc2nccc(-n3ccc4c(N5CCC(S(C)(=O)=O)CC5)cccc43)n2)CC1

>  <Name>  (895) 
nan

>  <Pocket>  (895) 
nan

>  <ATP_Site>  (895) 
nan

>  <Peripheral>  (895) 
nan

>  <Num_H_Atoms_ProtBoundConf>  (895) 
nan

>  <Num_Resolved_Atoms>  (895) 
nan

>  <Num_Not_Resolved_Atoms>  (895) 
nan

$$$$
CHEMBL3674692
     RDKit          3D

  0  0  0  0  0  0  0  0  0  0999 V3000
M  V30 BEGIN CTAB
M  V30 COUNTS 67 71 0 0 0
M  V30 BEGIN ATOM
M  V30 1 C 5.725299 -1.406143 2.610578 0
M  V30 2 S 5.949763 -0.171086 3.881601 0
M  V30 3 O 5.731757 -0.881740 5.209315 0
M  V30 4 O 7.326911 0.382063 3.906050 0
M  V30 5 C 4.694726 1.058586 3.755077 0
M  V30 6 C 4.715018 1.775374 2.427062 0
M  V30 7 C 3.478199 2.589939 2.197551 0
M  V30 8 N 2.239119 1.896350 2.422732 0
M  V30 9 C 1.318160 1.753571 1.346995 0
M  V30 10 C 1.900194 1.679236 0.074153 0
M  V30 11 C 1.104292 1.491121 -1.031728 0
M  V30 12 C -0.249663 1.373999 -0.922006 0
M  V30 13 C -0.869031 1.440891 0.303863 0
M  V30 14 C -0.051196 1.629660 1.394708 0
M  V30 15 C -0.837574 1.681039 2.494459 0
M  V30 16 C -2.147568 1.522659 2.092885 0
M  V30 17 N -2.136221 1.378491 0.754915 0
M  V30 18 C -3.284107 1.185325 -0.095422 0
M  V30 19 C -4.117705 2.162776 -0.597715 0
M  V30 20 C -5.165626 1.753218 -1.398017 0
M  V30 21 N -5.326329 0.441727 -1.649453 0
M  V30 22 C -4.517550 -0.518056 -1.163301 0
M  V30 23 N -4.724655 -1.897764 -1.455334 0
M  V30 24 C -3.818900 -2.879750 -0.901403 0 CFG=1
M  V30 25 C -4.241473 -4.239243 -1.347597 0
M  V30 26 C -3.422724 -4.786048 -2.495442 0
M  V30 27 C -1.968176 -4.954510 -2.101516 0 CFG=2
M  V30 28 C -1.107101 -4.846361 -3.317458 0
M  V30 29 O -1.796469 -6.218302 -1.540932 0
M  V30 30 C -1.580417 -3.902954 -1.079625 0
M  V30 31 C -2.392767 -2.637050 -1.264386 0
M  V30 32 N -3.490144 -0.126934 -0.379732 0
M  V30 33 C 2.291795 1.465958 3.808353 0
M  V30 34 C 3.380854 0.387210 3.966727 0
M  V30 35 H 5.015566 -1.013580 1.858375 0
M  V30 36 H 5.266698 -2.338177 3.013172 0
M  V30 37 H 6.713014 -1.652454 2.218831 0
M  V30 38 H 4.853755 1.802594 4.543312 0
M  V30 39 H 4.764416 1.002179 1.634603 0
M  V30 40 H 5.603156 2.422644 2.303692 0
M  V30 41 H 3.543408 3.454807 2.917718 0
M  V30 42 H 3.450558 3.062298 1.208761 0
M  V30 43 H 2.943497 1.745083 -0.211567 0
M  V30 44 H 1.448079 1.419126 -2.057832 0
M  V30 45 H -0.925740 1.223175 -1.767036 0
M  V30 46 H -0.627929 1.822380 3.537929 0
M  V30 47 H -3.047950 1.508357 2.688254 0
M  V30 48 H -3.859170 3.164830 -0.307367 0
M  V30 49 H -5.804877 2.532751 -1.780133 0
M  V30 50 H -5.534921 -2.148900 -2.067307 0
M  V30 51 H -3.882443 -2.808651 0.223766 0
M  V30 52 H -4.198202 -4.938884 -0.477287 0
M  V30 53 H -5.297196 -4.191320 -1.680407 0
M  V30 54 H -3.787548 -5.778848 -2.818577 0
M  V30 55 H -3.462483 -4.108189 -3.369156 0
M  V30 56 H -0.891259 -5.885789 -3.700735 0
M  V30 57 H -0.136999 -4.339576 -3.136122 0
M  V30 58 H -1.624088 -4.358049 -4.184992 0
M  V30 59 H -1.016767 -6.206389 -0.932783 0
M  V30 60 H -1.664827 -4.351175 -0.087583 0
M  V30 61 H -0.520179 -3.658999 -1.265304 0
M  V30 62 H -2.355597 -2.375609 -2.340070 0
M  V30 63 H -1.891586 -1.870600 -0.643639 0
M  V30 64 H 2.464298 2.291376 4.507975 0
M  V30 65 H 1.370963 0.875168 4.096271 0
M  V30 66 H 3.174614 -0.422609 3.249271 0
M  V30 67 H 3.317810 0.037569 5.024784 0
M  V30 END ATOM
M  V30 BEGIN BOND
M  V30 1 1 1 2
M  V30 2 2 2 3
M  V30 3 2 2 4
M  V30 4 1 2 5
M  V30 5 1 5 6
M  V30 6 1 6 7
M  V30 7 1 7 8
M  V30 8 1 8 9
M  V30 9 2 9 10
M  V30 10 1 10 11
M  V30 11 2 11 12
M  V30 12 1 12 13
M  V30 13 2 13 14
M  V30 14 1 14 15
M  V30 15 2 15 16
M  V30 16 1 16 17
M  V30 17 1 17 18
M  V30 18 2 18 19
M  V30 19 1 19 20
M  V30 20 2 20 21
M  V30 21 1 21 22
M  V30 22 1 22 23
M  V30 23 1 23 24
M  V30 24 1 24 25
M  V30 25 1 25 26
M  V30 26 1 26 27
M  V30 27 1 27 28
M  V30 28 1 27 29 CFG=1
M  V30 29 1 27 30
M  V30 30 1 30 31
M  V30 31 2 22 32
M  V30 32 1 8 33
M  V30 33 1 33 34
M  V30 34 1 34 5
M  V30 35 1 14 9
M  V30 36 1 32 18
M  V30 37 1 17 13
M  V30 38 1 31 24
M  V30 39 1 1 35
M  V30 40 1 1 36
M  V30 41 1 1 37
M  V30 42 1 5 38
M  V30 43 1 6 39
M  V30 44 1 6 40
M  V30 45 1 7 41
M  V30 46 1 7 42
M  V30 47 1 10 43
M  V30 48 1 11 44
M  V30 49 1 12 45
M  V30 50 1 15 46
M  V30 51 1 16 47
M  V30 52 1 19 48
M  V30 53 1 20 49
M  V30 54 1 23 50
M  V30 55 1 24 51 CFG=1
M  V30 56 1 25 52
M  V30 57 1 25 53
M  V30 58 1 26 54
M  V30 59 1 26 55
M  V30 60 1 28 56
M  V30 61 1 28 57
M  V30 62 1 28 58
M  V30 63 1 29 59
M  V30 64 1 30 60
M  V30 65 1 30 61
M  V30 66 1 31 62
M  V30 67 1 31 63
M  V30 68 1 33 64
M  V30 69 1 33 65
M  V30 70 1 34 66
M  V30 71 1 34 67
M  V30 END BOND
M  V30 END CTAB
M  END
>  <Dataset>  (896) 
ChEMBL_Kinases

>  <Ligand_Instance>  (896) 
nan

>  <PDB_ID>  (896) 
nan

>  <Standardized_SMILES>  (896) 
CS(=O)(=O)C1CCN(c2cccc3c2ccn3-c2ccnc(N[C@H]3CC[C@](C)(O)CC3)n2)CC1

>  <Name>  (896) 
nan

>  <Pocket>  (896) 
nan

>  <ATP_Site>  (896) 
nan

>  <Peripheral>  (896) 
nan

>  <Num_H_Atoms_ProtBoundConf>  (896) 
nan

>  <Num_Resolved_Atoms>  (896) 
nan

>  <Num_Not_Resolved_Atoms>  (896) 
nan

$$$$
CHEMBL3674691
     RDKit          3D

  0  0  0  0  0  0  0  0  0  0999 V3000
M  V30 BEGIN CTAB
M  V30 COUNTS 76 80 0 0 0
M  V30 BEGIN ATOM
M  V30 1 C 3.078420 -1.201618 6.125123 0
M  V30 2 N 1.822211 -0.945906 5.550951 0
M  V30 3 C 1.234293 0.269625 5.967939 0
M  V30 4 S 1.483071 -1.477440 3.995080 0
M  V30 5 O 2.097876 -2.820664 3.693592 0
M  V30 6 O -0.024072 -1.699788 3.893516 0
M  V30 7 N 1.936873 -0.304340 2.833809 0
M  V30 8 C 3.332280 -0.013787 2.829464 0 CFG=1
M  V30 9 C 3.931596 -0.489740 1.521895 0
M  V30 10 C 3.464143 0.302248 0.329722 0
M  V30 11 C 3.376228 1.749155 0.683679 0 CFG=2
M  V30 12 N 3.661376 2.616989 -0.463224 0
M  V30 13 C 2.848172 2.524099 -1.625221 0
M  V30 14 N 3.094893 3.322032 -2.704079 0
M  V30 15 C 2.315411 3.216798 -3.794877 0
M  V30 16 C 1.274815 2.309948 -3.824171 0
M  V30 17 C 1.007277 1.494168 -2.745461 0
M  V30 18 N -0.020863 0.519244 -2.628978 0
M  V30 19 C 0.214602 -0.704859 -2.070350 0
M  V30 20 C -0.980086 -1.408030 -2.109190 0
M  V30 21 C -1.956827 -0.645166 -2.683152 0
M  V30 22 C -3.285606 -0.810678 -2.976151 0
M  V30 23 N -3.944670 -2.030970 -2.661970 0
M  V30 24 C -3.726111 -3.378177 -3.070212 0
M  V30 25 C -3.776917 -4.421458 -2.015844 0
M  V30 26 C -4.331893 -4.055866 -0.698893 0
M  V30 27 S -3.244128 -4.613233 0.594989 0
M  V30 28 C -3.835011 -4.091158 2.188116 0
M  V30 29 O -3.135452 -6.108208 0.614241 0
M  V30 30 O -1.870375 -4.035083 0.401855 0
M  V30 31 C -4.526180 -2.581562 -0.473170 0
M  V30 32 C -5.068485 -1.924098 -1.751084 0
M  V30 33 C -3.991854 0.210964 -3.580001 0
M  V30 34 C -3.387659 1.427485 -3.906906 0
M  V30 35 C -2.042904 1.563169 -3.597701 0
M  V30 36 C -1.322782 0.552909 -2.995444 0
M  V30 37 N 1.832024 1.651797 -1.677519 0
M  V30 38 C 4.285656 2.077576 1.844551 0
M  V30 39 C 3.705330 1.406361 3.073092 0
M  V30 40 H 2.957482 -1.335545 7.233752 0
M  V30 41 H 3.606056 -2.088189 5.699755 0
M  V30 42 H 3.750789 -0.312919 5.966453 0
M  V30 43 H 1.925260 1.047809 6.347968 0
M  V30 44 H 0.459562 0.043877 6.754295 0
M  V30 45 H 0.673631 0.731719 5.125008 0
M  V30 46 H 1.643495 -0.586906 1.875128 0
M  V30 47 H 3.798825 -0.647022 3.625782 0
M  V30 48 H 3.658543 -1.545325 1.380141 0
M  V30 49 H 5.054082 -0.433999 1.557527 0
M  V30 50 H 4.200569 0.232217 -0.517741 0
M  V30 51 H 2.461110 -0.018940 -0.042760 0
M  V30 52 H 2.341735 1.983862 0.987754 0
M  V30 53 H 4.458639 3.316939 -0.455224 0
M  V30 54 H 2.494827 3.843492 -4.665478 0
M  V30 55 H 0.625355 2.188254 -4.678318 0
M  V30 56 H 1.084138 -1.165402 -1.649225 0
M  V30 57 H -1.190481 -2.411293 -1.758493 0
M  V30 58 H -2.732585 -3.394467 -3.609046 0
M  V30 59 H -4.463728 -3.579575 -3.897173 0
M  V30 60 H -4.393387 -5.276535 -2.399834 0
M  V30 61 H -2.742441 -4.856389 -1.895076 0
M  V30 62 H -5.327291 -4.521229 -0.491727 0
M  V30 63 H -4.901982 -3.785200 2.181899 0
M  V30 64 H -3.276237 -3.226807 2.587158 0
M  V30 65 H -3.738587 -4.904927 2.939627 0
M  V30 66 H -3.559974 -2.056213 -0.273012 0
M  V30 67 H -5.209825 -2.407696 0.355529 0
M  V30 68 H -5.314465 -0.890918 -1.469430 0
M  V30 69 H -5.955573 -2.492681 -2.123403 0
M  V30 70 H -5.048957 0.039742 -3.798712 0
M  V30 71 H -3.944422 2.202952 -4.369361 0
M  V30 72 H -1.592672 2.512651 -3.857582 0
M  V30 73 H 4.313035 3.175986 1.942437 0
M  V30 74 H 5.309194 1.705438 1.703844 0
M  V30 75 H 2.848337 2.025268 3.382767 0
M  V30 76 H 4.435876 1.455406 3.904209 0
M  V30 END ATOM
M  V30 BEGIN BOND
M  V30 1 1 1 2
M  V30 2 1 2 3
M  V30 3 1 2 4
M  V30 4 2 4 5
M  V30 5 2 4 6
M  V30 6 1 4 7
M  V30 7 1 7 8
M  V30 8 1 8 9
M  V30 9 1 9 10
M  V30 10 1 10 11
M  V30 11 1 11 12
M  V30 12 1 12 13
M  V30 13 2 13 14
M  V30 14 1 14 15
M  V30 15 2 15 16
M  V30 16 1 16 17
M  V30 17 1 17 18
M  V30 18 1 18 19
M  V30 19 2 19 20
M  V30 20 1 20 21
M  V30 21 2 21 22
M  V30 22 1 22 23
M  V30 23 1 23 24
M  V30 24 1 24 25
M  V30 25 1 25 26
M  V30 26 1 26 27
M  V30 27 1 27 28
M  V30 28 2 27 29
M  V30 29 2 27 30
M  V30 30 1 26 31
M  V30 31 1 31 32
M  V30 32 1 22 33
M  V30 33 2 33 34
M  V30 34 1 34 35
M  V30 35 2 35 36
M  V30 36 2 17 37
M  V30 37 1 11 38
M  V30 38 1 38 39
M  V30 39 1 39 8
M  V30 40 1 37 13
M  V30 41 1 36 18
M  V30 42 1 36 21
M  V30 43 1 32 23
M  V30 44 1 1 40
M  V30 45 1 1 41
M  V30 46 1 1 42
M  V30 47 1 3 43
M  V30 48 1 3 44
M  V30 49 1 3 45
M  V30 50 1 7 46
M  V30 51 1 8 47 CFG=1
M  V30 52 1 9 48
M  V30 53 1 9 49
M  V30 54 1 10 50
M  V30 55 1 10 51
M  V30 56 1 11 52 CFG=1
M  V30 57 1 12 53
M  V30 58 1 15 54
M  V30 59 1 16 55
M  V30 60 1 19 56
M  V30 61 1 20 57
M  V30 62 1 24 58
M  V30 63 1 24 59
M  V30 64 1 25 60
M  V30 65 1 25 61
M  V30 66 1 26 62
M  V30 67 1 28 63
M  V30 68 1 28 64
M  V30 69 1 28 65
M  V30 70 1 31 66
M  V30 71 1 31 67
M  V30 72 1 32 68
M  V30 73 1 32 69
M  V30 74 1 33 70
M  V30 75 1 34 71
M  V30 76 1 35 72
M  V30 77 1 38 73
M  V30 78 1 38 74
M  V30 79 1 39 75
M  V30 80 1 39 76
M  V30 END BOND
M  V30 END CTAB
M  END
>  <Dataset>  (897) 
ChEMBL_Kinases

>  <Ligand_Instance>  (897) 
nan

>  <PDB_ID>  (897) 
nan

>  <Standardized_SMILES>  (897) 
CN(C)S(=O)(=O)N[C@H]1CC[C@H](Nc2nccc(-n3ccc4c(N5CCC(S(C)(=O)=O)CC5)cccc43)n2)CC1

>  <Name>  (897) 
nan

>  <Pocket>  (897) 
nan

>  <ATP_Site>  (897) 
nan

>  <Peripheral>  (897) 
nan

>  <Num_H_Atoms_ProtBoundConf>  (897) 
nan

>  <Num_Resolved_Atoms>  (897) 
nan

>  <Num_Not_Resolved_Atoms>  (897) 
nan

$$$$
CHEMBL3674690
     RDKit          3D

  0  0  0  0  0  0  0  0  0  0999 V3000
M  V30 BEGIN CTAB
M  V30 COUNTS 73 77 0 0 0
M  V30 BEGIN ATOM
M  V30 1 C 2.256823 -2.596509 2.401899 0
M  V30 2 C 3.342509 -2.753020 1.386243 0
M  V30 3 C 4.660358 -2.426171 2.001364 0
M  V30 4 O 3.340603 -4.097117 0.986661 0
M  V30 5 C 3.011383 -1.941794 0.149707 0 CFG=1
M  V30 6 C 2.866267 -0.485440 0.428575 0
M  V30 7 C 3.983587 0.410466 0.030460 0
M  V30 8 C 4.540330 0.200940 -1.349209 0 CFG=2
M  V30 9 N 4.369444 1.382555 -2.147721 0
M  V30 10 C 3.142244 2.001348 -2.514214 0
M  V30 11 N 3.077339 3.122414 -3.270853 0
M  V30 12 C 1.908122 3.690002 -3.608999 0
M  V30 13 C 0.702261 3.160542 -3.202362 0
M  V30 14 C 0.750595 2.018655 -2.430965 0
M  V30 15 N -0.322241 1.254626 -1.869152 0
M  V30 16 C -0.657400 -0.001628 -2.215841 0
M  V30 17 C -1.732011 -0.350582 -1.429556 0
M  V30 18 C -2.050330 0.689779 -0.607814 0
M  V30 19 C -3.037974 0.799111 0.348315 0
M  V30 20 N -4.014662 -0.182677 0.671587 0
M  V30 21 C -4.701423 -0.010182 1.969312 0
M  V30 22 C -5.079450 -1.397404 2.447131 0
M  V30 23 C -4.049664 -2.431303 2.086624 0
M  V30 24 S -4.550448 -4.005349 2.687331 0
M  V30 25 C -6.061480 -4.572878 1.941393 0
M  V30 26 O -3.505317 -5.060676 2.382159 0
M  V30 27 O -4.725672 -4.014155 4.180214 0
M  V30 28 C -3.850974 -2.537435 0.581129 0
M  V30 29 C -4.491261 -1.320945 -0.030932 0
M  V30 30 C -3.049652 2.018327 1.001936 0
M  V30 31 C -2.155923 3.027700 0.719993 0
M  V30 32 C -1.195592 2.872619 -0.236359 0
M  V30 33 C -1.153405 1.684068 -0.900704 0
M  V30 34 N 1.956104 1.505423 -2.131300 0
M  V30 35 C 3.878447 -1.031798 -1.938987 0
M  V30 36 C 3.992043 -2.188773 -0.938030 0
M  V30 37 H 2.226567 -3.536114 3.017783 0
M  V30 38 H 2.398372 -1.731771 3.061449 0
M  V30 39 H 1.243716 -2.557900 1.922192 0
M  V30 40 H 4.682773 -1.384262 2.376895 0
M  V30 41 H 4.723731 -3.050987 2.941739 0
M  V30 42 H 5.547091 -2.714813 1.404912 0
M  V30 43 H 2.427718 -4.405133 0.735068 0
M  V30 44 H 2.031471 -2.391218 -0.210104 0
M  V30 45 H 1.862985 -0.171862 0.052058 0
M  V30 46 H 2.748110 -0.399119 1.547381 0
M  V30 47 H 3.559937 1.461919 0.058398 0
M  V30 48 H 4.782209 0.411615 0.810007 0
M  V30 49 H 5.632684 0.008396 -1.230777 0
M  V30 50 H 5.232411 1.881404 -2.525968 0
M  V30 51 H 1.841079 4.581308 -4.210097 0
M  V30 52 H -0.303055 3.506867 -3.397719 0
M  V30 53 H -0.163382 -0.595821 -2.966698 0
M  V30 54 H -2.189106 -1.300039 -1.497989 0
M  V30 55 H -4.104689 0.537685 2.696928 0
M  V30 56 H -5.635687 0.547790 1.768216 0
M  V30 57 H -5.088656 -1.351441 3.566821 0
M  V30 58 H -6.100221 -1.663137 2.158224 0
M  V30 59 H -3.102611 -2.153877 2.600891 0
M  V30 60 H -6.327707 -5.528427 2.471141 0
M  V30 61 H -5.879217 -4.750871 0.877872 0
M  V30 62 H -6.838854 -3.791476 2.140507 0
M  V30 63 H -2.765365 -2.619292 0.420318 0
M  V30 64 H -4.300603 -3.487153 0.168418 0
M  V30 65 H -4.470371 -1.277033 -1.128425 0
M  V30 66 H -5.597039 -1.440266 0.199720 0
M  V30 67 H -3.749718 2.288891 1.777861 0
M  V30 68 H -2.164302 3.994595 1.236667 0
M  V30 69 H -0.487716 3.656352 -0.468385 0
M  V30 70 H 2.833600 -0.874924 -2.191073 0
M  V30 71 H 4.453310 -1.329636 -2.829733 0
M  V30 72 H 5.005649 -2.177565 -0.481382 0
M  V30 73 H 3.882042 -3.131050 -1.489022 0
M  V30 END ATOM
M  V30 BEGIN BOND
M  V30 1 1 1 2
M  V30 2 1 2 3
M  V30 3 1 2 4
M  V30 4 1 2 5
M  V30 5 1 5 6
M  V30 6 1 6 7
M  V30 7 1 7 8
M  V30 8 1 8 9
M  V30 9 1 9 10
M  V30 10 2 10 11
M  V30 11 1 11 12
M  V30 12 2 12 13
M  V30 13 1 13 14
M  V30 14 1 14 15
M  V30 15 1 15 16
M  V30 16 2 16 17
M  V30 17 1 17 18
M  V30 18 2 18 19
M  V30 19 1 19 20
M  V30 20 1 20 21
M  V30 21 1 21 22
M  V30 22 1 22 23
M  V30 23 1 23 24
M  V30 24 1 24 25
M  V30 25 2 24 26
M  V30 26 2 24 27
M  V30 27 1 23 28
M  V30 28 1 28 29
M  V30 29 1 19 30
M  V30 30 2 30 31
M  V30 31 1 31 32
M  V30 32 2 32 33
M  V30 33 2 14 34
M  V30 34 1 8 35
M  V30 35 1 35 36
M  V30 36 1 36 5
M  V30 37 1 34 10
M  V30 38 1 33 15
M  V30 39 1 33 18
M  V30 40 1 29 20
M  V30 41 1 1 37
M  V30 42 1 1 38
M  V30 43 1 1 39
M  V30 44 1 3 40
M  V30 45 1 3 41
M  V30 46 1 3 42
M  V30 47 1 4 43
M  V30 48 1 5 44 CFG=3
M  V30 49 1 6 45
M  V30 50 1 6 46
M  V30 51 1 7 47
M  V30 52 1 7 48
M  V30 53 1 8 49 CFG=1
M  V30 54 1 9 50
M  V30 55 1 12 51
M  V30 56 1 13 52
M  V30 57 1 16 53
M  V30 58 1 17 54
M  V30 59 1 21 55
M  V30 60 1 21 56
M  V30 61 1 22 57
M  V30 62 1 22 58
M  V30 63 1 23 59
M  V30 64 1 25 60
M  V30 65 1 25 61
M  V30 66 1 25 62
M  V30 67 1 28 63
M  V30 68 1 28 64
M  V30 69 1 29 65
M  V30 70 1 29 66
M  V30 71 1 30 67
M  V30 72 1 31 68
M  V30 73 1 32 69
M  V30 74 1 35 70
M  V30 75 1 35 71
M  V30 76 1 36 72
M  V30 77 1 36 73
M  V30 END BOND
M  V30 END CTAB
M  END
>  <Dataset>  (898) 
ChEMBL_Kinases

>  <Ligand_Instance>  (898) 
nan

>  <PDB_ID>  (898) 
nan

>  <Standardized_SMILES>  (898) 
CC(C)(O)[C@H]1CC[C@H](Nc2nccc(-n3ccc4c(N5CCC(S(C)(=O)=O)CC5)cccc43)n2)CC1

>  <Name>  (898) 
nan

>  <Pocket>  (898) 
nan

>  <ATP_Site>  (898) 
nan

>  <Peripheral>  (898) 
nan

>  <Num_H_Atoms_ProtBoundConf>  (898) 
nan

>  <Num_Resolved_Atoms>  (898) 
nan

>  <Num_Not_Resolved_Atoms>  (898) 
nan

$$$$
CHEMBL3674689
     RDKit          3D

  0  0  0  0  0  0  0  0  0  0999 V3000
M  V30 BEGIN CTAB
M  V30 COUNTS 75 79 0 0 0
M  V30 BEGIN ATOM
M  V30 1 C 5.871451 -3.594012 -2.010679 0
M  V30 2 C 6.310246 -2.176261 -2.008769 0
M  V30 3 O 7.175832 -1.926229 -1.149023 0
M  V30 4 O 5.782190 -1.246223 -2.898125 0
M  V30 5 C 6.262791 0.081942 -2.822477 0
M  V30 6 C 5.663419 1.001817 -3.785676 0
M  V30 7 O 6.213305 2.139328 -3.593036 0
M  V30 8 N 4.678190 0.831448 -4.782580 0
M  V30 9 C 3.911076 -0.337176 -5.193226 0
M  V30 10 C 2.418407 -0.042562 -5.121357 0
M  V30 11 N 2.178019 1.256187 -4.523352 0
M  V30 12 C 1.425615 1.307768 -3.319011 0
M  V30 13 C 2.155699 1.879281 -2.267472 0
M  V30 14 C 1.569595 2.000296 -1.023607 0
M  V30 15 C 0.279159 1.546216 -0.879337 0
M  V30 16 C -0.459271 0.981982 -1.893613 0
M  V30 17 C 0.133020 0.863222 -3.137656 0
M  V30 18 C -0.720554 0.283288 -4.051018 0
M  V30 19 C -1.866680 0.045485 -3.326776 0
M  V30 20 N -1.706912 0.462180 -2.044245 0
M  V30 21 C -2.551940 0.455753 -0.893200 0
M  V30 22 C -3.661332 1.227079 -0.601166 0
M  V30 23 C -4.322402 1.036033 0.594740 0
M  V30 24 N -3.879719 0.094123 1.473834 0
M  V30 25 C -2.801321 -0.666574 1.207561 0
M  V30 26 N -2.324341 -1.654577 2.116270 0
M  V30 27 C -2.947245 -1.917863 3.380884 0 CFG=1
M  V30 28 C -4.363019 -2.365215 3.320454 0
M  V30 29 C -4.954306 -2.635764 4.641222 0
M  V30 30 C -4.079150 -2.607931 5.838000 0 CFG=2
M  V30 31 N -4.294494 -1.493273 6.711118 0
M  V30 32 S -4.921062 -1.864959 8.231546 0
M  V30 33 C -3.764012 -2.928591 9.094426 0
M  V30 34 O -6.188301 -2.653747 8.047528 0
M  V30 35 O -5.109519 -0.671600 9.115085 0
M  V30 36 C -2.624983 -2.834516 5.632577 0
M  V30 37 C -2.195590 -2.937372 4.199898 0
M  V30 38 N -2.171939 -0.466742 0.040478 0
M  V30 39 C 2.818674 2.269418 -5.354141 0
M  V30 40 C 4.262354 1.944229 -5.612253 0
M  V30 41 H 5.479971 -3.913394 -1.027316 0
M  V30 42 H 6.767167 -4.254913 -2.189001 0
M  V30 43 H 5.125958 -3.830260 -2.768379 0
M  V30 44 H 7.356293 0.048033 -2.895395 0
M  V30 45 H 6.040053 0.431150 -1.785115 0
M  V30 46 H 4.172053 -0.541917 -6.243385 0
M  V30 47 H 4.192854 -1.215798 -4.598236 0
M  V30 48 H 1.970745 -0.881235 -4.532494 0
M  V30 49 H 2.042673 -0.007074 -6.158291 0
M  V30 50 H 3.170671 2.244980 -2.353601 0
M  V30 51 H 2.098032 2.440904 -0.166037 0
M  V30 52 H -0.171110 1.641325 0.085117 0
M  V30 53 H -0.520993 0.076224 -5.072336 0
M  V30 54 H -2.785468 -0.394994 -3.648862 0
M  V30 55 H -3.893353 1.930177 -1.391437 0
M  V30 56 H -5.181053 1.670299 0.761722 0
M  V30 57 H -1.499373 -2.216561 1.877323 0
M  V30 58 H -2.928097 -0.969852 3.993709 0
M  V30 59 H -4.427990 -3.252809 2.623730 0
M  V30 60 H -4.950221 -1.578450 2.761627 0
M  V30 61 H -5.773806 -1.880074 4.831160 0
M  V30 62 H -5.546816 -3.595064 4.538167 0
M  V30 63 H -4.413156 -3.490959 6.469107 0
M  V30 64 H -4.494990 -0.598854 6.292184 0
M  V30 65 H -3.843120 -3.969986 8.748091 0
M  V30 66 H -3.946662 -2.858183 10.199024 0
M  V30 67 H -2.743954 -2.552489 8.925204 0
M  V30 68 H -2.051103 -1.953556 6.050498 0
M  V30 69 H -2.193632 -3.698345 6.177819 0
M  V30 70 H -1.114154 -2.710191 4.104325 0
M  V30 71 H -2.354011 -3.934448 3.740883 0
M  V30 72 H 2.280741 2.300862 -6.310010 0
M  V30 73 H 2.788070 3.269136 -4.857345 0
M  V30 74 H 4.931647 2.812838 -5.354913 0
M  V30 75 H 4.371304 1.666478 -6.680518 0
M  V30 END ATOM
M  V30 BEGIN BOND
M  V30 1 1 1 2
M  V30 2 2 2 3
M  V30 3 1 2 4
M  V30 4 1 4 5
M  V30 5 1 5 6
M  V30 6 2 6 7
M  V30 7 1 6 8
M  V30 8 1 8 9
M  V30 9 1 9 10
M  V30 10 1 10 11
M  V30 11 1 11 12
M  V30 12 2 12 13
M  V30 13 1 13 14
M  V30 14 2 14 15
M  V30 15 1 15 16
M  V30 16 2 16 17
M  V30 17 1 17 18
M  V30 18 2 18 19
M  V30 19 1 19 20
M  V30 20 1 20 21
M  V30 21 2 21 22
M  V30 22 1 22 23
M  V30 23 2 23 24
M  V30 24 1 24 25
M  V30 25 1 25 26
M  V30 26 1 26 27
M  V30 27 1 27 28
M  V30 28 1 28 29
M  V30 29 1 29 30
M  V30 30 1 30 31
M  V30 31 1 31 32
M  V30 32 1 32 33
M  V30 33 2 32 34
M  V30 34 2 32 35
M  V30 35 1 30 36
M  V30 36 1 36 37
M  V30 37 2 25 38
M  V30 38 1 11 39
M  V30 39 1 39 40
M  V30 40 1 40 8
M  V30 41 1 17 12
M  V30 42 1 38 21
M  V30 43 1 20 16
M  V30 44 1 37 27
M  V30 45 1 1 41
M  V30 46 1 1 42
M  V30 47 1 1 43
M  V30 48 1 5 44
M  V30 49 1 5 45
M  V30 50 1 9 46
M  V30 51 1 9 47
M  V30 52 1 10 48
M  V30 53 1 10 49
M  V30 54 1 13 50
M  V30 55 1 14 51
M  V30 56 1 15 52
M  V30 57 1 18 53
M  V30 58 1 19 54
M  V30 59 1 22 55
M  V30 60 1 23 56
M  V30 61 1 26 57
M  V30 62 1 27 58 CFG=1
M  V30 63 1 28 59
M  V30 64 1 28 60
M  V30 65 1 29 61
M  V30 66 1 29 62
M  V30 67 1 30 63 CFG=1
M  V30 68 1 31 64
M  V30 69 1 33 65
M  V30 70 1 33 66
M  V30 71 1 33 67
M  V30 72 1 36 68
M  V30 73 1 36 69
M  V30 74 1 37 70
M  V30 75 1 37 71
M  V30 76 1 39 72
M  V30 77 1 39 73
M  V30 78 1 40 74
M  V30 79 1 40 75
M  V30 END BOND
M  V30 END CTAB
M  END
>  <Dataset>  (899) 
ChEMBL_Kinases

>  <Ligand_Instance>  (899) 
nan

>  <PDB_ID>  (899) 
nan

>  <Standardized_SMILES>  (899) 
CC(=O)OCC(=O)N1CCN(c2cccc3c2ccn3-c2ccnc(N[C@H]3CC[C@H](NS(C)(=O)=O)CC3)n2)CC1

>  <Name>  (899) 
nan

>  <Pocket>  (899) 
nan

>  <ATP_Site>  (899) 
nan

>  <Peripheral>  (899) 
nan

>  <Num_H_Atoms_ProtBoundConf>  (899) 
nan

>  <Num_Resolved_Atoms>  (899) 
nan

>  <Num_Not_Resolved_Atoms>  (899) 
nan

$$$$
CHEMBL3673617
     RDKit          3D

  0  0  0  0  0  0  0  0  0  0999 V3000
M  V30 BEGIN CTAB
M  V30 COUNTS 58 62 0 0 0
M  V30 BEGIN ATOM
M  V30 1 C 0.715398 -3.715575 3.121472 0
M  V30 2 C 2.045694 -3.261161 2.599080 0
M  V30 3 C 3.124473 -3.755379 3.538481 0
M  V30 4 N 2.312970 -3.649613 1.236137 0
M  V30 5 C 2.209261 -2.823089 0.173932 0
M  V30 6 N 1.830122 -1.450768 0.173629 0
M  V30 7 C 2.540027 -0.227376 0.287653 0
M  V30 8 O 3.766040 -0.263651 0.420275 0
M  V30 9 C 1.742067 0.996899 0.237257 0
M  V30 10 C 2.426818 2.169876 0.346991 0
M  V30 11 C 1.669267 3.345872 0.299564 0
M  V30 12 C 0.295291 3.349397 0.149866 0
M  V30 13 C -0.649121 4.353196 0.076922 0
M  V30 14 C -1.855118 3.696658 -0.074197 0
M  V30 15 N -1.658498 2.346511 -0.093139 0
M  V30 16 C -0.332236 2.133615 0.045089 0
M  V30 17 N 0.394002 1.000693 0.090392 0
M  V30 18 C -2.570629 1.250540 -0.225365 0
M  V30 19 C -3.892377 1.567501 -0.833794 0
M  V30 20 C -4.649037 0.249171 -0.930454 0
M  V30 21 C -3.796381 2.151928 -2.205378 0
M  V30 22 C -4.764419 2.424102 0.086517 0
M  V30 23 N -4.480926 3.830256 -0.093103 0
M  V30 24 C -3.156973 4.376835 -0.195779 0
M  V30 25 O -3.077259 5.627364 -0.424502 0
M  V30 26 N 2.541762 -3.558949 -0.926818 0
M  V30 27 C 2.844702 -4.826797 -0.523224 0
M  V30 28 C 3.237166 -5.933313 -1.262304 0
M  V30 29 C 3.496971 -7.137919 -0.640081 0
M  V30 30 C 3.352107 -7.196529 0.732260 0
M  V30 31 C 2.960769 -6.089801 1.461245 0
M  V30 32 C 2.696568 -4.873579 0.849136 0
M  V30 33 H 0.787054 -4.200790 4.120119 0
M  V30 34 H -0.019572 -2.868918 3.257308 0
M  V30 35 H 0.296701 -4.449131 2.402372 0
M  V30 36 H 2.044851 -2.137357 2.708066 0
M  V30 37 H 4.032415 -4.117636 3.012137 0
M  V30 38 H 2.722130 -4.504562 4.277447 0
M  V30 39 H 3.519182 -2.940098 4.213192 0
M  V30 40 H 0.774248 -1.491512 0.057244 0
M  V30 41 H 3.485951 2.238331 0.464514 0
M  V30 42 H 2.144756 4.311172 0.380270 0
M  V30 43 H -0.471638 5.419650 0.128170 0
M  V30 44 H -2.107317 0.450513 -0.840033 0
M  V30 45 H -2.780364 0.767762 0.769566 0
M  V30 46 H -5.757194 0.412159 -0.841820 0
M  V30 47 H -4.381213 -0.261212 -1.871490 0
M  V30 48 H -4.392270 -0.329950 -0.014254 0
M  V30 49 H -2.900852 2.814733 -2.336670 0
M  V30 50 H -3.668243 1.316811 -2.921687 0
M  V30 51 H -4.738930 2.690674 -2.440796 0
M  V30 52 H -4.610653 2.059297 1.114182 0
M  V30 53 H -5.818526 2.253043 -0.219731 0
M  V30 54 H -5.274791 4.494599 -0.152846 0
M  V30 55 H 3.328731 -5.802234 -2.351119 0
M  V30 56 H 3.796094 -7.954231 -1.267051 0
M  V30 57 H 3.563660 -8.163696 1.206654 0
M  V30 58 H 2.851896 -6.152184 2.535762 0
M  V30 END ATOM
M  V30 BEGIN BOND
M  V30 1 1 1 2
M  V30 2 1 2 3
M  V30 3 1 2 4
M  V30 4 1 4 5
M  V30 5 1 5 6
M  V30 6 1 6 7
M  V30 7 2 7 8
M  V30 8 1 7 9
M  V30 9 2 9 10
M  V30 10 1 10 11
M  V30 11 2 11 12
M  V30 12 1 12 13
M  V30 13 2 13 14
M  V30 14 1 14 15
M  V30 15 1 15 16
M  V30 16 2 16 17
M  V30 17 1 15 18
M  V30 18 1 18 19
M  V30 19 1 19 20
M  V30 20 1 19 21
M  V30 21 1 19 22
M  V30 22 1 22 23
M  V30 23 1 23 24
M  V30 24 2 24 25
M  V30 25 2 5 26
M  V30 26 1 26 27
M  V30 27 2 27 28
M  V30 28 1 28 29
M  V30 29 2 29 30
M  V30 30 1 30 31
M  V30 31 2 31 32
M  V30 32 1 32 4
M  V30 33 1 17 9
M  V30 34 1 32 27
M  V30 35 1 16 12
M  V30 36 1 24 14
M  V30 37 1 1 33
M  V30 38 1 1 34
M  V30 39 1 1 35
M  V30 40 1 2 36
M  V30 41 1 3 37
M  V30 42 1 3 38
M  V30 43 1 3 39
M  V30 44 1 6 40
M  V30 45 1 10 41
M  V30 46 1 11 42
M  V30 47 1 13 43
M  V30 48 1 18 44
M  V30 49 1 18 45
M  V30 50 1 20 46
M  V30 51 1 20 47
M  V30 52 1 20 48
M  V30 53 1 21 49
M  V30 54 1 21 50
M  V30 55 1 21 51
M  V30 56 1 22 52
M  V30 57 1 22 53
M  V30 58 1 23 54
M  V30 59 1 28 55
M  V30 60 1 29 56
M  V30 61 1 30 57
M  V30 62 1 31 58
M  V30 END BOND
M  V30 END CTAB
M  END
>  <Dataset>  (900) 
ChEMBL_Kinases

>  <Ligand_Instance>  (900) 
nan

>  <PDB_ID>  (900) 
nan

>  <Standardized_SMILES>  (900) 
CC(C)n1c(NC(=O)c2ccc3cc4n(c3n2)CC(C)(C)CNC4=O)nc2ccccc21

>  <Name>  (900) 
nan

>  <Pocket>  (900) 
nan

>  <ATP_Site>  (900) 
nan

>  <Peripheral>  (900) 
nan

>  <Num_H_Atoms_ProtBoundConf>  (900) 
nan

>  <Num_Resolved_Atoms>  (900) 
nan

>  <Num_Not_Resolved_Atoms>  (900) 
nan

$$$$
CHEMBL3674602
     RDKit          3D

  0  0  0  0  0  0  0  0  0  0999 V3000
M  V30 BEGIN CTAB
M  V30 COUNTS 64 68 0 0 0
M  V30 BEGIN ATOM
M  V30 1 C -2.522838 1.755680 3.055046 0
M  V30 2 N -1.414476 0.843945 3.071843 0
M  V30 3 C -0.644276 1.039870 4.248696 0
M  V30 4 C -1.819598 -0.462940 2.717681 0
M  V30 5 C -0.691039 -1.503809 2.682726 0 CFG=1
M  V30 6 O 0.281525 -1.066217 1.795992 0
M  V30 7 C 0.603611 -1.515153 0.562063 0
M  V30 8 O 0.041395 -2.489453 -0.058925 0
M  V30 9 N 1.628086 -0.972569 -0.266436 0
M  V30 10 C 2.001936 -1.409047 -1.622216 0
M  V30 11 C 1.869451 -0.107306 -2.325897 0
M  V30 12 C 2.267672 0.853912 -1.419130 0
M  V30 13 N 2.157137 2.065612 -2.004755 0
M  V30 14 N 1.700248 1.901061 -3.255137 0
M  V30 15 C 1.521160 0.573485 -3.465403 0
M  V30 16 N 1.057964 0.062197 -4.686113 0
M  V30 17 C -0.205969 -0.513876 -4.953449 0
M  V30 18 N -0.625580 -0.876328 -6.178136 0
M  V30 19 C -1.829757 -1.440372 -6.405714 0
M  V30 20 N -2.687393 -1.672117 -5.396710 0
M  V30 21 C -2.365888 -1.345474 -4.117004 0
M  V30 22 C -1.116899 -0.766748 -3.927417 0
M  V30 23 N -1.058434 -0.550418 -2.607154 0
M  V30 24 C -2.192572 -0.963576 -2.007949 0
M  V30 25 N -3.021827 -1.465116 -2.948524 0
M  V30 26 C -4.334449 -2.002877 -2.723995 0
M  V30 27 C 2.638238 0.097635 -0.185168 0
M  V30 28 C 4.035554 -0.390235 -0.307713 0
M  V30 29 C 2.468635 0.933833 1.054231 0
M  V30 30 C -0.304230 -1.882806 4.020416 0
M  V30 31 C 0.948483 -1.919675 4.623125 0
M  V30 32 C 1.217455 -2.316822 5.914636 0
M  V30 33 C 0.141967 -2.724338 6.709410 0
M  V30 34 C -1.110049 -2.697488 6.136143 0
M  V30 35 C -1.361530 -2.296980 4.841021 0
M  V30 36 H -2.182573 2.773993 2.695047 0
M  V30 37 H -2.943247 1.921466 4.086068 0
M  V30 38 H -3.350403 1.468257 2.370236 0
M  V30 39 H -1.117381 0.529378 5.098565 0
M  V30 40 H -0.682959 2.162342 4.457130 0
M  V30 41 H 0.439014 0.840362 4.119893 0
M  V30 42 H -2.244433 -0.408020 1.678648 0
M  V30 43 H -2.631995 -0.804963 3.414109 0
M  V30 44 H -1.244519 -2.417370 2.252723 0
M  V30 45 H 1.282577 -2.159098 -2.011769 0
M  V30 46 H 3.045286 -1.754178 -1.659285 0
M  V30 47 H 1.562827 2.767306 -3.844259 0
M  V30 48 H 1.745831 0.124171 -5.464845 0
M  V30 49 H -1.958972 -1.648468 -7.453156 0
M  V30 50 H -2.437965 -0.916411 -0.938513 0
M  V30 51 H -4.792527 -1.590828 -1.781102 0
M  V30 52 H -4.280646 -3.102055 -2.536019 0
M  V30 53 H -5.039045 -1.763795 -3.563426 0
M  V30 54 H 4.681112 0.275825 0.323748 0
M  V30 55 H 4.471572 -0.335631 -1.324334 0
M  V30 56 H 4.156098 -1.422741 0.134341 0
M  V30 57 H 2.469353 0.267461 1.928998 0
M  V30 58 H 1.574021 1.571078 0.972105 0
M  V30 59 H 3.350023 1.599723 1.156792 0
M  V30 60 H 1.736998 -1.588414 3.941771 0
M  V30 61 H 2.245243 -2.301839 6.277053 0
M  V30 62 H 0.366284 -3.033667 7.718265 0
M  V30 63 H -1.858562 -3.040456 6.866885 0
M  V30 64 H -2.424260 -2.374298 4.647959 0
M  V30 END ATOM
M  V30 BEGIN BOND
M  V30 1 1 1 2
M  V30 2 1 2 3
M  V30 3 1 2 4
M  V30 4 1 4 5
M  V30 5 1 5 6
M  V30 6 1 6 7
M  V30 7 2 7 8
M  V30 8 1 7 9
M  V30 9 1 9 10
M  V30 10 1 10 11
M  V30 11 1 11 12
M  V30 12 2 12 13
M  V30 13 1 13 14
M  V30 14 1 14 15
M  V30 15 1 15 16
M  V30 16 1 16 17
M  V30 17 2 17 18
M  V30 18 1 18 19
M  V30 19 2 19 20
M  V30 20 1 20 21
M  V30 21 2 21 22
M  V30 22 1 22 23
M  V30 23 2 23 24
M  V30 24 1 24 25
M  V30 25 1 25 26
M  V30 26 1 12 27
M  V30 27 1 27 28
M  V30 28 1 27 29
M  V30 29 1 5 30
M  V30 30 2 30 31
M  V30 31 1 31 32
M  V30 32 2 32 33
M  V30 33 1 33 34
M  V30 34 2 34 35
M  V30 35 1 27 9
M  V30 36 1 35 30
M  V30 37 2 15 11
M  V30 38 1 22 17
M  V30 39 1 25 21
M  V30 40 1 1 36
M  V30 41 1 1 37
M  V30 42 1 1 38
M  V30 43 1 3 39
M  V30 44 1 3 40
M  V30 45 1 3 41
M  V30 46 1 4 42
M  V30 47 1 4 43
M  V30 48 1 5 44 CFG=3
M  V30 49 1 10 45
M  V30 50 1 10 46
M  V30 51 1 14 47
M  V30 52 1 16 48
M  V30 53 1 19 49
M  V30 54 1 24 50
M  V30 55 1 26 51
M  V30 56 1 26 52
M  V30 57 1 26 53
M  V30 58 1 28 54
M  V30 59 1 28 55
M  V30 60 1 28 56
M  V30 61 1 29 57
M  V30 62 1 29 58
M  V30 63 1 29 59
M  V30 64 1 31 60
M  V30 65 1 32 61
M  V30 66 1 33 62
M  V30 67 1 34 63
M  V30 68 1 35 64
M  V30 END BOND
M  V30 END CTAB
M  END
>  <Dataset>  (901) 
ChEMBL_Kinases

>  <Ligand_Instance>  (901) 
nan

>  <PDB_ID>  (901) 
nan

>  <Standardized_SMILES>  (901) 
CN(C)C[C@@H](OC(=O)N1Cc2c(n[nH]c2Nc2ncnc3c2ncn3C)C1(C)C)c1ccccc1

>  <Name>  (901) 
nan

>  <Pocket>  (901) 
nan

>  <ATP_Site>  (901) 
nan

>  <Peripheral>  (901) 
nan

>  <Num_H_Atoms_ProtBoundConf>  (901) 
nan

>  <Num_Resolved_Atoms>  (901) 
nan

>  <Num_Not_Resolved_Atoms>  (901) 
nan

$$$$
CHEMBL3674603
     RDKit          3D

  0  0  0  0  0  0  0  0  0  0999 V3000
M  V30 BEGIN CTAB
M  V30 COUNTS 62 65 0 0 0
M  V30 BEGIN ATOM
M  V30 1 C 6.355646 0.374123 1.097749 0
M  V30 2 O 5.788109 -0.776215 0.545484 0
M  V30 3 C 5.194185 -0.820413 -0.696614 0
M  V30 4 N 5.141871 0.300423 -1.457334 0
M  V30 5 C 4.552482 0.218650 -2.663886 0
M  V30 6 C 4.019687 -0.972890 -3.107017 0
M  V30 7 F 3.478670 -0.826677 -4.355828 0
M  V30 8 C 4.083208 -2.120660 -2.307964 0
M  V30 9 N 3.461564 -3.223548 -2.949885 0
M  V30 10 C 2.226810 -3.448774 -2.284205 0
M  V30 11 N 1.952267 -4.498193 -1.448622 0
M  V30 12 N 0.727814 -4.442259 -0.974217 0
M  V30 13 C 0.077199 -3.349757 -1.451393 0
M  V30 14 C 1.034815 -2.765473 -2.252726 0
M  V30 15 C 0.445871 -1.536189 -2.827097 0
M  V30 16 N -0.575065 -1.225983 -1.814000 0
M  V30 17 C -0.797355 0.079107 -1.296384 0
M  V30 18 O -0.027655 1.008093 -1.646569 0
M  V30 19 O -1.890651 0.183559 -0.428153 0
M  V30 20 C -2.148455 1.476095 0.121289 0 CFG=2
M  V30 21 C -2.466144 1.497019 1.557112 0
M  V30 22 N -2.685193 2.782812 2.104400 0
M  V30 23 C -3.843829 3.502039 1.714764 0
M  V30 24 C -2.656164 2.697151 3.556405 0
M  V30 25 C -3.333470 1.912243 -0.748235 0
M  V30 26 C -4.444594 1.119123 -1.017787 0
M  V30 27 C -5.427177 1.639206 -1.843456 0
M  V30 28 C -5.335859 2.898684 -2.394581 0
M  V30 29 C -4.252798 3.720271 -2.153734 0
M  V30 30 C -3.283105 3.183256 -1.328887 0
M  V30 31 C -1.168359 -2.492543 -1.520340 0
M  V30 32 C -2.029662 -3.079958 -2.581733 0
M  V30 33 C -1.877518 -2.556236 -0.185680 0
M  V30 34 N 4.678920 -2.003867 -1.109128 0
M  V30 35 H 5.658206 0.839763 1.849197 0
M  V30 36 H 7.332437 0.200322 1.568938 0
M  V30 37 H 6.509721 1.174175 0.320297 0
M  V30 38 H 4.565094 1.158350 -3.189695 0
M  V30 39 H 3.830989 -3.770387 -3.752985 0
M  V30 40 H 2.611746 -5.275277 -1.191782 0
M  V30 41 H 1.160177 -0.713513 -2.953096 0
M  V30 42 H -0.087278 -1.800628 -3.780597 0
M  V30 43 H -1.319807 2.151584 -0.140116 0
M  V30 44 H -1.564188 1.088215 2.094994 0
M  V30 45 H -3.367502 0.883033 1.808090 0
M  V30 46 H -4.365493 3.861349 2.653971 0
M  V30 47 H -3.603127 4.488836 1.212154 0
M  V30 48 H -4.624420 2.956388 1.180688 0
M  V30 49 H -3.641977 3.045167 3.984355 0
M  V30 50 H -2.586791 1.633202 3.846526 0
M  V30 51 H -1.811584 3.254215 3.996132 0
M  V30 52 H -4.453452 0.160543 -0.561729 0
M  V30 53 H -6.290525 1.036142 -2.058387 0
M  V30 54 H -6.077998 3.347589 -3.048586 0
M  V30 55 H -4.072943 4.715954 -2.525179 0
M  V30 56 H -2.402883 3.779002 -1.100010 0
M  V30 57 H -2.493258 -2.244459 -3.144116 0
M  V30 58 H -1.499071 -3.739867 -3.279419 0
M  V30 59 H -2.897912 -3.633008 -2.130587 0
M  V30 60 H -2.191548 -3.636875 -0.088180 0
M  V30 61 H -1.214039 -2.348669 0.671069 0
M  V30 62 H -2.789933 -1.961547 -0.225170 0
M  V30 END ATOM
M  V30 BEGIN BOND
M  V30 1 1 1 2
M  V30 2 1 2 3
M  V30 3 2 3 4
M  V30 4 1 4 5
M  V30 5 2 5 6
M  V30 6 1 6 7
M  V30 7 1 6 8
M  V30 8 1 8 9
M  V30 9 1 9 10
M  V30 10 1 10 11
M  V30 11 1 11 12
M  V30 12 2 12 13
M  V30 13 1 13 14
M  V30 14 1 14 15
M  V30 15 1 15 16
M  V30 16 1 16 17
M  V30 17 2 17 18
M  V30 18 1 17 19
M  V30 19 1 19 20
M  V30 20 1 20 21
M  V30 21 1 21 22
M  V30 22 1 22 23
M  V30 23 1 22 24
M  V30 24 1 20 25
M  V30 25 2 25 26
M  V30 26 1 26 27
M  V30 27 2 27 28
M  V30 28 1 28 29
M  V30 29 2 29 30
M  V30 30 1 16 31
M  V30 31 1 31 32
M  V30 32 1 31 33
M  V30 33 2 8 34
M  V30 34 1 34 3
M  V30 35 2 14 10
M  V30 36 1 30 25
M  V30 37 1 31 13
M  V30 38 1 1 35
M  V30 39 1 1 36
M  V30 40 1 1 37
M  V30 41 1 5 38
M  V30 42 1 9 39
M  V30 43 1 11 40
M  V30 44 1 15 41
M  V30 45 1 15 42
M  V30 46 1 20 43 CFG=1
M  V30 47 1 21 44
M  V30 48 1 21 45
M  V30 49 1 23 46
M  V30 50 1 23 47
M  V30 51 1 23 48
M  V30 52 1 24 49
M  V30 53 1 24 50
M  V30 54 1 24 51
M  V30 55 1 26 52
M  V30 56 1 27 53
M  V30 57 1 28 54
M  V30 58 1 29 55
M  V30 59 1 30 56
M  V30 60 1 32 57
M  V30 61 1 32 58
M  V30 62 1 32 59
M  V30 63 1 33 60
M  V30 64 1 33 61
M  V30 65 1 33 62
M  V30 END BOND
M  V30 END CTAB
M  END
>  <Dataset>  (902) 
ChEMBL_Kinases

>  <Ligand_Instance>  (902) 
nan

>  <PDB_ID>  (902) 
nan

>  <Standardized_SMILES>  (902) 
COc1ncc(F)c(Nc2[nH]nc3c2CN(C(=O)O[C@H](CN(C)C)c2ccccc2)C3(C)C)n1

>  <Name>  (902) 
nan

>  <Pocket>  (902) 
nan

>  <ATP_Site>  (902) 
nan

>  <Peripheral>  (902) 
nan

>  <Num_H_Atoms_ProtBoundConf>  (902) 
nan

>  <Num_Resolved_Atoms>  (902) 
nan

>  <Num_Not_Resolved_Atoms>  (902) 
nan

$$$$
CHEMBL3674604
     RDKit          3D

  0  0  0  0  0  0  0  0  0  0999 V3000
M  V30 BEGIN CTAB
M  V30 COUNTS 58 61 0 0 0
M  V30 BEGIN ATOM
M  V30 1 C 5.424251 -1.513487 1.768385 0
M  V30 2 N 3.990719 -1.307780 1.763551 0
M  V30 3 C 3.557904 -1.025734 3.098772 0
M  V30 4 C 3.398048 -2.567217 1.276939 0
M  V30 5 C 1.897417 -2.479804 1.246992 0 CFG=1
M  V30 6 O 1.381378 -1.490148 0.437789 0
M  V30 7 C 0.639278 -0.409730 0.803633 0
M  V30 8 O 0.166636 0.098671 1.867672 0
M  V30 9 N 0.158677 0.545699 -0.133709 0
M  V30 10 C -0.622456 1.746096 0.117381 0
M  V30 11 C -1.754048 1.566772 -0.825815 0
M  V30 12 C -1.212364 0.892265 -1.899031 0
M  V30 13 N -2.214938 0.708308 -2.768082 0
M  V30 14 N -3.352433 1.209975 -2.340667 0
M  V30 15 C -3.082384 1.745374 -1.138344 0
M  V30 16 N -4.012196 2.416897 -0.300969 0
M  V30 17 C -4.859804 2.230368 0.823692 0
M  V30 18 N -4.213487 2.645718 1.956643 0
M  V30 19 C -4.806861 2.572523 3.173618 0
M  V30 20 N -6.068107 2.068902 3.213425 0
M  V30 21 C -6.710456 1.661688 2.130220 0
M  V30 22 C -6.160818 1.711496 0.868119 0
M  V30 23 F -6.638643 1.353343 -0.332164 0
M  V30 24 C 0.242856 0.685074 -1.591672 0
M  V30 25 C 0.986847 1.915347 -1.995121 0
M  V30 26 C 0.776416 -0.540744 -2.247497 0
M  V30 27 C 1.377486 -3.799273 0.830125 0
M  V30 28 C 0.899682 -4.749457 1.718431 0
M  V30 29 C 0.426715 -5.968658 1.290782 0
M  V30 30 C 0.431750 -6.244404 -0.056026 0
M  V30 31 C 0.885267 -5.370223 -1.028153 0
M  V30 32 C 1.345841 -4.163341 -0.517341 0
M  V30 33 H 5.943717 -0.822575 2.460340 0
M  V30 34 H 5.816950 -1.468167 0.741959 0
M  V30 35 H 5.663459 -2.535073 2.143492 0
M  V30 36 H 2.487584 -0.675797 3.148142 0
M  V30 37 H 3.725188 -1.931274 3.736505 0
M  V30 38 H 4.227161 -0.236868 3.514952 0
M  V30 39 H 3.664709 -3.323869 2.043359 0
M  V30 40 H 3.855587 -2.916326 0.348091 0
M  V30 41 H 1.592476 -2.296645 2.302700 0
M  V30 42 H -0.959017 1.826001 1.168580 0
M  V30 43 H 0.002210 2.622019 -0.152720 0
M  V30 44 H -4.301728 1.238220 -2.761699 0
M  V30 45 H -4.134986 3.415591 -0.605966 0
M  V30 46 H -4.340434 2.887510 4.089710 0
M  V30 47 H -7.719209 1.249355 2.106714 0
M  V30 48 H 0.318605 2.814112 -2.144702 0
M  V30 49 H 1.750683 2.192481 -1.212925 0
M  V30 50 H 1.567389 1.751675 -2.933231 0
M  V30 51 H 0.312553 -1.451776 -1.828934 0
M  V30 52 H 1.883056 -0.517344 -2.192555 0
M  V30 53 H 0.511397 -0.502400 -3.326965 0
M  V30 54 H 0.893201 -4.527883 2.794980 0
M  V30 55 H 0.045461 -6.736434 1.962945 0
M  V30 56 H 0.058551 -7.206276 -0.405195 0
M  V30 57 H 0.885737 -5.592441 -2.072143 0
M  V30 58 H 1.716137 -3.438181 -1.249744 0
M  V30 END ATOM
M  V30 BEGIN BOND
M  V30 1 1 1 2
M  V30 2 1 2 3
M  V30 3 1 2 4
M  V30 4 1 4 5
M  V30 5 1 5 6
M  V30 6 1 6 7
M  V30 7 2 7 8
M  V30 8 1 7 9
M  V30 9 1 9 10
M  V30 10 1 10 11
M  V30 11 1 11 12
M  V30 12 2 12 13
M  V30 13 1 13 14
M  V30 14 1 14 15
M  V30 15 1 15 16
M  V30 16 1 16 17
M  V30 17 2 17 18
M  V30 18 1 18 19
M  V30 19 2 19 20
M  V30 20 1 20 21
M  V30 21 2 21 22
M  V30 22 1 22 23
M  V30 23 1 12 24
M  V30 24 1 24 25
M  V30 25 1 24 26
M  V30 26 1 5 27
M  V30 27 2 27 28
M  V30 28 1 28 29
M  V30 29 2 29 30
M  V30 30 1 30 31
M  V30 31 2 31 32
M  V30 32 1 24 9
M  V30 33 1 32 27
M  V30 34 2 15 11
M  V30 35 1 22 17
M  V30 36 1 1 33
M  V30 37 1 1 34
M  V30 38 1 1 35
M  V30 39 1 3 36
M  V30 40 1 3 37
M  V30 41 1 3 38
M  V30 42 1 4 39
M  V30 43 1 4 40
M  V30 44 1 5 41 CFG=1
M  V30 45 1 10 42
M  V30 46 1 10 43
M  V30 47 1 14 44
M  V30 48 1 16 45
M  V30 49 1 19 46
M  V30 50 1 21 47
M  V30 51 1 25 48
M  V30 52 1 25 49
M  V30 53 1 25 50
M  V30 54 1 26 51
M  V30 55 1 26 52
M  V30 56 1 26 53
M  V30 57 1 28 54
M  V30 58 1 29 55
M  V30 59 1 30 56
M  V30 60 1 31 57
M  V30 61 1 32 58
M  V30 END BOND
M  V30 END CTAB
M  END
>  <Dataset>  (903) 
ChEMBL_Kinases

>  <Ligand_Instance>  (903) 
nan

>  <PDB_ID>  (903) 
nan

>  <Standardized_SMILES>  (903) 
CN(C)C[C@@H](OC(=O)N1Cc2c(n[nH]c2Nc2ncncc2F)C1(C)C)c1ccccc1

>  <Name>  (903) 
nan

>  <Pocket>  (903) 
nan

>  <ATP_Site>  (903) 
nan

>  <Peripheral>  (903) 
nan

>  <Num_H_Atoms_ProtBoundConf>  (903) 
nan

>  <Num_Resolved_Atoms>  (903) 
nan

>  <Num_Not_Resolved_Atoms>  (903) 
nan

$$$$
CHEMBL3674605
     RDKit          3D

  0  0  0  0  0  0  0  0  0  0999 V3000
M  V30 BEGIN CTAB
M  V30 COUNTS 63 68 0 0 0
M  V30 BEGIN ATOM
M  V30 1 C 2.751322 -4.457110 -2.074620 0
M  V30 2 C 2.986893 -3.235462 -1.267080 0
M  V30 3 C 2.375623 -3.274134 0.087105 0
M  V30 4 S 2.881538 -1.586663 0.768545 0
M  V30 5 C 3.754238 -1.059879 -0.652140 0
M  V30 6 C 4.426617 0.111029 -0.910290 0
M  V30 7 N 4.423111 1.094765 0.082119 0
M  V30 8 C 3.757255 1.006538 1.329651 0
M  V30 9 N 4.011257 0.711414 2.617499 0
M  V30 10 N 2.923002 0.785427 3.362202 0
M  V30 11 C 1.852781 1.136379 2.622734 0
M  V30 12 C 2.375111 1.275132 1.354129 0
M  V30 13 C 1.195943 1.672697 0.525355 0
M  V30 14 N 0.129313 0.947281 1.163022 0
M  V30 15 C -0.756199 0.111329 0.500499 0
M  V30 16 O -0.114027 0.401464 -0.542510 0
M  V30 17 N -1.871149 -0.759525 0.543919 0
M  V30 18 C -2.807692 -1.286053 1.553526 0
M  V30 19 C -4.125772 -0.823354 0.984074 0 CFG=2
M  V30 20 C -5.297483 -0.904774 1.896546 0
M  V30 21 C -6.427132 -0.923899 0.850404 0
M  V30 22 C -5.738094 -1.378265 -0.447605 0
M  V30 23 N -4.475360 -1.841578 0.014156 0
M  V30 24 C -3.436688 -2.033290 -0.911557 0
M  V30 25 C -2.183925 -1.280652 -0.780208 0 CFG=2
M  V30 26 C -1.013324 -2.191452 -1.153914 0
M  V30 27 C 0.396469 1.424588 2.514545 0
M  V30 28 C 0.153131 2.883456 2.609556 0
M  V30 29 C -0.364382 0.593796 3.531035 0
M  V30 30 N 5.042329 0.296647 -2.103776 0
M  V30 31 C 4.926386 -0.737487 -2.960172 0
M  V30 32 N 4.274549 -1.870200 -2.710738 0
M  V30 33 C 3.652616 -2.090180 -1.539948 0
M  V30 34 H 1.659440 -4.669941 -2.181834 0
M  V30 35 H 3.194835 -5.350590 -1.615311 0
M  V30 36 H 3.190356 -4.329716 -3.079893 0
M  V30 37 H 1.800139 -4.060843 0.550176 0
M  V30 38 H 4.952247 1.969962 -0.104810 0
M  V30 39 H 5.015207 0.470842 2.829082 0
M  V30 40 H 0.955675 2.756054 0.669180 0
M  V30 41 H 1.350059 1.488000 -0.533885 0
M  V30 42 H -2.696314 -2.387533 1.516057 0
M  V30 43 H -2.601750 -0.952884 2.560269 0
M  V30 44 H -4.047052 0.163401 0.495988 0
M  V30 45 H -5.291242 -1.894867 2.370370 0
M  V30 46 H -5.391696 -0.049436 2.572467 0
M  V30 47 H -7.214221 -1.620209 1.156910 0
M  V30 48 H -6.765999 0.119736 0.689540 0
M  V30 49 H -6.378726 -2.188466 -0.854544 0
M  V30 50 H -5.589050 -0.535858 -1.138840 0
M  V30 51 H -3.202685 -3.145167 -0.957314 0
M  V30 52 H -3.856282 -1.832928 -1.934280 0
M  V30 53 H -2.153297 -0.452704 -1.541549 0
M  V30 54 H -1.269996 -3.252878 -0.925398 0
M  V30 55 H -0.121769 -1.959718 -0.551983 0
M  V30 56 H -0.826703 -2.145892 -2.233790 0
M  V30 57 H 1.045665 3.509171 2.531442 0
M  V30 58 H -0.641841 3.123227 1.852291 0
M  V30 59 H -0.319519 3.089525 3.619918 0
M  V30 60 H -0.215146 -0.478229 3.240015 0
M  V30 61 H 0.091766 0.689618 4.539179 0
M  V30 62 H -1.421324 0.879129 3.544677 0
M  V30 63 H 5.415500 -0.601362 -3.919899 0
M  V30 END ATOM
M  V30 BEGIN BOND
M  V30 1 1 1 2
M  V30 2 2 2 3
M  V30 3 1 3 4
M  V30 4 1 4 5
M  V30 5 2 5 6
M  V30 6 1 6 7
M  V30 7 1 7 8
M  V30 8 1 8 9
M  V30 9 1 9 10
M  V30 10 2 10 11
M  V30 11 1 11 12
M  V30 12 1 12 13
M  V30 13 1 13 14
M  V30 14 1 14 15
M  V30 15 2 15 16
M  V30 16 1 15 17
M  V30 17 1 17 18
M  V30 18 1 18 19
M  V30 19 1 19 20
M  V30 20 1 20 21
M  V30 21 1 21 22
M  V30 22 1 22 23
M  V30 23 1 23 24
M  V30 24 1 24 25
M  V30 25 1 25 26
M  V30 26 1 14 27
M  V30 27 1 27 28
M  V30 28 1 27 29
M  V30 29 1 6 30
M  V30 30 2 30 31
M  V30 31 1 31 32
M  V30 32 2 32 33
M  V30 33 1 33 2
M  V30 34 1 33 5
M  V30 35 2 12 8
M  V30 36 1 25 17
M  V30 37 1 27 11
M  V30 38 1 23 19
M  V30 39 1 1 34
M  V30 40 1 1 35
M  V30 41 1 1 36
M  V30 42 1 3 37
M  V30 43 1 7 38
M  V30 44 1 9 39
M  V30 45 1 13 40
M  V30 46 1 13 41
M  V30 47 1 18 42
M  V30 48 1 18 43
M  V30 49 1 19 44 CFG=3
M  V30 50 1 20 45
M  V30 51 1 20 46
M  V30 52 1 21 47
M  V30 53 1 21 48
M  V30 54 1 22 49
M  V30 55 1 22 50
M  V30 56 1 24 51
M  V30 57 1 24 52
M  V30 58 1 25 53 CFG=3
M  V30 59 1 26 54
M  V30 60 1 26 55
M  V30 61 1 26 56
M  V30 62 1 28 57
M  V30 63 1 28 58
M  V30 64 1 28 59
M  V30 65 1 29 60
M  V30 66 1 29 61
M  V30 67 1 29 62
M  V30 68 1 31 63
M  V30 END BOND
M  V30 END CTAB
M  END
>  <Dataset>  (904) 
ChEMBL_Kinases

>  <Ligand_Instance>  (904) 
nan

>  <PDB_ID>  (904) 
nan

>  <Standardized_SMILES>  (904) 
Cc1csc2c(Nc3[nH]nc4c3CN(C(=O)N3C[C@@H]5CCCN5C[C@@H]3C)C4(C)C)ncnc12

>  <Name>  (904) 
nan

>  <Pocket>  (904) 
nan

>  <ATP_Site>  (904) 
nan

>  <Peripheral>  (904) 
nan

>  <Num_H_Atoms_ProtBoundConf>  (904) 
nan

>  <Num_Resolved_Atoms>  (904) 
nan

>  <Num_Not_Resolved_Atoms>  (904) 
nan

$$$$
CHEMBL3674606
     RDKit          3D

  0  0  0  0  0  0  0  0  0  0999 V3000
M  V30 BEGIN CTAB
M  V30 COUNTS 60 64 0 0 0
M  V30 BEGIN ATOM
M  V30 1 C 1.671689 -2.129348 5.255231 0
M  V30 2 C 2.163473 -0.734608 5.031367 0
M  V30 3 N 2.195583 0.243224 5.960158 0
M  V30 4 C 2.641802 1.463149 5.674135 0
M  V30 5 N 3.083535 1.788108 4.448554 0
M  V30 6 C 3.089673 0.865664 3.441482 0
M  V30 7 N 3.538706 1.251060 2.158058 0
M  V30 8 C 3.681855 0.570570 0.921819 0
M  V30 9 N 4.816413 0.346471 0.230969 0
M  V30 10 N 4.484764 -0.324254 -0.873364 0
M  V30 11 C 3.157415 -0.524626 -0.887077 0
M  V30 12 C 2.619571 0.024497 0.229145 0
M  V30 13 C 1.159967 -0.232853 0.176691 0
M  V30 14 N 0.889447 -0.715700 -1.163396 0
M  V30 15 C -0.393082 -0.771314 -1.795737 0
M  V30 16 O -0.368856 -1.212006 -3.002135 0
M  V30 17 N -1.675919 -0.415921 -1.296890 0
M  V30 18 C -2.079002 0.070403 0.034485 0
M  V30 19 C -3.481862 -0.478238 0.292006 0 CFG=2
M  V30 20 C -3.672809 -0.774497 1.764702 0
M  V30 21 C -4.667891 -1.921092 1.737573 0
M  V30 22 C -4.702221 -2.427191 0.312096 0
M  V30 23 N -3.514811 -1.829671 -0.259414 0
M  V30 24 C -3.555163 -1.787747 -1.709818 0
M  V30 25 C -2.860522 -0.477149 -2.123484 0 CFG=2
M  V30 26 C -2.617126 -0.557121 -3.592059 0
M  V30 27 C 2.133116 -1.149496 -1.756503 0
M  V30 28 C 2.328940 -0.579533 -3.143379 0
M  V30 29 C 2.215709 -2.639265 -1.726939 0
M  V30 30 C 2.620482 -0.376744 3.786736 0
M  V30 31 F 2.621508 -1.320386 2.825291 0
M  V30 32 H 2.463809 -2.876588 5.046716 0
M  V30 33 H 0.836704 -2.304845 4.541372 0
M  V30 34 H 1.292132 -2.212829 6.296272 0
M  V30 35 H 2.668603 2.246353 6.418577 0
M  V30 36 H 3.855528 2.243360 2.006416 0
M  V30 37 H 5.779940 0.643488 0.510577 0
M  V30 38 H 0.830296 -0.967694 0.915238 0
M  V30 39 H 0.576906 0.708249 0.332419 0
M  V30 40 H -1.435097 -0.453588 0.766561 0
M  V30 41 H -2.039242 1.164792 0.069533 0
M  V30 42 H -4.284017 0.164326 -0.051209 0
M  V30 43 H -2.715056 -1.091594 2.228046 0
M  V30 44 H -4.140932 0.078714 2.268543 0
M  V30 45 H -5.685194 -1.596397 2.087150 0
M  V30 46 H -4.319138 -2.741908 2.406990 0
M  V30 47 H -5.648338 -2.087527 -0.152810 0
M  V30 48 H -4.599149 -3.522301 0.284997 0
M  V30 49 H -4.543736 -1.892554 -2.147567 0
M  V30 50 H -2.888550 -2.599394 -2.069952 0
M  V30 51 H -3.574021 0.358369 -1.916978 0
M  V30 52 H -3.592138 -0.235394 -4.078465 0
M  V30 53 H -1.893167 0.201376 -3.958516 0
M  V30 54 H -2.450357 -1.565589 -3.962842 0
M  V30 55 H 1.781112 0.402254 -3.186412 0
M  V30 56 H 2.015621 -1.243254 -3.957458 0
M  V30 57 H 3.391790 -0.319419 -3.311243 0
M  V30 58 H 1.603147 -3.128183 -2.506213 0
M  V30 59 H 1.844902 -3.026247 -0.752602 0
M  V30 60 H 3.299936 -2.935324 -1.812571 0
M  V30 END ATOM
M  V30 BEGIN BOND
M  V30 1 1 1 2
M  V30 2 2 2 3
M  V30 3 1 3 4
M  V30 4 2 4 5
M  V30 5 1 5 6
M  V30 6 1 6 7
M  V30 7 1 7 8
M  V30 8 1 8 9
M  V30 9 1 9 10
M  V30 10 2 10 11
M  V30 11 1 11 12
M  V30 12 1 12 13
M  V30 13 1 13 14
M  V30 14 1 14 15
M  V30 15 2 15 16
M  V30 16 1 15 17
M  V30 17 1 17 18
M  V30 18 1 18 19
M  V30 19 1 19 20
M  V30 20 1 20 21
M  V30 21 1 21 22
M  V30 22 1 22 23
M  V30 23 1 23 24
M  V30 24 1 24 25
M  V30 25 1 25 26
M  V30 26 1 14 27
M  V30 27 1 27 28
M  V30 28 1 27 29
M  V30 29 2 6 30
M  V30 30 1 30 31
M  V30 31 1 30 2
M  V30 32 2 12 8
M  V30 33 1 25 17
M  V30 34 1 27 11
M  V30 35 1 23 19
M  V30 36 1 1 32
M  V30 37 1 1 33
M  V30 38 1 1 34
M  V30 39 1 4 35
M  V30 40 1 7 36
M  V30 41 1 9 37
M  V30 42 1 13 38
M  V30 43 1 13 39
M  V30 44 1 18 40
M  V30 45 1 18 41
M  V30 46 1 19 42 CFG=3
M  V30 47 1 20 43
M  V30 48 1 20 44
M  V30 49 1 21 45
M  V30 50 1 21 46
M  V30 51 1 22 47
M  V30 52 1 22 48
M  V30 53 1 24 49
M  V30 54 1 24 50
M  V30 55 1 25 51 CFG=3
M  V30 56 1 26 52
M  V30 57 1 26 53
M  V30 58 1 26 54
M  V30 59 1 28 55
M  V30 60 1 28 56
M  V30 61 1 28 57
M  V30 62 1 29 58
M  V30 63 1 29 59
M  V30 64 1 29 60
M  V30 END BOND
M  V30 END CTAB
M  END
>  <Dataset>  (905) 
ChEMBL_Kinases

>  <Ligand_Instance>  (905) 
nan

>  <PDB_ID>  (905) 
nan

>  <Standardized_SMILES>  (905) 
Cc1ncnc(Nc2[nH]nc3c2CN(C(=O)N2C[C@@H]4CCCN4C[C@@H]2C)C3(C)C)c1F

>  <Name>  (905) 
nan

>  <Pocket>  (905) 
nan

>  <ATP_Site>  (905) 
nan

>  <Peripheral>  (905) 
nan

>  <Num_H_Atoms_ProtBoundConf>  (905) 
nan

>  <Num_Resolved_Atoms>  (905) 
nan

>  <Num_Not_Resolved_Atoms>  (905) 
nan

$$$$
CHEMBL3674607
     RDKit          3D

  0  0  0  0  0  0  0  0  0  0999 V3000
M  V30 BEGIN CTAB
M  V30 COUNTS 55 60 0 0 0
M  V30 BEGIN ATOM
M  V30 1 C -1.553374 0.223413 1.239023 0
M  V30 2 C -0.504379 -0.856815 1.402054 0
M  V30 3 C -0.967003 -1.977269 2.278259 0
M  V30 4 C 0.707581 -0.174668 1.953995 0
M  V30 5 N 1.138659 0.399114 3.084784 0
M  V30 6 N 2.387893 0.855080 2.937585 0
M  V30 7 C 2.740928 0.554799 1.677150 0
M  V30 8 N 3.978703 0.844221 1.046149 0
M  V30 9 C 5.123444 1.496043 1.562754 0
M  V30 10 N 6.189896 0.847692 2.112383 0
M  V30 11 C 7.167384 1.674217 2.542098 0
M  V30 12 N 7.188063 3.000828 2.483015 0
M  V30 13 C 6.124776 3.663418 1.934247 0
M  V30 14 C 6.061034 5.024954 1.834148 0
M  V30 15 C 4.908946 5.541940 1.251440 0
M  V30 16 S 3.899262 3.984911 0.843925 0
M  V30 17 C 5.106425 2.875362 1.482610 0
M  V30 18 C 1.722761 -0.093095 1.014094 0
M  V30 19 C 1.312351 -0.721919 -0.286075 0
M  V30 20 N 0.028104 -1.300739 0.121281 0
M  V30 21 C -0.517286 -2.244731 -0.831428 0
M  V30 22 O 0.302728 -2.322748 -1.791513 0
M  V30 23 N -1.759784 -2.972269 -0.727701 0
M  V30 24 C -2.088403 -3.863096 -1.807957 0 CFG=1
M  V30 25 C -2.856839 -5.092131 -1.653111 0
M  V30 26 C -3.511660 -3.905824 -2.262219 0
M  V30 27 C -4.602342 -3.272970 -1.517989 0
M  V30 28 C -4.817687 -3.390971 -0.159185 0
M  V30 29 C -5.855491 -2.780054 0.517961 0
M  V30 30 C -6.731369 -2.007237 -0.191468 0
M  V30 31 C -6.610508 -1.822112 -1.545229 0
M  V30 32 C -5.540110 -2.466539 -2.172485 0
M  V30 33 H -2.330765 0.124317 2.022157 0
M  V30 34 H -1.139941 1.252501 1.376490 0
M  V30 35 H -1.997661 0.238487 0.220139 0
M  V30 36 H -2.047528 -1.871809 2.443512 0
M  V30 37 H -0.614140 -2.971705 1.995700 0
M  V30 38 H -0.505189 -1.785322 3.291439 0
M  V30 39 H 2.940108 1.339062 3.672831 0
M  V30 40 H 4.223737 0.606913 0.084806 0
M  V30 41 H 8.023021 1.151957 2.984714 0
M  V30 42 H 6.772975 5.774004 2.140138 0
M  V30 43 H 4.589629 6.572763 1.044667 0
M  V30 44 H 2.026378 -1.473289 -0.635444 0
M  V30 45 H 1.157392 0.129987 -0.977572 0
M  V30 46 H -2.182182 -2.672588 0.174039 0
M  V30 47 H -1.273856 -3.875844 -2.589848 0
M  V30 48 H -2.627646 -5.935633 -2.356433 0
M  V30 49 H -3.212725 -5.497614 -0.679332 0
M  V30 50 H -3.597588 -3.832925 -3.384928 0
M  V30 51 H -4.148210 -3.991741 0.415107 0
M  V30 52 H -6.017158 -2.876597 1.578700 0
M  V30 53 H -7.555858 -1.513225 0.296629 0
M  V30 54 H -7.287481 -1.217306 -2.131811 0
M  V30 55 H -5.422935 -2.336131 -3.251050 0
M  V30 END ATOM
M  V30 BEGIN BOND
M  V30 1 1 1 2
M  V30 2 1 2 3
M  V30 3 1 2 4
M  V30 4 2 4 5
M  V30 5 1 5 6
M  V30 6 1 6 7
M  V30 7 1 7 8
M  V30 8 1 8 9
M  V30 9 2 9 10
M  V30 10 1 10 11
M  V30 11 2 11 12
M  V30 12 1 12 13
M  V30 13 1 13 14
M  V30 14 2 14 15
M  V30 15 1 15 16
M  V30 16 1 16 17
M  V30 17 2 7 18
M  V30 18 1 18 19
M  V30 19 1 19 20
M  V30 20 1 20 21
M  V30 21 2 21 22
M  V30 22 1 21 23
M  V30 23 1 23 24
M  V30 24 1 24 25
M  V30 25 1 25 26
M  V30 26 1 26 27
M  V30 27 2 27 28
M  V30 28 1 28 29
M  V30 29 2 29 30
M  V30 30 1 30 31
M  V30 31 2 31 32
M  V30 32 1 20 2
M  V30 33 1 26 24
M  V30 34 1 32 27
M  V30 35 1 18 4
M  V30 36 1 17 9
M  V30 37 2 17 13
M  V30 38 1 1 33
M  V30 39 1 1 34
M  V30 40 1 1 35
M  V30 41 1 3 36
M  V30 42 1 3 37
M  V30 43 1 3 38
M  V30 44 1 6 39
M  V30 45 1 8 40
M  V30 46 1 11 41
M  V30 47 1 14 42
M  V30 48 1 15 43
M  V30 49 1 19 44
M  V30 50 1 19 45
M  V30 51 1 23 46
M  V30 52 1 24 47 CFG=3
M  V30 53 1 25 48
M  V30 54 1 25 49
M  V30 55 1 26 50
M  V30 56 1 28 51
M  V30 57 1 29 52
M  V30 58 1 30 53
M  V30 59 1 31 54
M  V30 60 1 32 55
M  V30 END BOND
M  V30 END CTAB
M  END
>  <Dataset>  (906) 
ChEMBL_Kinases

>  <Ligand_Instance>  (906) 
nan

>  <PDB_ID>  (906) 
nan

>  <Standardized_SMILES>  (906) 
CC1(C)c2n[nH]c(Nc3ncnc4ccsc34)c2CN1C(=O)N[C@H]1CC1c1ccccc1

>  <Name>  (906) 
nan

>  <Pocket>  (906) 
nan

>  <ATP_Site>  (906) 
nan

>  <Peripheral>  (906) 
nan

>  <Num_H_Atoms_ProtBoundConf>  (906) 
nan

>  <Num_Resolved_Atoms>  (906) 
nan

>  <Num_Not_Resolved_Atoms>  (906) 
nan

$$$$
CHEMBL3674608
     RDKit          3D

  0  0  0  0  0  0  0  0  0  0999 V3000
M  V30 BEGIN CTAB
M  V30 COUNTS 62 66 0 0 0
M  V30 BEGIN ATOM
M  V30 1 C 2.718165 -1.184713 2.277212 0
M  V30 2 N 2.887782 0.083217 2.862552 0
M  V30 3 C 2.362924 0.188547 4.169259 0
M  V30 4 C 3.112680 1.203597 2.079133 0
M  V30 5 C 1.999874 1.724423 1.207541 0 CFG=1
M  V30 6 N 1.560669 0.751950 0.260965 0
M  V30 7 C 1.699841 0.626766 -1.145467 0
M  V30 8 O 2.331257 1.505444 -1.820115 0
M  V30 9 N 1.071417 -0.547782 -1.658915 0
M  V30 10 C 0.319034 -1.640960 -1.061534 0
M  V30 11 C -0.928943 -1.587062 -1.908251 0
M  V30 12 C -0.473701 -1.180247 -3.165519 0
M  V30 13 N -1.563569 -1.129444 -3.924582 0
M  V30 14 N -2.642339 -1.469176 -3.240581 0
M  V30 15 C -2.312877 -1.769805 -1.961409 0
M  V30 16 N -2.996781 -2.182691 -0.793175 0
M  V30 17 C -3.328189 -3.462109 -0.271803 0
M  V30 18 N -2.965535 -4.554206 -0.964423 0
M  V30 19 C -3.290398 -5.776920 -0.449923 0
M  V30 20 N -3.963226 -5.867386 0.733287 0
M  V30 21 C -4.308247 -4.756843 1.395767 0
M  V30 22 C -4.982223 -4.504925 2.597550 0
M  V30 23 C -5.047136 -3.136389 2.778343 0
M  V30 24 O -4.445262 -2.563722 1.743506 0
M  V30 25 C -4.007102 -3.471846 0.926094 0
M  V30 26 C 1.014312 -0.999103 -3.039122 0
M  V30 27 C 1.647631 -2.339590 -3.228762 0
M  V30 28 C 1.514730 0.039426 -4.008784 0
M  V30 29 C 0.931167 2.277702 2.069326 0
M  V30 30 C -0.063463 1.536080 2.670333 0
M  V30 31 C -1.066011 2.035546 3.472982 0
M  V30 32 C -1.058152 3.394520 3.681377 0
M  V30 33 C -0.127590 4.235117 3.142213 0
M  V30 34 C 0.828208 3.643571 2.359128 0
M  V30 35 H 3.403715 -1.896889 2.839128 0
M  V30 36 H 2.983034 -1.232768 1.188412 0
M  V30 37 H 1.682700 -1.570381 2.424722 0
M  V30 38 H 2.144607 1.229072 4.500271 0
M  V30 39 H 3.048440 -0.264116 4.944910 0
M  V30 40 H 1.405725 -0.379695 4.250123 0
M  V30 41 H 3.428726 2.072309 2.717637 0
M  V30 42 H 3.958239 0.982738 1.368605 0
M  V30 43 H 2.441373 2.626499 0.685226 0
M  V30 44 H 1.048670 0.078934 0.865187 0
M  V30 45 H 0.776919 -2.614312 -1.272704 0
M  V30 46 H 0.076875 -1.482964 0.001542 0
M  V30 47 H -3.647756 -1.538116 -3.514569 0
M  V30 48 H -3.251302 -1.278295 -0.317050 0
M  V30 49 H -3.035886 -6.694025 -0.942977 0
M  V30 50 H -5.383142 -5.260088 3.268544 0
M  V30 51 H -5.484694 -2.572930 3.578055 0
M  V30 52 H 0.920372 -3.185586 -3.229037 0
M  V30 53 H 2.157583 -2.415327 -4.233138 0
M  V30 54 H 2.434027 -2.583662 -2.463699 0
M  V30 55 H 1.055138 1.005990 -3.750777 0
M  V30 56 H 1.244115 -0.284279 -5.025077 0
M  V30 57 H 2.616209 0.037644 -3.933022 0
M  V30 58 H -0.073616 0.465915 2.510146 0
M  V30 59 H -1.801565 1.381081 3.900886 0
M  V30 60 H -1.846116 3.819706 4.317132 0
M  V30 61 H -0.116834 5.302693 3.302751 0
M  V30 62 H 1.584313 4.307626 1.918273 0
M  V30 END ATOM
M  V30 BEGIN BOND
M  V30 1 1 1 2
M  V30 2 1 2 3
M  V30 3 1 2 4
M  V30 4 1 4 5
M  V30 5 1 5 6
M  V30 6 1 6 7
M  V30 7 2 7 8
M  V30 8 1 7 9
M  V30 9 1 9 10
M  V30 10 1 10 11
M  V30 11 1 11 12
M  V30 12 2 12 13
M  V30 13 1 13 14
M  V30 14 1 14 15
M  V30 15 1 15 16
M  V30 16 1 16 17
M  V30 17 2 17 18
M  V30 18 1 18 19
M  V30 19 2 19 20
M  V30 20 1 20 21
M  V30 21 1 21 22
M  V30 22 2 22 23
M  V30 23 1 23 24
M  V30 24 1 24 25
M  V30 25 1 12 26
M  V30 26 1 26 27
M  V30 27 1 26 28
M  V30 28 1 5 29
M  V30 29 2 29 30
M  V30 30 1 30 31
M  V30 31 2 31 32
M  V30 32 1 32 33
M  V30 33 2 33 34
M  V30 34 1 26 9
M  V30 35 1 34 29
M  V30 36 2 15 11
M  V30 37 1 25 17
M  V30 38 2 25 21
M  V30 39 1 1 35
M  V30 40 1 1 36
M  V30 41 1 1 37
M  V30 42 1 3 38
M  V30 43 1 3 39
M  V30 44 1 3 40
M  V30 45 1 4 41
M  V30 46 1 4 42
M  V30 47 1 5 43 CFG=3
M  V30 48 1 6 44
M  V30 49 1 10 45
M  V30 50 1 10 46
M  V30 51 1 14 47
M  V30 52 1 16 48
M  V30 53 1 19 49
M  V30 54 1 22 50
M  V30 55 1 23 51
M  V30 56 1 27 52
M  V30 57 1 27 53
M  V30 58 1 27 54
M  V30 59 1 28 55
M  V30 60 1 28 56
M  V30 61 1 28 57
M  V30 62 1 30 58
M  V30 63 1 31 59
M  V30 64 1 32 60
M  V30 65 1 33 61
M  V30 66 1 34 62
M  V30 END BOND
M  V30 END CTAB
M  END
>  <Dataset>  (907) 
ChEMBL_Kinases

>  <Ligand_Instance>  (907) 
nan

>  <PDB_ID>  (907) 
nan

>  <Standardized_SMILES>  (907) 
CN(C)C[C@@H](NC(=O)N1Cc2c(n[nH]c2Nc2ncnc3ccoc23)C1(C)C)c1ccccc1

>  <Name>  (907) 
nan

>  <Pocket>  (907) 
nan

>  <ATP_Site>  (907) 
nan

>  <Peripheral>  (907) 
nan

>  <Num_H_Atoms_ProtBoundConf>  (907) 
nan

>  <Num_Resolved_Atoms>  (907) 
nan

>  <Num_Not_Resolved_Atoms>  (907) 
nan

$$$$
CHEMBL3674688
     RDKit          3D

  0  0  0  0  0  0  0  0  0  0999 V3000
M  V30 BEGIN CTAB
M  V30 COUNTS 69 73 0 0 0
M  V30 BEGIN ATOM
M  V30 1 C 2.448458 -3.686243 3.048855 0
M  V30 2 S 3.688426 -2.589600 3.686593 0
M  V30 3 O 3.249373 -2.101883 5.029348 0
M  V30 4 O 5.019365 -3.247731 3.851362 0
M  V30 5 N 3.774786 -1.209492 2.620196 0
M  V30 6 C 4.157453 -1.570048 1.285191 0 CFG=1
M  V30 7 C 3.076364 -1.271782 0.284415 0
M  V30 8 C 3.463096 -0.108199 -0.599234 0
M  V30 9 C 4.086267 0.951227 0.250012 0 CFG=2
M  V30 10 N 4.121134 2.266841 -0.389113 0
M  V30 11 C 2.891449 2.881108 -0.763535 0
M  V30 12 N 2.922844 4.093979 -1.355416 0
M  V30 13 C 1.761362 4.710108 -1.725541 0
M  V30 14 C 0.546661 4.099173 -1.498006 0
M  V30 15 C 0.521099 2.860204 -0.893026 0
M  V30 16 N -0.582627 2.023446 -0.549275 0
M  V30 17 C -0.892741 1.767683 0.755279 0
M  V30 18 C -1.993095 0.938312 0.704031 0
M  V30 19 C -2.355175 0.687560 -0.578863 0
M  V30 20 C -3.375946 -0.084083 -1.097682 0
M  V30 21 N -4.357048 -0.786071 -0.344435 0
M  V30 22 C -5.058606 -1.867091 -1.069772 0
M  V30 23 C -5.376867 -2.950260 -0.069134 0
M  V30 24 N -4.398307 -3.060310 0.998276 0
M  V30 25 S -4.956692 -4.318912 2.043819 0
M  V30 26 N -5.012190 -5.779940 1.120564 0
M  V30 27 O -4.035953 -4.541029 3.205187 0
M  V30 28 O -6.351085 -4.024826 2.518147 0
M  V30 29 C -4.337586 -1.842565 1.788656 0
M  V30 30 C -4.839983 -0.655168 0.985976 0
M  V30 31 C -3.427054 -0.111692 -2.478433 0
M  V30 32 C -2.534189 0.573971 -3.271392 0
M  V30 33 C -1.528013 1.335088 -2.713576 0
M  V30 34 C -1.450575 1.382131 -1.352616 0
M  V30 35 N 1.721525 2.306347 -0.551154 0
M  V30 36 C 5.435598 0.504733 0.695095 0
M  V30 37 C 5.489345 -0.985973 0.877272 0
M  V30 38 H 2.892104 -4.428415 2.351170 0
M  V30 39 H 1.863335 -4.168349 3.858251 0
M  V30 40 H 1.718690 -3.090627 2.465205 0
M  V30 41 H 2.806329 -0.811500 2.620373 0
M  V30 42 H 4.303107 -2.684675 1.290201 0
M  V30 43 H 2.142978 -1.068738 0.833475 0
M  V30 44 H 2.847790 -2.169817 -0.357246 0
M  V30 45 H 2.623438 0.210552 -1.214995 0
M  V30 46 H 4.218191 -0.531158 -1.322013 0
M  V30 47 H 3.478451 1.115488 1.169892 0
M  V30 48 H 5.032120 2.703898 -0.546533 0
M  V30 49 H 1.711336 5.683742 -2.204781 0
M  V30 50 H -0.438374 4.461512 -1.733292 0
M  V30 51 H -0.381908 2.138341 1.627309 0
M  V30 52 H -2.445666 0.571790 1.607993 0
M  V30 53 H -5.957659 -1.460828 -1.548516 0
M  V30 54 H -4.399808 -2.263419 -1.877928 0
M  V30 55 H -5.354117 -3.926705 -0.602315 0
M  V30 56 H -6.395043 -2.799453 0.310815 0
M  V30 57 H -4.059028 -6.140742 0.939236 0
M  V30 58 H -5.677303 -6.484412 1.511431 0
M  V30 59 H -3.265788 -1.656142 2.001312 0
M  V30 60 H -4.846681 -1.959697 2.765777 0
M  V30 61 H -4.728442 0.299580 1.483126 0
M  V30 62 H -5.966993 -0.814538 0.957625 0
M  V30 63 H -4.148868 -0.652135 -3.056474 0
M  V30 64 H -2.556000 0.566576 -4.355304 0
M  V30 65 H -0.827691 1.874274 -3.319665 0
M  V30 66 H 5.709932 1.030163 1.635132 0
M  V30 67 H 6.173847 0.778638 -0.085403 0
M  V30 68 H 6.206290 -1.199751 1.692806 0
M  V30 69 H 5.819391 -1.518240 -0.040413 0
M  V30 END ATOM
M  V30 BEGIN BOND
M  V30 1 1 1 2
M  V30 2 2 2 3
M  V30 3 2 2 4
M  V30 4 1 2 5
M  V30 5 1 5 6
M  V30 6 1 6 7
M  V30 7 1 7 8
M  V30 8 1 8 9
M  V30 9 1 9 10
M  V30 10 1 10 11
M  V30 11 2 11 12
M  V30 12 1 12 13
M  V30 13 2 13 14
M  V30 14 1 14 15
M  V30 15 1 15 16
M  V30 16 1 16 17
M  V30 17 2 17 18
M  V30 18 1 18 19
M  V30 19 2 19 20
M  V30 20 1 20 21
M  V30 21 1 21 22
M  V30 22 1 22 23
M  V30 23 1 23 24
M  V30 24 1 24 25
M  V30 25 1 25 26
M  V30 26 2 25 27
M  V30 27 2 25 28
M  V30 28 1 24 29
M  V30 29 1 29 30
M  V30 30 1 20 31
M  V30 31 2 31 32
M  V30 32 1 32 33
M  V30 33 2 33 34
M  V30 34 2 15 35
M  V30 35 1 9 36
M  V30 36 1 36 37
M  V30 37 1 37 6
M  V30 38 1 35 11
M  V30 39 1 34 16
M  V30 40 1 34 19
M  V30 41 1 30 21
M  V30 42 1 1 38
M  V30 43 1 1 39
M  V30 44 1 1 40
M  V30 45 1 5 41
M  V30 46 1 6 42 CFG=1
M  V30 47 1 7 43
M  V30 48 1 7 44
M  V30 49 1 8 45
M  V30 50 1 8 46
M  V30 51 1 9 47 CFG=1
M  V30 52 1 10 48
M  V30 53 1 13 49
M  V30 54 1 14 50
M  V30 55 1 17 51
M  V30 56 1 18 52
M  V30 57 1 22 53
M  V30 58 1 22 54
M  V30 59 1 23 55
M  V30 60 1 23 56
M  V30 61 1 26 57
M  V30 62 1 26 58
M  V30 63 1 29 59
M  V30 64 1 29 60
M  V30 65 1 30 61
M  V30 66 1 30 62
M  V30 67 1 31 63
M  V30 68 1 32 64
M  V30 69 1 33 65
M  V30 70 1 36 66
M  V30 71 1 36 67
M  V30 72 1 37 68
M  V30 73 1 37 69
M  V30 END BOND
M  V30 END CTAB
M  END
>  <Dataset>  (908) 
ChEMBL_Kinases

>  <Ligand_Instance>  (908) 
nan

>  <PDB_ID>  (908) 
nan

>  <Standardized_SMILES>  (908) 
CS(=O)(=O)N[C@H]1CC[C@H](Nc2nccc(-n3ccc4c(N5CCN(S(N)(=O)=O)CC5)cccc43)n2)CC1

>  <Name>  (908) 
nan

>  <Pocket>  (908) 
nan

>  <ATP_Site>  (908) 
nan

>  <Peripheral>  (908) 
nan

>  <Num_H_Atoms_ProtBoundConf>  (908) 
nan

>  <Num_Resolved_Atoms>  (908) 
nan

>  <Num_Not_Resolved_Atoms>  (908) 
nan

$$$$
CHEMBL3674610
     RDKit          3D

  0  0  0  0  0  0  0  0  0  0999 V3000
M  V30 BEGIN CTAB
M  V30 COUNTS 58 63 0 0 0
M  V30 BEGIN ATOM
M  V30 1 C -0.208398 -1.115198 4.446167 0
M  V30 2 C 0.335789 -1.807561 3.241697 0
M  V30 3 C 0.427224 -3.302308 3.407912 0
M  V30 4 C 1.685788 -1.209360 2.974175 0
M  V30 5 N 3.018232 -1.283554 3.166459 0
M  V30 6 N 3.617509 -0.275066 2.534515 0
M  V30 7 C 2.658211 0.456255 1.928622 0
M  V30 8 N 2.994489 1.611054 1.172955 0
M  V30 9 C 3.112596 3.005071 1.295692 0
M  V30 10 N 4.271085 3.448143 1.806175 0
M  V30 11 C 4.502763 4.745249 1.968543 0
M  V30 12 N 3.588220 5.670515 1.628982 0
M  V30 13 C 2.413940 5.272036 1.113637 0
M  V30 14 C 1.462738 6.216009 0.754497 0
M  V30 15 C 0.268462 5.724045 0.221257 0
M  V30 16 C 0.015143 4.388236 0.047721 0
M  V30 17 C 0.972088 3.472779 0.410713 0
M  V30 18 C 2.156225 3.927942 0.937977 0
M  V30 19 C 1.430500 -0.106568 2.187050 0
M  V30 20 C -0.037182 -0.030020 1.983919 0
M  V30 21 N -0.350502 -1.465298 2.005010 0
M  V30 22 C -1.130119 -2.009975 0.948031 0
M  V30 23 O -1.326304 -0.954468 0.250595 0
M  V30 24 N -1.619241 -3.269282 0.615574 0
M  V30 25 C -2.406492 -3.467874 -0.582118 0
M  V30 26 C -3.641234 -4.311368 -0.523529 0
M  V30 27 C -2.432310 -4.743958 -1.291246 0 CFG=1
M  V30 28 C -2.460005 -4.718540 -2.776154 0
M  V30 29 C -2.968838 -3.659509 -3.509112 0
M  V30 30 C -3.010958 -3.600698 -4.881012 0
M  V30 31 C -2.513125 -4.668408 -5.597713 0
M  V30 32 C -1.993527 -5.752202 -4.937371 0
M  V30 33 C -1.983070 -5.743838 -3.564970 0
M  V30 34 H -1.279209 -0.827445 4.275332 0
M  V30 35 H -0.209672 -1.772445 5.354558 0
M  V30 36 H 0.334422 -0.162955 4.681581 0
M  V30 37 H 0.768742 -3.774101 2.484454 0
M  V30 38 H -0.607743 -3.650406 3.609280 0
M  V30 39 H 1.054380 -3.591963 4.269350 0
M  V30 40 H 4.673859 -0.155268 2.563670 0
M  V30 41 H 3.252904 1.417162 0.168940 0
M  V30 42 H 5.408183 5.208331 2.373796 0
M  V30 43 H 1.644004 7.264564 0.882948 0
M  V30 44 H -0.483846 6.472356 -0.062682 0
M  V30 45 H -0.895893 4.002915 -0.360126 0
M  V30 46 H 0.833460 2.409731 0.297072 0
M  V30 47 H -0.326750 0.476789 1.070141 0
M  V30 48 H -0.458063 0.458331 2.906307 0
M  V30 49 H -1.322449 -3.951113 1.341005 0
M  V30 50 H -2.545154 -2.527080 -1.145428 0
M  V30 51 H -4.553914 -4.005113 -1.097907 0
M  V30 52 H -3.882522 -4.800414 0.436205 0
M  V30 53 H -1.971179 -5.666350 -0.895260 0
M  V30 54 H -3.373878 -2.792840 -2.983438 0
M  V30 55 H -3.432215 -2.721168 -5.382561 0
M  V30 56 H -2.562775 -4.587243 -6.674330 0
M  V30 57 H -1.610212 -6.575877 -5.519378 0
M  V30 58 H -1.559568 -6.628527 -3.090913 0
M  V30 END ATOM
M  V30 BEGIN BOND
M  V30 1 1 1 2
M  V30 2 1 2 3
M  V30 3 1 2 4
M  V30 4 2 4 5
M  V30 5 1 5 6
M  V30 6 1 6 7
M  V30 7 1 7 8
M  V30 8 1 8 9
M  V30 9 2 9 10
M  V30 10 1 10 11
M  V30 11 2 11 12
M  V30 12 1 12 13
M  V30 13 2 13 14
M  V30 14 1 14 15
M  V30 15 2 15 16
M  V30 16 1 16 17
M  V30 17 2 17 18
M  V30 18 2 7 19
M  V30 19 1 19 20
M  V30 20 1 20 21
M  V30 21 1 21 22
M  V30 22 2 22 23
M  V30 23 1 22 24
M  V30 24 1 24 25
M  V30 25 1 25 26
M  V30 26 1 26 27
M  V30 27 1 27 28
M  V30 28 2 28 29
M  V30 29 1 29 30
M  V30 30 2 30 31
M  V30 31 1 31 32
M  V30 32 2 32 33
M  V30 33 1 21 2
M  V30 34 1 27 25
M  V30 35 1 33 28
M  V30 36 1 19 4
M  V30 37 1 18 9
M  V30 38 1 18 13
M  V30 39 1 1 34
M  V30 40 1 1 35
M  V30 41 1 1 36
M  V30 42 1 3 37
M  V30 43 1 3 38
M  V30 44 1 3 39
M  V30 45 1 6 40
M  V30 46 1 8 41
M  V30 47 1 11 42
M  V30 48 1 14 43
M  V30 49 1 15 44
M  V30 50 1 16 45
M  V30 51 1 17 46
M  V30 52 1 20 47
M  V30 53 1 20 48
M  V30 54 1 24 49
M  V30 55 1 25 50
M  V30 56 1 26 51
M  V30 57 1 26 52
M  V30 58 1 27 53 CFG=3
M  V30 59 1 29 54
M  V30 60 1 30 55
M  V30 61 1 31 56
M  V30 62 1 32 57
M  V30 63 1 33 58
M  V30 END BOND
M  V30 END CTAB
M  END
>  <Dataset>  (909) 
ChEMBL_Kinases

>  <Ligand_Instance>  (909) 
nan

>  <PDB_ID>  (909) 
nan

>  <Standardized_SMILES>  (909) 
CC1(C)c2n[nH]c(Nc3ncnc4ccccc34)c2CN1C(=O)NC1C[C@H]1c1ccccc1

>  <Name>  (909) 
nan

>  <Pocket>  (909) 
nan

>  <ATP_Site>  (909) 
nan

>  <Peripheral>  (909) 
nan

>  <Num_H_Atoms_ProtBoundConf>  (909) 
nan

>  <Num_Resolved_Atoms>  (909) 
nan

>  <Num_Not_Resolved_Atoms>  (909) 
nan

$$$$
CHEMBL3674611
     RDKit          3D

  0  0  0  0  0  0  0  0  0  0999 V3000
M  V30 BEGIN CTAB
M  V30 COUNTS 65 71 0 0 0
M  V30 BEGIN ATOM
M  V30 1 C 4.541178 -2.879900 0.459483 0
M  V30 2 C 3.730821 -1.625769 0.628953 0
M  V30 3 C 4.548269 -0.461238 1.055452 0
M  V30 4 C 2.704392 -1.896843 1.710556 0
M  V30 5 N 2.387826 -2.585224 2.817628 0
M  V30 6 N 1.153437 -2.231063 3.217935 0
M  V30 7 C 0.673363 -1.311711 2.367625 0
M  V30 8 N -0.548790 -0.604195 2.275986 0
M  V30 9 C -1.767336 -0.514054 2.972132 0
M  V30 10 N -2.184418 0.394468 3.878942 0
M  V30 11 C -3.421085 0.244320 4.418683 0
M  V30 12 C -4.016446 1.201889 5.397510 0
M  V30 13 C -3.923500 2.652545 5.250519 0
M  V30 14 C -5.172910 2.013578 4.736699 0
M  V30 15 N -4.276166 -0.747799 4.122187 0
M  V30 16 C -3.900579 -1.687607 3.212523 0
M  V30 17 C -4.784131 -2.720440 2.892001 0
M  V30 18 C -4.377782 -3.649363 1.968003 0
M  V30 19 C -3.144771 -3.598080 1.353208 0
M  V30 20 C -2.349578 -2.559423 1.724488 0
M  V30 21 C -2.629634 -1.547673 2.646554 0
M  V30 22 C 1.638835 -1.089911 1.414310 0
M  V30 23 C 2.068563 -0.360641 0.193572 0
M  V30 24 N 2.843108 -1.380920 -0.482823 0
M  V30 25 C 2.786672 -1.984339 -1.799598 0
M  V30 26 O 3.503068 -2.854257 -2.310378 0
M  V30 27 N 1.702698 -1.445761 -2.587140 0
M  V30 28 C 1.277156 -1.753208 -3.934119 0
M  V30 29 C -0.193973 -1.732050 -4.258374 0
M  V30 30 C 0.681209 -0.614873 -4.709887 0 CFG=1
M  V30 31 C 0.447130 0.701302 -4.078696 0
M  V30 32 C -0.404039 1.012810 -3.039826 0
M  V30 33 C -0.580538 2.231856 -2.466242 0
M  V30 34 C 0.158693 3.286233 -2.958508 0
M  V30 35 C 1.034876 3.073343 -3.995570 0
M  V30 36 C 1.165795 1.819351 -4.529169 0
M  V30 37 H 3.857331 -3.760472 0.398638 0
M  V30 38 H 5.128382 -3.029317 1.382948 0
M  V30 39 H 5.253246 -2.798965 -0.362640 0
M  V30 40 H 4.197093 -0.042424 1.997185 0
M  V30 41 H 5.583923 -0.857276 1.258807 0
M  V30 42 H 4.665368 0.330059 0.267450 0
M  V30 43 H 0.591350 -2.564525 4.038073 0
M  V30 44 H -0.799588 0.085204 1.558664 0
M  V30 45 H -4.347065 0.697683 6.332767 0
M  V30 46 H -3.974660 3.262773 6.188204 0
M  V30 47 H -3.292843 3.092853 4.459129 0
M  V30 48 H -5.338113 1.881118 3.658007 0
M  V30 49 H -6.101112 2.053880 5.312949 0
M  V30 50 H -5.741498 -2.731560 3.390928 0
M  V30 51 H -5.069529 -4.447965 1.722866 0
M  V30 52 H -2.834618 -4.323806 0.634275 0
M  V30 53 H -1.374106 -2.513813 1.240224 0
M  V30 54 H 1.220302 0.040587 -0.367603 0
M  V30 55 H 2.682091 0.531203 0.470684 0
M  V30 56 H 1.093323 -0.715272 -2.168512 0
M  V30 57 H 1.839684 -2.495407 -4.544864 0
M  V30 58 H -0.569441 -2.377408 -5.081065 0
M  V30 59 H -0.915452 -1.631634 -3.440928 0
M  V30 60 H 0.985480 -0.514642 -5.790415 0
M  V30 61 H -1.006204 0.211128 -2.636047 0
M  V30 62 H -1.286869 2.372239 -1.642806 0
M  V30 63 H 0.015534 4.262424 -2.497172 0
M  V30 64 H 1.625138 3.909174 -4.393231 0
M  V30 65 H 1.860375 1.671001 -5.346341 0
M  V30 END ATOM
M  V30 BEGIN BOND
M  V30 1 1 1 2
M  V30 2 1 2 3
M  V30 3 1 2 4
M  V30 4 2 4 5
M  V30 5 1 5 6
M  V30 6 1 6 7
M  V30 7 1 7 8
M  V30 8 1 8 9
M  V30 9 2 9 10
M  V30 10 1 10 11
M  V30 11 1 11 12
M  V30 12 1 12 13
M  V30 13 1 13 14
M  V30 14 2 11 15
M  V30 15 1 15 16
M  V30 16 2 16 17
M  V30 17 1 17 18
M  V30 18 2 18 19
M  V30 19 1 19 20
M  V30 20 2 20 21
M  V30 21 2 7 22
M  V30 22 1 22 23
M  V30 23 1 23 24
M  V30 24 1 24 25
M  V30 25 2 25 26
M  V30 26 1 25 27
M  V30 27 1 27 28
M  V30 28 1 28 29
M  V30 29 1 29 30
M  V30 30 1 30 31
M  V30 31 2 31 32
M  V30 32 1 32 33
M  V30 33 2 33 34
M  V30 34 1 34 35
M  V30 35 2 35 36
M  V30 36 1 24 2
M  V30 37 1 30 28
M  V30 38 1 36 31
M  V30 39 1 22 4
M  V30 40 1 21 9
M  V30 41 1 14 12
M  V30 42 1 21 16
M  V30 43 1 1 37
M  V30 44 1 1 38
M  V30 45 1 1 39
M  V30 46 1 3 40
M  V30 47 1 3 41
M  V30 48 1 3 42
M  V30 49 1 6 43
M  V30 50 1 8 44
M  V30 51 1 12 45
M  V30 52 1 13 46
M  V30 53 1 13 47
M  V30 54 1 14 48
M  V30 55 1 14 49
M  V30 56 1 17 50
M  V30 57 1 18 51
M  V30 58 1 19 52
M  V30 59 1 20 53
M  V30 60 1 23 54
M  V30 61 1 23 55
M  V30 62 1 27 56
M  V30 63 1 28 57
M  V30 64 1 29 58
M  V30 65 1 29 59
M  V30 66 1 30 60 CFG=3
M  V30 67 1 32 61
M  V30 68 1 33 62
M  V30 69 1 34 63
M  V30 70 1 35 64
M  V30 71 1 36 65
M  V30 END BOND
M  V30 END CTAB
M  END
>  <Dataset>  (910) 
ChEMBL_Kinases

>  <Ligand_Instance>  (910) 
nan

>  <PDB_ID>  (910) 
nan

>  <Standardized_SMILES>  (910) 
CC1(C)c2n[nH]c(Nc3nc(C4CC4)nc4ccccc34)c2CN1C(=O)NC1C[C@H]1c1ccccc1

>  <Name>  (910) 
nan

>  <Pocket>  (910) 
nan

>  <ATP_Site>  (910) 
nan

>  <Peripheral>  (910) 
nan

>  <Num_H_Atoms_ProtBoundConf>  (910) 
nan

>  <Num_Resolved_Atoms>  (910) 
nan

>  <Num_Not_Resolved_Atoms>  (910) 
nan

$$$$
CHEMBL3674612
     RDKit          3D

  0  0  0  0  0  0  0  0  0  0999 V3000
M  V30 BEGIN CTAB
M  V30 COUNTS 68 73 0 0 0
M  V30 BEGIN ATOM
M  V30 1 C 0.006875 1.834713 4.444028 0
M  V30 2 O -0.327215 2.614486 3.309531 0
M  V30 3 C 0.500396 2.684548 2.194528 0
M  V30 4 N 1.670803 2.012965 2.130692 0
M  V30 5 C 2.420846 2.137997 0.996363 0
M  V30 6 N 3.608960 1.386129 1.093129 0
M  V30 7 C 3.849773 0.002491 0.892522 0
M  V30 8 N 5.034668 -0.618574 1.004908 0
M  V30 9 N 4.794581 -1.895957 0.756331 0
M  V30 10 C 3.496361 -2.116596 0.488110 0
M  V30 11 C 2.855456 -0.890584 0.569546 0
M  V30 12 C 1.407130 -1.058450 0.277042 0
M  V30 13 N 1.290941 -2.499571 0.157915 0
M  V30 14 C -0.067535 -2.886421 0.059897 0
M  V30 15 O -0.879083 -1.926653 0.062247 0
M  V30 16 N -0.584339 -4.182608 -0.035634 0
M  V30 17 C -2.013048 -4.334586 -0.133022 0
M  V30 18 C -2.461573 -5.652544 -0.730813 0
M  V30 19 C -2.670837 -5.333853 0.755171 0
M  V30 20 C -4.100011 -5.156186 1.091081 0
M  V30 21 C -4.777538 -5.598248 2.199678 0
M  V30 22 C -6.101154 -5.409193 2.467599 0
M  V30 23 C -6.809821 -4.707896 1.530907 0
M  V30 24 C -6.216144 -4.208372 0.359536 0
M  V30 25 C -4.863759 -4.449287 0.170677 0
M  V30 26 C 2.554340 -3.213253 0.153940 0
M  V30 27 C 2.860221 -3.765751 -1.223887 0
M  V30 28 C 2.633189 -4.260697 1.214484 0
M  V30 29 N 2.023048 2.900229 -0.032603 0
M  V30 30 C 0.848819 3.564810 0.050955 0
M  V30 31 N 0.345702 4.399476 -0.978273 0
M  V30 32 C -0.928794 5.136636 -0.962949 0
M  V30 33 C -0.524470 6.566160 -1.354531 0
M  V30 34 C 0.801524 6.370746 -2.057430 0
M  V30 35 C 0.745774 4.858422 -2.291636 0
M  V30 36 C 2.033202 4.300674 -2.649302 0
M  V30 37 N 3.066556 3.874353 -2.939310 0
M  V30 38 N 0.111664 3.444275 1.160582 0
M  V30 39 H -0.653416 2.111428 5.285045 0
M  V30 40 H 1.050120 2.011431 4.758885 0
M  V30 41 H -0.154195 0.764179 4.181010 0
M  V30 42 H 4.404880 2.022970 1.363000 0
M  V30 43 H 5.968152 -0.186524 1.241446 0
M  V30 44 H 0.866075 -0.669647 1.167599 0
M  V30 45 H 1.060340 -0.498074 -0.588364 0
M  V30 46 H 0.098530 -4.966706 -0.030585 0
M  V30 47 H -2.622392 -3.431023 -0.303865 0
M  V30 48 H -3.331674 -5.648880 -1.409918 0
M  V30 49 H -1.705625 -6.453057 -0.872110 0
M  V30 50 H -2.089672 -5.882661 1.514171 0
M  V30 51 H -4.122190 -6.149893 2.895401 0
M  V30 52 H -6.548346 -5.798494 3.373718 0
M  V30 53 H -7.871727 -4.509726 1.661832 0
M  V30 54 H -6.837814 -3.661107 -0.337365 0
M  V30 55 H -4.509227 -4.017743 -0.768780 0
M  V30 56 H 1.910971 -3.710909 -1.801378 0
M  V30 57 H 3.615572 -3.161304 -1.758329 0
M  V30 58 H 3.207973 -4.812915 -1.165790 0
M  V30 59 H 3.417182 -3.993114 1.936603 0
M  V30 60 H 1.665310 -4.280592 1.770213 0
M  V30 61 H 2.907617 -5.260403 0.804205 0
M  V30 62 H -1.414669 5.104712 0.025515 0
M  V30 63 H -1.539606 4.711613 -1.785826 0
M  V30 64 H -1.248306 6.999907 -2.074169 0
M  V30 65 H -0.444689 7.189171 -0.444881 0
M  V30 66 H 0.907274 6.953183 -2.971022 0
M  V30 67 H 1.619546 6.520535 -1.320493 0
M  V30 68 H -0.058723 4.598950 -3.013008 0
M  V30 END ATOM
M  V30 BEGIN BOND
M  V30 1 1 1 2
M  V30 2 1 2 3
M  V30 3 2 3 4
M  V30 4 1 4 5
M  V30 5 1 5 6
M  V30 6 1 6 7
M  V30 7 1 7 8
M  V30 8 1 8 9
M  V30 9 2 9 10
M  V30 10 1 10 11
M  V30 11 1 11 12
M  V30 12 1 12 13
M  V30 13 1 13 14
M  V30 14 2 14 15
M  V30 15 1 14 16
M  V30 16 1 16 17
M  V30 17 1 17 18
M  V30 18 1 18 19
M  V30 19 1 19 20
M  V30 20 2 20 21
M  V30 21 1 21 22
M  V30 22 2 22 23
M  V30 23 1 23 24
M  V30 24 2 24 25
M  V30 25 1 13 26
M  V30 26 1 26 27
M  V30 27 1 26 28
M  V30 28 2 5 29
M  V30 29 1 29 30
M  V30 30 1 30 31
M  V30 31 1 31 32
M  V30 32 1 32 33
M  V30 33 1 33 34
M  V30 34 1 34 35
M  V30 35 1 35 36
M  V30 36 3 36 37
M  V30 37 2 30 38
M  V30 38 1 38 3
M  V30 39 2 11 7
M  V30 40 1 19 17
M  V30 41 1 25 20
M  V30 42 1 35 31
M  V30 43 1 26 10
M  V30 44 1 1 39
M  V30 45 1 1 40
M  V30 46 1 1 41
M  V30 47 1 6 42
M  V30 48 1 8 43
M  V30 49 1 12 44
M  V30 50 1 12 45
M  V30 51 1 16 46
M  V30 52 1 17 47
M  V30 53 1 18 48
M  V30 54 1 18 49
M  V30 55 1 19 50
M  V30 56 1 21 51
M  V30 57 1 22 52
M  V30 58 1 23 53
M  V30 59 1 24 54
M  V30 60 1 25 55
M  V30 61 1 27 56
M  V30 62 1 27 57
M  V30 63 1 27 58
M  V30 64 1 28 59
M  V30 65 1 28 60
M  V30 66 1 28 61
M  V30 67 1 32 62
M  V30 68 1 32 63
M  V30 69 1 33 64
M  V30 70 1 33 65
M  V30 71 1 34 66
M  V30 72 1 34 67
M  V30 73 1 35 68
M  V30 END BOND
M  V30 END CTAB
M  END
>  <Dataset>  (911) 
ChEMBL_Kinases

>  <Ligand_Instance>  (911) 
nan

>  <PDB_ID>  (911) 
nan

>  <Standardized_SMILES>  (911) 
COc1nc(Nc2[nH]nc3c2CN(C(=O)NC2CC2c2ccccc2)C3(C)C)nc(N2CCCC2C#N)n1

>  <Name>  (911) 
nan

>  <Pocket>  (911) 
nan

>  <ATP_Site>  (911) 
nan

>  <Peripheral>  (911) 
nan

>  <Num_H_Atoms_ProtBoundConf>  (911) 
nan

>  <Num_Resolved_Atoms>  (911) 
nan

>  <Num_Not_Resolved_Atoms>  (911) 
nan

$$$$
CHEMBL3674683
     RDKit          3D

  0  0  0  0  0  0  0  0  0  0999 V3000
M  V30 BEGIN CTAB
M  V30 COUNTS 64 68 0 0 0
M  V30 BEGIN ATOM
M  V30 1 C 1.649041 6.222411 2.213761 0
M  V30 2 S 2.657273 4.973624 2.973451 0
M  V30 3 O 1.802776 3.920202 3.641332 0
M  V30 4 O 3.593682 5.640623 3.931766 0
M  V30 5 N 3.615764 4.152925 1.779325 0
M  V30 6 C 2.762880 3.483261 0.811193 0 CFG=1
M  V30 7 C 3.070648 3.924671 -0.600939 0
M  V30 8 C 2.679081 2.916424 -1.637439 0
M  V30 9 C 1.581547 1.977289 -1.130155 0 CFG=2
M  V30 10 N 0.438286 2.763937 -0.790881 0
M  V30 11 C -0.781534 2.234116 -0.282206 0
M  V30 12 N -1.874809 2.984400 0.042454 0
M  V30 13 C -2.993305 2.408089 0.518568 0
M  V30 14 C -3.090903 1.044516 0.700796 0
M  V30 15 C -1.976120 0.303052 0.367225 0
M  V30 16 N -1.928717 -1.121059 0.502217 0
M  V30 17 C -1.541054 -1.600705 1.701970 0
M  V30 18 C -1.557700 -2.981805 1.638403 0
M  V30 19 C -1.967843 -3.300562 0.361972 0
M  V30 20 C -2.192130 -4.464257 -0.344555 0
M  V30 21 N -1.951644 -5.679809 0.391755 0
M  V30 22 C -0.608044 -5.935162 0.932194 0
M  V30 23 C -0.267691 -7.333262 0.406278 0
M  V30 24 N -1.160697 -8.231479 1.084961 0
M  V30 25 C -2.536770 -8.064131 0.692308 0
M  V30 26 C -2.990667 -6.646932 0.610538 0
M  V30 27 C -2.616027 -4.456020 -1.660873 0
M  V30 28 C -2.829485 -3.248703 -2.313371 0
M  V30 29 C -2.620908 -2.046200 -1.655310 0
M  V30 30 C -2.198595 -2.131998 -0.344573 0
M  V30 31 N -0.843619 0.880637 -0.114213 0
M  V30 32 C 2.169364 1.189708 0.001656 0
M  V30 33 C 3.056859 1.997207 0.905426 0
M  V30 34 H 1.699932 7.185495 2.764474 0
M  V30 35 H 0.574807 5.953575 2.172359 0
M  V30 36 H 2.054789 6.422221 1.183056 0
M  V30 37 H 4.239611 3.487847 2.280299 0
M  V30 38 H 1.724772 3.691308 1.116943 0
M  V30 39 H 4.184591 4.091226 -0.681874 0
M  V30 40 H 2.615962 4.914025 -0.796688 0
M  V30 41 H 3.551179 2.322596 -1.949396 0
M  V30 42 H 2.258924 3.476210 -2.496894 0
M  V30 43 H 1.389087 1.277063 -1.984881 0
M  V30 44 H 0.431933 3.821545 -0.901815 0
M  V30 45 H -3.852519 3.021647 0.771157 0
M  V30 46 H -3.966130 0.533479 1.079790 0
M  V30 47 H -1.242193 -1.139828 2.634036 0
M  V30 48 H -1.317037 -3.733241 2.379319 0
M  V30 49 H 0.119073 -5.197967 0.583519 0
M  V30 50 H -0.623033 -6.008556 2.039144 0
M  V30 51 H -0.373440 -7.368432 -0.706955 0
M  V30 52 H 0.757609 -7.545485 0.712408 0
M  V30 53 H -0.882185 -9.206836 0.819847 0
M  V30 54 H -2.790816 -8.643023 -0.241628 0
M  V30 55 H -3.150168 -8.571935 1.486428 0
M  V30 56 H -3.789633 -6.581112 -0.161367 0
M  V30 57 H -3.503862 -6.345411 1.569270 0
M  V30 58 H -2.777283 -5.401277 -2.169790 0
M  V30 59 H -3.163589 -3.222056 -3.350688 0
M  V30 60 H -2.774947 -1.086169 -2.125427 0
M  V30 61 H 2.841775 0.409739 -0.460096 0
M  V30 62 H 1.420211 0.590324 0.560413 0
M  V30 63 H 2.866772 1.668812 1.944971 0
M  V30 64 H 4.137334 1.823827 0.728745 0
M  V30 END ATOM
M  V30 BEGIN BOND
M  V30 1 1 1 2
M  V30 2 2 2 3
M  V30 3 2 2 4
M  V30 4 1 2 5
M  V30 5 1 5 6
M  V30 6 1 6 7
M  V30 7 1 7 8
M  V30 8 1 8 9
M  V30 9 1 9 10
M  V30 10 1 10 11
M  V30 11 2 11 12
M  V30 12 1 12 13
M  V30 13 2 13 14
M  V30 14 1 14 15
M  V30 15 1 15 16
M  V30 16 1 16 17
M  V30 17 2 17 18
M  V30 18 1 18 19
M  V30 19 2 19 20
M  V30 20 1 20 21
M  V30 21 1 21 22
M  V30 22 1 22 23
M  V30 23 1 23 24
M  V30 24 1 24 25
M  V30 25 1 25 26
M  V30 26 1 20 27
M  V30 27 2 27 28
M  V30 28 1 28 29
M  V30 29 2 29 30
M  V30 30 2 15 31
M  V30 31 1 9 32
M  V30 32 1 32 33
M  V30 33 1 33 6
M  V30 34 1 31 11
M  V30 35 1 30 16
M  V30 36 1 30 19
M  V30 37 1 26 21
M  V30 38 1 1 34
M  V30 39 1 1 35
M  V30 40 1 1 36
M  V30 41 1 5 37
M  V30 42 1 6 38 CFG=1
M  V30 43 1 7 39
M  V30 44 1 7 40
M  V30 45 1 8 41
M  V30 46 1 8 42
M  V30 47 1 9 43 CFG=3
M  V30 48 1 10 44
M  V30 49 1 13 45
M  V30 50 1 14 46
M  V30 51 1 17 47
M  V30 52 1 18 48
M  V30 53 1 22 49
M  V30 54 1 22 50
M  V30 55 1 23 51
M  V30 56 1 23 52
M  V30 57 1 24 53
M  V30 58 1 25 54
M  V30 59 1 25 55
M  V30 60 1 26 56
M  V30 61 1 26 57
M  V30 62 1 27 58
M  V30 63 1 28 59
M  V30 64 1 29 60
M  V30 65 1 32 61
M  V30 66 1 32 62
M  V30 67 1 33 63
M  V30 68 1 33 64
M  V30 END BOND
M  V30 END CTAB
M  END
>  <Dataset>  (912) 
ChEMBL_Kinases

>  <Ligand_Instance>  (912) 
nan

>  <PDB_ID>  (912) 
nan

>  <Standardized_SMILES>  (912) 
CS(=O)(=O)N[C@H]1CC[C@H](Nc2nccc(-n3ccc4c(N5CCNCC5)cccc43)n2)CC1

>  <Name>  (912) 
nan

>  <Pocket>  (912) 
nan

>  <ATP_Site>  (912) 
nan

>  <Peripheral>  (912) 
nan

>  <Num_H_Atoms_ProtBoundConf>  (912) 
nan

>  <Num_Resolved_Atoms>  (912) 
nan

>  <Num_Not_Resolved_Atoms>  (912) 
nan

$$$$
CHEMBL3674684
     RDKit          3D

  0  0  0  0  0  0  0  0  0  0999 V3000
M  V30 BEGIN CTAB
M  V30 COUNTS 58 62 0 0 0
M  V30 BEGIN ATOM
M  V30 1 O 1.266501 -4.412004 4.752208 0
M  V30 2 C 2.188493 -4.293506 3.696303 0 CFG=1
M  V30 3 C 1.559626 -3.400290 2.670835 0
M  V30 4 C 2.577747 -2.923774 1.655992 0
M  V30 5 C 3.596036 -2.110898 2.409163 0 CFG=2
M  V30 6 N 4.553557 -1.445677 1.549121 0
M  V30 7 C 4.190393 -0.494717 0.554079 0
M  V30 8 N 5.059374 0.132388 -0.252337 0
M  V30 9 C 4.659915 1.023546 -1.176683 0
M  V30 10 C 3.327903 1.340689 -1.344288 0
M  V30 11 C 2.428225 0.699658 -0.518422 0
M  V30 12 N 0.993034 0.864767 -0.505127 0
M  V30 13 C 0.409880 1.563119 0.496373 0
M  V30 14 C -0.946757 1.552671 0.246164 0
M  V30 15 C -1.136576 0.841330 -0.908996 0
M  V30 16 C -2.294182 0.516454 -1.621062 0
M  V30 17 N -3.551991 0.966100 -1.128209 0
M  V30 18 C -3.975196 0.528931 0.209135 0
M  V30 19 C -5.202251 -0.356815 0.072354 0
M  V30 20 C -6.331087 0.566371 -0.385566 0
M  V30 21 C -5.915455 1.128704 -1.722086 0
M  V30 22 C -4.571907 1.815058 -1.692878 0
M  V30 23 C -2.185935 -0.235791 -2.789414 0
M  V30 24 C -0.936134 -0.642050 -3.215149 0
M  V30 25 C 0.234050 -0.346205 -2.546727 0
M  V30 26 C 0.085136 0.407328 -1.383353 0
M  V30 27 N 2.900570 -0.178492 0.381760 0
M  V30 28 C 4.345624 -3.048897 3.317272 0
M  V30 29 C 3.447832 -3.736636 4.300850 0
M  V30 30 H 0.357628 -4.371315 4.352502 0
M  V30 31 H 2.351673 -5.320909 3.299598 0
M  V30 32 H 1.145611 -2.494942 3.195190 0
M  V30 33 H 0.725077 -3.967538 2.212892 0
M  V30 34 H 2.063185 -2.348767 0.882988 0
M  V30 35 H 3.115593 -3.815691 1.245968 0
M  V30 36 H 3.037642 -1.375497 3.030417 0
M  V30 37 H 5.584406 -1.637182 1.619862 0
M  V30 38 H 5.351326 1.534211 -1.831154 0
M  V30 39 H 2.889905 2.032326 -2.044329 0
M  V30 40 H 0.869896 2.046488 1.338354 0
M  V30 41 H -1.714567 2.024624 0.858582 0
M  V30 42 H -3.180440 -0.062298 0.704253 0
M  V30 43 H -4.254180 1.381074 0.837623 0
M  V30 44 H -5.410839 -0.806044 1.045379 0
M  V30 45 H -5.105600 -1.133079 -0.699714 0
M  V30 46 H -6.486912 1.324183 0.392322 0
M  V30 47 H -7.192589 -0.094137 -0.573911 0
M  V30 48 H -5.843174 0.272571 -2.421997 0
M  V30 49 H -6.674469 1.821464 -2.096439 0
M  V30 50 H -4.699225 2.677997 -0.976730 0
M  V30 51 H -4.369833 2.171690 -2.707452 0
M  V30 52 H -3.079378 -0.496724 -3.355070 0
M  V30 53 H -0.893429 -1.234041 -4.141933 0
M  V30 54 H 1.204872 -0.658957 -2.872997 0
M  V30 55 H 4.885216 -3.796985 2.708885 0
M  V30 56 H 5.074671 -2.436532 3.902183 0
M  V30 57 H 3.216340 -3.007332 5.107614 0
M  V30 58 H 3.999774 -4.587869 4.753063 0
M  V30 END ATOM
M  V30 BEGIN BOND
M  V30 1 1 1 2
M  V30 2 1 2 3
M  V30 3 1 3 4
M  V30 4 1 4 5
M  V30 5 1 5 6
M  V30 6 1 6 7
M  V30 7 2 7 8
M  V30 8 1 8 9
M  V30 9 2 9 10
M  V30 10 1 10 11
M  V30 11 1 11 12
M  V30 12 1 12 13
M  V30 13 2 13 14
M  V30 14 1 14 15
M  V30 15 2 15 16
M  V30 16 1 16 17
M  V30 17 1 17 18
M  V30 18 1 18 19
M  V30 19 1 19 20
M  V30 20 1 20 21
M  V30 21 1 21 22
M  V30 22 1 16 23
M  V30 23 2 23 24
M  V30 24 1 24 25
M  V30 25 2 25 26
M  V30 26 2 11 27
M  V30 27 1 5 28
M  V30 28 1 28 29
M  V30 29 1 29 2
M  V30 30 1 27 7
M  V30 31 1 26 12
M  V30 32 1 26 15
M  V30 33 1 22 17
M  V30 34 1 1 30
M  V30 35 1 2 31 CFG=3
M  V30 36 1 3 32
M  V30 37 1 3 33
M  V30 38 1 4 34
M  V30 39 1 4 35
M  V30 40 1 5 36 CFG=1
M  V30 41 1 6 37
M  V30 42 1 9 38
M  V30 43 1 10 39
M  V30 44 1 13 40
M  V30 45 1 14 41
M  V30 46 1 18 42
M  V30 47 1 18 43
M  V30 48 1 19 44
M  V30 49 1 19 45
M  V30 50 1 20 46
M  V30 51 1 20 47
M  V30 52 1 21 48
M  V30 53 1 21 49
M  V30 54 1 22 50
M  V30 55 1 22 51
M  V30 56 1 23 52
M  V30 57 1 24 53
M  V30 58 1 25 54
M  V30 59 1 28 55
M  V30 60 1 28 56
M  V30 61 1 29 57
M  V30 62 1 29 58
M  V30 END BOND
M  V30 END CTAB
M  END
>  <Dataset>  (913) 
ChEMBL_Kinases

>  <Ligand_Instance>  (913) 
nan

>  <PDB_ID>  (913) 
nan

>  <Standardized_SMILES>  (913) 
O[C@H]1CC[C@H](Nc2nccc(-n3ccc4c(N5CCCCC5)cccc43)n2)CC1

>  <Name>  (913) 
nan

>  <Pocket>  (913) 
nan

>  <ATP_Site>  (913) 
nan

>  <Peripheral>  (913) 
nan

>  <Num_H_Atoms_ProtBoundConf>  (913) 
nan

>  <Num_Resolved_Atoms>  (913) 
nan

>  <Num_Not_Resolved_Atoms>  (913) 
nan

$$$$
CHEMBL3674685
     RDKit          3D

  0  0  0  0  0  0  0  0  0  0999 V3000
M  V30 BEGIN CTAB
M  V30 COUNTS 66 70 0 0 0
M  V30 BEGIN ATOM
M  V30 1 C 5.802240 4.057321 5.922520 0
M  V30 2 S 5.993854 2.359513 5.520380 0
M  V30 3 O 5.760892 1.529506 6.749672 0
M  V30 4 O 7.418304 2.130574 5.075278 0
M  V30 5 N 4.956284 1.842822 4.247828 0
M  V30 6 C 5.221175 2.553774 3.013833 0 CFG=1
M  V30 7 C 5.695830 1.674180 1.914154 0
M  V30 8 C 4.657664 1.077627 1.036970 0
M  V30 9 C 3.273111 1.401989 1.555074 0 CFG=2
M  V30 10 N 2.244395 0.809196 0.716152 0
M  V30 11 C 0.857678 0.961983 1.009352 0
M  V30 12 N 0.431793 1.662835 2.071501 0
M  V30 13 C -0.869097 1.820921 2.368827 0
M  V30 14 C -1.841112 1.243768 1.557701 0
M  V30 15 C -1.402913 0.522270 0.464577 0
M  V30 16 N -2.198141 -0.161816 -0.513061 0
M  V30 17 C -2.737662 0.218140 -1.685830 0
M  V30 18 C -3.418907 -0.855462 -2.231018 0
M  V30 19 C -3.260105 -1.868118 -1.343445 0
M  V30 20 C -3.754899 -3.150944 -1.435112 0
M  V30 21 N -4.542416 -3.721214 -2.478463 0
M  V30 22 C -3.987407 -3.785177 -3.816624 0
M  V30 23 C -4.542301 -4.983948 -4.505555 0
M  V30 24 C -4.757061 -6.078959 -3.487394 0
M  V30 25 O -5.051157 -7.245640 -4.180643 0
M  V30 26 C -5.937506 -5.715786 -2.607306 0
M  V30 27 C -5.898854 -4.248043 -2.232779 0
M  V30 28 C -3.504803 -4.091615 -0.428518 0
M  V30 29 C -2.736897 -3.681659 0.668342 0
M  V30 30 C -2.259271 -2.389219 0.723596 0
M  V30 31 C -2.507144 -1.465220 -0.268550 0
M  V30 32 N -0.074855 0.420501 0.249419 0
M  V30 33 C 3.180269 2.913999 1.580581 0
M  V30 34 C 4.050324 3.423015 2.684479 0
M  V30 35 H 5.291555 4.615362 5.110676 0
M  V30 36 H 6.782687 4.500600 6.204601 0
M  V30 37 H 5.121514 4.123818 6.810755 0
M  V30 38 H 3.966721 2.046021 4.582290 0
M  V30 39 H 6.065339 3.264553 3.267291 0
M  V30 40 H 6.478651 2.229871 1.323988 0
M  V30 41 H 6.265795 0.835734 2.389874 0
M  V30 42 H 4.742054 1.558338 0.029837 0
M  V30 43 H 4.807675 0.002114 0.874007 0
M  V30 44 H 3.208211 1.001890 2.567162 0
M  V30 45 H 2.521419 0.256243 -0.124483 0
M  V30 46 H -1.234524 2.371660 3.203113 0
M  V30 47 H -2.906943 1.281316 1.664393 0
M  V30 48 H -2.611512 1.221306 -2.068565 0
M  V30 49 H -3.955933 -0.855642 -3.168857 0
M  V30 50 H -2.880641 -3.744800 -3.793517 0
M  V30 51 H -4.376350 -2.888593 -4.350457 0
M  V30 52 H -3.865751 -5.328968 -5.314371 0
M  V30 53 H -5.553312 -4.716718 -4.916898 0
M  V30 54 H -3.830245 -6.215546 -2.896024 0
M  V30 55 H -4.812377 -8.063587 -3.670751 0
M  V30 56 H -6.875356 -6.004745 -3.080975 0
M  V30 57 H -5.818659 -6.299902 -1.674571 0
M  V30 58 H -6.060878 -4.160542 -1.142678 0
M  V30 59 H -6.653706 -3.711484 -2.817181 0
M  V30 60 H -3.846015 -5.113928 -0.407845 0
M  V30 61 H -2.525810 -4.389306 1.464811 0
M  V30 62 H -1.669667 -2.078219 1.568676 0
M  V30 63 H 2.146957 3.259308 1.685018 0
M  V30 64 H 3.647162 3.250184 0.619922 0
M  V30 65 H 3.384440 3.516972 3.591956 0
M  V30 66 H 4.342977 4.481273 2.470108 0
M  V30 END ATOM
M  V30 BEGIN BOND
M  V30 1 1 1 2
M  V30 2 2 2 3
M  V30 3 2 2 4
M  V30 4 1 2 5
M  V30 5 1 5 6
M  V30 6 1 6 7
M  V30 7 1 7 8
M  V30 8 1 8 9
M  V30 9 1 9 10
M  V30 10 1 10 11
M  V30 11 2 11 12
M  V30 12 1 12 13
M  V30 13 2 13 14
M  V30 14 1 14 15
M  V30 15 1 15 16
M  V30 16 1 16 17
M  V30 17 2 17 18
M  V30 18 1 18 19
M  V30 19 2 19 20
M  V30 20 1 20 21
M  V30 21 1 21 22
M  V30 22 1 22 23
M  V30 23 1 23 24
M  V30 24 1 24 25
M  V30 25 1 24 26
M  V30 26 1 26 27
M  V30 27 1 20 28
M  V30 28 2 28 29
M  V30 29 1 29 30
M  V30 30 2 30 31
M  V30 31 2 15 32
M  V30 32 1 9 33
M  V30 33 1 33 34
M  V30 34 1 34 6
M  V30 35 1 32 11
M  V30 36 1 31 16
M  V30 37 1 31 19
M  V30 38 1 27 21
M  V30 39 1 1 35
M  V30 40 1 1 36
M  V30 41 1 1 37
M  V30 42 1 5 38
M  V30 43 1 6 39 CFG=1
M  V30 44 1 7 40
M  V30 45 1 7 41
M  V30 46 1 8 42
M  V30 47 1 8 43
M  V30 48 1 9 44 CFG=1
M  V30 49 1 10 45
M  V30 50 1 13 46
M  V30 51 1 14 47
M  V30 52 1 17 48
M  V30 53 1 18 49
M  V30 54 1 22 50
M  V30 55 1 22 51
M  V30 56 1 23 52
M  V30 57 1 23 53
M  V30 58 1 24 54
M  V30 59 1 25 55
M  V30 60 1 26 56
M  V30 61 1 26 57
M  V30 62 1 27 58
M  V30 63 1 27 59
M  V30 64 1 28 60
M  V30 65 1 29 61
M  V30 66 1 30 62
M  V30 67 1 33 63
M  V30 68 1 33 64
M  V30 69 1 34 65
M  V30 70 1 34 66
M  V30 END BOND
M  V30 END CTAB
M  END
>  <Dataset>  (914) 
ChEMBL_Kinases

>  <Ligand_Instance>  (914) 
nan

>  <PDB_ID>  (914) 
nan

>  <Standardized_SMILES>  (914) 
CS(=O)(=O)N[C@H]1CC[C@H](Nc2nccc(-n3ccc4c(N5CCC(O)CC5)cccc43)n2)CC1

>  <Name>  (914) 
nan

>  <Pocket>  (914) 
nan

>  <ATP_Site>  (914) 
nan

>  <Peripheral>  (914) 
nan

>  <Num_H_Atoms_ProtBoundConf>  (914) 
nan

>  <Num_Resolved_Atoms>  (914) 
nan

>  <Num_Not_Resolved_Atoms>  (914) 
nan

$$$$
CHEMBL3674686
     RDKit          3D

  0  0  0  0  0  0  0  0  0  0999 V3000
M  V30 BEGIN CTAB
M  V30 COUNTS 72 76 0 0 0
M  V30 BEGIN ATOM
M  V30 1 C 2.579928 -5.186363 -1.918146 0
M  V30 2 C 1.484825 -4.626317 -2.739677 0
M  V30 3 O 0.382406 -5.239831 -2.543453 0
M  V30 4 N 1.583109 -3.534553 -3.658033 0
M  V30 5 C 2.833424 -2.873464 -3.853722 0
M  V30 6 C 2.754208 -1.520550 -4.495785 0
M  V30 7 N 1.442509 -0.961564 -4.214871 0
M  V30 8 C 1.308580 0.191441 -3.399294 0
M  V30 9 C 2.349509 1.090446 -3.313124 0
M  V30 10 C 2.270426 2.250027 -2.572301 0
M  V30 11 C 1.124580 2.576159 -1.866092 0
M  V30 12 C 0.061491 1.699468 -1.927888 0
M  V30 13 C 0.196483 0.557997 -2.682491 0
M  V30 14 C -1.009402 -0.087674 -2.523474 0
M  V30 15 C -1.841367 0.634771 -1.706707 0
M  V30 16 N -1.151520 1.737951 -1.352238 0
M  V30 17 C -1.697406 2.739051 -0.492807 0
M  V30 18 C -2.084750 4.032516 -0.772418 0
M  V30 19 C -2.582198 4.770129 0.275869 0
M  V30 20 N -2.681338 4.244900 1.509121 0
M  V30 21 C -2.307358 2.983534 1.797500 0
M  V30 22 N -2.435609 2.472173 3.116489 0
M  V30 23 C -2.025480 1.098489 3.445788 0 CFG=1
M  V30 24 C -0.554926 0.997377 3.180297 0
M  V30 25 C -0.085911 -0.426141 3.290819 0
M  V30 26 C -0.817912 -1.228562 4.340890 0 CFG=2
M  V30 27 N -1.693183 -2.202926 3.779034 0
M  V30 28 C -3.043191 -2.143375 4.270834 0
M  V30 29 S -1.125764 -3.817970 4.149057 0
M  V30 30 C 0.486589 -4.039008 3.425843 0
M  V30 31 O -1.031475 -4.062830 5.606960 0
M  V30 32 O -2.021945 -4.833580 3.514074 0
M  V30 33 C -1.381723 -0.304748 5.356704 0
M  V30 34 C -2.277164 0.776890 4.876230 0
M  V30 35 N -1.832274 2.297248 0.769196 0
M  V30 36 C 0.474498 -1.753942 -4.909576 0
M  V30 37 C 0.367451 -3.153209 -4.355201 0
M  V30 38 H 2.831858 -6.224034 -2.248959 0
M  V30 39 H 3.502586 -4.560338 -1.917807 0
M  V30 40 H 2.188133 -5.277152 -0.862888 0
M  V30 41 H 3.399286 -2.780885 -2.886819 0
M  V30 42 H 3.508083 -3.514404 -4.485869 0
M  V30 43 H 3.560722 -0.897498 -4.113559 0
M  V30 44 H 2.917616 -1.653466 -5.590340 0
M  V30 45 H 3.314886 1.026716 -3.787197 0
M  V30 46 H 3.051695 2.998132 -2.463106 0
M  V30 47 H 1.022448 3.470632 -1.277023 0
M  V30 48 H -1.342647 -1.028382 -2.929527 0
M  V30 49 H -2.858500 0.391722 -1.390785 0
M  V30 50 H -1.941429 4.300407 -1.807336 0
M  V30 51 H -2.875361 5.781931 0.012933 0
M  V30 52 H -2.828226 3.087239 3.861006 0
M  V30 53 H -2.626210 0.447798 2.755913 0
M  V30 54 H -0.061679 1.624226 3.981212 0
M  V30 55 H -0.205783 1.402397 2.233683 0
M  V30 56 H -0.135919 -0.890051 2.284151 0
M  V30 57 H 0.986404 -0.401069 3.561019 0
M  V30 58 H -0.009877 -1.841726 4.866867 0
M  V30 59 H -3.148777 -2.069035 5.360868 0
M  V30 60 H -3.703389 -1.449203 3.697744 0
M  V30 61 H -3.482579 -3.165042 4.020456 0
M  V30 62 H 0.678477 -3.325358 2.612213 0
M  V30 63 H 1.286282 -3.860855 4.192528 0
M  V30 64 H 0.646911 -5.055504 3.036139 0
M  V30 65 H -1.873628 -0.791982 6.225070 0
M  V30 66 H -0.492581 0.221802 5.837188 0
M  V30 67 H -2.123253 1.716221 5.465735 0
M  V30 68 H -3.373290 0.517272 4.979193 0
M  V30 69 H -0.510161 -1.280354 -5.056003 0
M  V30 70 H 0.847788 -1.897800 -5.971760 0
M  V30 71 H -0.448805 -3.179896 -3.609456 0
M  V30 72 H 0.163068 -3.914554 -5.122262 0
M  V30 END ATOM
M  V30 BEGIN BOND
M  V30 1 1 1 2
M  V30 2 2 2 3
M  V30 3 1 2 4
M  V30 4 1 4 5
M  V30 5 1 5 6
M  V30 6 1 6 7
M  V30 7 1 7 8
M  V30 8 2 8 9
M  V30 9 1 9 10
M  V30 10 2 10 11
M  V30 11 1 11 12
M  V30 12 2 12 13
M  V30 13 1 13 14
M  V30 14 2 14 15
M  V30 15 1 15 16
M  V30 16 1 16 17
M  V30 17 2 17 18
M  V30 18 1 18 19
M  V30 19 2 19 20
M  V30 20 1 20 21
M  V30 21 1 21 22
M  V30 22 1 22 23
M  V30 23 1 23 24
M  V30 24 1 24 25
M  V30 25 1 25 26
M  V30 26 1 26 27
M  V30 27 1 27 28
M  V30 28 1 27 29
M  V30 29 1 29 30
M  V30 30 2 29 31
M  V30 31 2 29 32
M  V30 32 1 26 33
M  V30 33 1 33 34
M  V30 34 2 21 35
M  V30 35 1 7 36
M  V30 36 1 36 37
M  V30 37 1 37 4
M  V30 38 1 13 8
M  V30 39 1 35 17
M  V30 40 1 16 12
M  V30 41 1 34 23
M  V30 42 1 1 38
M  V30 43 1 1 39
M  V30 44 1 1 40
M  V30 45 1 5 41
M  V30 46 1 5 42
M  V30 47 1 6 43
M  V30 48 1 6 44
M  V30 49 1 9 45
M  V30 50 1 10 46
M  V30 51 1 11 47
M  V30 52 1 14 48
M  V30 53 1 15 49
M  V30 54 1 18 50
M  V30 55 1 19 51
M  V30 56 1 22 52
M  V30 57 1 23 53 CFG=3
M  V30 58 1 24 54
M  V30 59 1 24 55
M  V30 60 1 25 56
M  V30 61 1 25 57
M  V30 62 1 26 58 CFG=1
M  V30 63 1 28 59
M  V30 64 1 28 60
M  V30 65 1 28 61
M  V30 66 1 30 62
M  V30 67 1 30 63
M  V30 68 1 30 64
M  V30 69 1 33 65
M  V30 70 1 33 66
M  V30 71 1 34 67
M  V30 72 1 34 68
M  V30 73 1 36 69
M  V30 74 1 36 70
M  V30 75 1 37 71
M  V30 76 1 37 72
M  V30 END BOND
M  V30 END CTAB
M  END
>  <Dataset>  (915) 
ChEMBL_Kinases

>  <Ligand_Instance>  (915) 
nan

>  <PDB_ID>  (915) 
nan

>  <Standardized_SMILES>  (915) 
CC(=O)N1CCN(c2cccc3c2ccn3-c2ccnc(N[C@H]3CC[C@H](N(C)S(C)(=O)=O)CC3)n2)CC1

>  <Name>  (915) 
nan

>  <Pocket>  (915) 
nan

>  <ATP_Site>  (915) 
nan

>  <Peripheral>  (915) 
nan

>  <Num_H_Atoms_ProtBoundConf>  (915) 
nan

>  <Num_Resolved_Atoms>  (915) 
nan

>  <Num_Not_Resolved_Atoms>  (915) 
nan

$$$$
CHEMBL3674687
     RDKit          3D

  0  0  0  0  0  0  0  0  0  0999 V3000
M  V30 BEGIN CTAB
M  V30 COUNTS 68 72 0 0 0
M  V30 BEGIN ATOM
M  V30 1 C 3.251068 -3.032985 4.951209 0
M  V30 2 S 3.817749 -1.428430 5.438899 0
M  V30 3 O 3.067510 -1.012269 6.670932 0
M  V30 4 O 5.276193 -1.442096 5.772132 0
M  V30 5 N 3.429993 -0.335672 4.185244 0
M  V30 6 C 4.067027 -0.647124 2.934179 0 CFG=1
M  V30 7 C 3.094238 -0.771545 1.810314 0
M  V30 8 C 3.337695 0.274777 0.717329 0
M  V30 9 C 3.224285 1.617249 1.359635 0 CFG=2
M  V30 10 N 3.116822 2.725385 0.450601 0
M  V30 11 C 2.049361 2.800277 -0.457488 0
M  V30 12 N 1.930806 3.824096 -1.312928 0
M  V30 13 C 0.924173 3.935033 -2.199162 0
M  V30 14 C -0.057416 2.967318 -2.263890 0
M  V30 15 C 0.067005 1.914656 -1.382338 0
M  V30 16 N -0.926219 0.892026 -1.415665 0
M  V30 17 C -0.746913 -0.217327 -2.172017 0
M  V30 18 C -1.871095 -1.033467 -2.008692 0
M  V30 19 C -2.663338 -0.323892 -1.136647 0
M  V30 20 C -3.898612 -0.707734 -0.654963 0
M  V30 21 N -4.628506 -1.879367 -0.927087 0
M  V30 22 C -5.036892 -2.208232 -2.268800 0
M  V30 23 C -4.501348 -3.555309 -2.646312 0
M  V30 24 N -3.890042 -4.190296 -1.508397 0
M  V30 25 C -2.586028 -4.762576 -1.364226 0
M  V30 26 N -1.667001 -4.764972 -2.433049 0
M  V30 27 O -2.206170 -5.281779 -0.293217 0
M  V30 28 C -4.793507 -4.220586 -0.362776 0
M  V30 29 C -4.987814 -2.788499 0.149425 0
M  V30 30 C -4.531514 0.159887 0.218879 0
M  V30 31 C -3.957318 1.374168 0.605275 0
M  V30 32 C -2.716410 1.742253 0.111079 0
M  V30 33 C -2.097544 0.871922 -0.756319 0
M  V30 34 N 1.092166 1.845307 -0.512199 0
M  V30 35 C 4.388055 1.777792 2.314942 0
M  V30 36 C 5.042199 0.475446 2.644073 0
M  V30 37 H 3.983906 -3.788555 5.311479 0
M  V30 38 H 3.191375 -3.138516 3.851425 0
M  V30 39 H 2.242525 -3.205198 5.380966 0
M  V30 40 H 3.539800 0.663949 4.453475 0
M  V30 41 H 4.706783 -1.568134 3.035081 0
M  V30 42 H 3.233593 -1.768649 1.340018 0
M  V30 43 H 2.036232 -0.755147 2.147448 0
M  V30 44 H 4.385796 0.097836 0.367237 0
M  V30 45 H 2.594268 0.055627 -0.060878 0
M  V30 46 H 2.245643 1.600640 1.923943 0
M  V30 47 H 3.833979 3.474070 0.467118 0
M  V30 48 H 0.850593 4.777942 -2.884280 0
M  V30 49 H -0.871391 3.041217 -2.968752 0
M  V30 50 H 0.095543 -0.464940 -2.800638 0
M  V30 51 H -2.061104 -1.993268 -2.465329 0
M  V30 52 H -6.162527 -2.271354 -2.225540 0
M  V30 53 H -4.710321 -1.440251 -2.994431 0
M  V30 54 H -5.300263 -4.229051 -3.021789 0
M  V30 55 H -3.791678 -3.436764 -3.496656 0
M  V30 56 H -1.062086 -5.515102 -2.842096 0
M  V30 57 H -1.156090 -4.304288 -3.209001 0
M  V30 58 H -4.385950 -4.864981 0.422101 0
M  V30 59 H -5.765599 -4.654339 -0.686180 0
M  V30 60 H -6.056671 -2.690292 0.430802 0
M  V30 61 H -4.387850 -2.639182 1.067617 0
M  V30 62 H -5.504159 -0.025730 0.666862 0
M  V30 63 H -4.426795 2.067187 1.282606 0
M  V30 64 H -2.215213 2.664556 0.367263 0
M  V30 65 H 4.122834 2.369349 3.209142 0
M  V30 66 H 5.154343 2.393537 1.774022 0
M  V30 67 H 5.777019 0.156820 1.857798 0
M  V30 68 H 5.633586 0.616716 3.575960 0
M  V30 END ATOM
M  V30 BEGIN BOND
M  V30 1 1 1 2
M  V30 2 2 2 3
M  V30 3 2 2 4
M  V30 4 1 2 5
M  V30 5 1 5 6
M  V30 6 1 6 7
M  V30 7 1 7 8
M  V30 8 1 8 9
M  V30 9 1 9 10
M  V30 10 1 10 11
M  V30 11 2 11 12
M  V30 12 1 12 13
M  V30 13 2 13 14
M  V30 14 1 14 15
M  V30 15 1 15 16
M  V30 16 1 16 17
M  V30 17 2 17 18
M  V30 18 1 18 19
M  V30 19 2 19 20
M  V30 20 1 20 21
M  V30 21 1 21 22
M  V30 22 1 22 23
M  V30 23 1 23 24
M  V30 24 1 24 25
M  V30 25 1 25 26
M  V30 26 2 25 27
M  V30 27 1 24 28
M  V30 28 1 28 29
M  V30 29 1 20 30
M  V30 30 2 30 31
M  V30 31 1 31 32
M  V30 32 2 32 33
M  V30 33 2 15 34
M  V30 34 1 9 35
M  V30 35 1 35 36
M  V30 36 1 36 6
M  V30 37 1 34 11
M  V30 38 1 33 16
M  V30 39 1 33 19
M  V30 40 1 29 21
M  V30 41 1 1 37
M  V30 42 1 1 38
M  V30 43 1 1 39
M  V30 44 1 5 40
M  V30 45 1 6 41 CFG=1
M  V30 46 1 7 42
M  V30 47 1 7 43
M  V30 48 1 8 44
M  V30 49 1 8 45
M  V30 50 1 9 46 CFG=1
M  V30 51 1 10 47
M  V30 52 1 13 48
M  V30 53 1 14 49
M  V30 54 1 17 50
M  V30 55 1 18 51
M  V30 56 1 22 52
M  V30 57 1 22 53
M  V30 58 1 23 54
M  V30 59 1 23 55
M  V30 60 1 26 56
M  V30 61 1 26 57
M  V30 62 1 28 58
M  V30 63 1 28 59
M  V30 64 1 29 60
M  V30 65 1 29 61
M  V30 66 1 30 62
M  V30 67 1 31 63
M  V30 68 1 32 64
M  V30 69 1 35 65
M  V30 70 1 35 66
M  V30 71 1 36 67
M  V30 72 1 36 68
M  V30 END BOND
M  V30 END CTAB
M  END
>  <Dataset>  (916) 
ChEMBL_Kinases

>  <Ligand_Instance>  (916) 
nan

>  <PDB_ID>  (916) 
nan

>  <Standardized_SMILES>  (916) 
CS(=O)(=O)N[C@H]1CC[C@H](Nc2nccc(-n3ccc4c(N5CCN(C(N)=O)CC5)cccc43)n2)CC1

>  <Name>  (916) 
nan

>  <Pocket>  (916) 
nan

>  <ATP_Site>  (916) 
nan

>  <Peripheral>  (916) 
nan

>  <Num_H_Atoms_ProtBoundConf>  (916) 
nan

>  <Num_Resolved_Atoms>  (916) 
nan

>  <Num_Not_Resolved_Atoms>  (916) 
nan

$$$$
CHEMBL3674609
     RDKit          3D

  0  0  0  0  0  0  0  0  0  0999 V3000
M  V30 BEGIN CTAB
M  V30 COUNTS 61 66 0 0 0
M  V30 BEGIN ATOM
M  V30 1 C 4.755442 -3.468641 4.919840 0
M  V30 2 C 3.698099 -2.487304 4.492099 0
M  V30 3 N 3.917862 -1.619649 3.461272 0
M  V30 4 C 2.979255 -0.741475 3.078324 0
M  V30 5 N 3.409006 0.050185 2.001623 0
M  V30 6 C 3.035230 -0.446123 0.713843 0
M  V30 7 N 3.395145 -1.584814 0.096867 0
M  V30 8 N 2.841991 -1.685188 -1.098292 0
M  V30 9 C 2.070475 -0.600419 -1.346395 0
M  V30 10 C 2.192445 0.176212 -0.210927 0
M  V30 11 C 1.353542 1.368481 -0.501098 0
M  V30 12 N 0.294201 0.793229 -1.305998 0
M  V30 13 C -1.048932 1.023775 -0.938016 0
M  V30 14 O -0.843661 1.751407 0.097198 0
M  V30 15 N -2.297427 0.640702 -1.449367 0
M  V30 16 C -3.461974 1.097208 -0.763278 0
M  V30 17 C -4.824861 1.045635 -1.288896 0
M  V30 18 C -4.414165 -0.075083 -0.383547 0 CFG=1
M  V30 19 C -4.190686 -1.372053 -1.029761 0
M  V30 20 C -4.065334 -1.618247 -2.379251 0
M  V30 21 C -3.844747 -2.864094 -2.925846 0
M  V30 22 C -3.744442 -3.928174 -2.058090 0
M  V30 23 C -3.853871 -3.805725 -0.676282 0
M  V30 24 C -4.074628 -2.511376 -0.233695 0
M  V30 25 C 1.146977 0.141236 -2.275466 0
M  V30 26 C 1.982498 1.069281 -3.092072 0
M  V30 27 C 0.446523 -0.850184 -3.156784 0
M  V30 28 C 1.780647 -0.736824 3.755316 0
M  V30 29 C 0.873752 0.184319 3.307986 0
M  V30 30 C -0.368369 0.260468 3.932861 0
M  V30 31 C -0.582021 -0.627526 4.981025 0
M  V30 32 C 0.312437 -1.563459 5.451300 0
M  V30 33 C 1.530871 -1.601340 4.799764 0
M  V30 34 N 2.511615 -2.471783 5.150597 0
M  V30 35 H 5.454826 -3.685743 4.084583 0
M  V30 36 H 4.314242 -4.446407 5.192053 0
M  V30 37 H 5.305823 -3.102515 5.818605 0
M  V30 38 H 3.958921 0.928867 2.189619 0
M  V30 39 H 4.043844 -2.301943 0.529419 0
M  V30 40 H 1.038562 1.919517 0.377140 0
M  V30 41 H 1.905283 2.061510 -1.184826 0
M  V30 42 H -2.089098 0.064395 -2.283637 0
M  V30 43 H -3.283907 1.789433 0.114328 0
M  V30 44 H -5.095105 0.838507 -2.339579 0
M  V30 45 H -5.577622 1.729912 -0.819192 0
M  V30 46 H -4.716461 -0.097552 0.687906 0
M  V30 47 H -4.146682 -0.803640 -3.053679 0
M  V30 48 H -3.752613 -3.011323 -3.974307 0
M  V30 49 H -3.571606 -4.906957 -2.471837 0
M  V30 50 H -3.781216 -4.612587 0.026516 0
M  V30 51 H -4.164493 -2.383640 0.839262 0
M  V30 52 H 1.594342 2.095950 -3.190018 0
M  V30 53 H 3.064023 1.065969 -2.763969 0
M  V30 54 H 2.038941 0.653703 -4.133287 0
M  V30 55 H 0.110799 -0.341628 -4.088330 0
M  V30 56 H 1.256682 -1.567163 -3.492623 0
M  V30 57 H -0.302668 -1.473954 -2.676446 0
M  V30 58 H 1.073601 0.845782 2.505737 0
M  V30 59 H -1.164227 0.942502 3.671624 0
M  V30 60 H -1.556580 -0.583347 5.486303 0
M  V30 61 H 0.101677 -2.220922 6.257208 0
M  V30 END ATOM
M  V30 BEGIN BOND
M  V30 1 1 1 2
M  V30 2 2 2 3
M  V30 3 1 3 4
M  V30 4 1 4 5
M  V30 5 1 5 6
M  V30 6 1 6 7
M  V30 7 1 7 8
M  V30 8 2 8 9
M  V30 9 1 9 10
M  V30 10 1 10 11
M  V30 11 1 11 12
M  V30 12 1 12 13
M  V30 13 2 13 14
M  V30 14 1 13 15
M  V30 15 1 15 16
M  V30 16 1 16 17
M  V30 17 1 17 18
M  V30 18 1 18 19
M  V30 19 2 19 20
M  V30 20 1 20 21
M  V30 21 2 21 22
M  V30 22 1 22 23
M  V30 23 2 23 24
M  V30 24 1 12 25
M  V30 25 1 25 26
M  V30 26 1 25 27
M  V30 27 2 4 28
M  V30 28 1 28 29
M  V30 29 2 29 30
M  V30 30 1 30 31
M  V30 31 2 31 32
M  V30 32 1 32 33
M  V30 33 2 33 34
M  V30 34 1 34 2
M  V30 35 2 10 6
M  V30 36 1 18 16
M  V30 37 1 24 19
M  V30 38 1 33 28
M  V30 39 1 25 9
M  V30 40 1 1 35
M  V30 41 1 1 36
M  V30 42 1 1 37
M  V30 43 1 5 38
M  V30 44 1 7 39
M  V30 45 1 11 40
M  V30 46 1 11 41
M  V30 47 1 15 42
M  V30 48 1 16 43
M  V30 49 1 17 44
M  V30 50 1 17 45
M  V30 51 1 18 46 CFG=1
M  V30 52 1 20 47
M  V30 53 1 21 48
M  V30 54 1 22 49
M  V30 55 1 23 50
M  V30 56 1 24 51
M  V30 57 1 26 52
M  V30 58 1 26 53
M  V30 59 1 26 54
M  V30 60 1 27 55
M  V30 61 1 27 56
M  V30 62 1 27 57
M  V30 63 1 29 58
M  V30 64 1 30 59
M  V30 65 1 31 60
M  V30 66 1 32 61
M  V30 END BOND
M  V30 END CTAB
M  END
>  <Dataset>  (917) 
ChEMBL_Kinases

>  <Ligand_Instance>  (917) 
nan

>  <PDB_ID>  (917) 
nan

>  <Standardized_SMILES>  (917) 
Cc1nc(Nc2[nH]nc3c2CN(C(=O)NC2C[C@H]2c2ccccc2)C3(C)C)c2ccccc2n1

>  <Name>  (917) 
nan

>  <Pocket>  (917) 
nan

>  <ATP_Site>  (917) 
nan

>  <Peripheral>  (917) 
nan

>  <Num_H_Atoms_ProtBoundConf>  (917) 
nan

>  <Num_Resolved_Atoms>  (917) 
nan

>  <Num_Not_Resolved_Atoms>  (917) 
nan

$$$$
CHEMBL3674736
     RDKit          3D

  0  0  0  0  0  0  0  0  0  0999 V3000
M  V30 BEGIN CTAB
M  V30 COUNTS 74 78 0 0 0
M  V30 BEGIN ATOM
M  V30 1 C 3.524355 0.599473 6.157860 0
M  V30 2 C 2.129901 0.627843 6.705376 0
M  V30 3 O 1.524785 -0.000878 7.596747 0
M  V30 4 N 1.310495 1.611717 6.040164 0
M  V30 5 C -0.052701 1.690375 6.524368 0
M  V30 6 C -0.948127 1.233437 5.382096 0
M  V30 7 N -0.575008 1.929453 4.167171 0
M  V30 8 C -1.519247 1.694451 3.136709 0
M  V30 9 C -2.469297 2.721156 3.076144 0
M  V30 10 C -3.512049 2.605329 2.149805 0
M  V30 11 C -3.644743 1.532823 1.299100 0
M  V30 12 C -2.706718 0.551164 1.379116 0
M  V30 13 C -1.669443 0.632672 2.276910 0
M  V30 14 C -0.859772 -0.441829 2.167190 0
M  V30 15 C 0.357977 -0.753030 2.874005 0
M  V30 16 N 1.076782 -1.983942 2.642561 0
M  V30 17 O 1.231524 -0.460191 3.700777 0
M  V30 18 C -1.360561 -1.260261 1.184228 0
M  V30 19 N -2.455538 -0.611207 0.759821 0
M  V30 20 C -3.269091 -1.177270 -0.294413 0
M  V30 21 C -4.635075 -1.295890 -0.160566 0
M  V30 22 C -5.271838 -1.858717 -1.244779 0
M  V30 23 N -4.661135 -2.270207 -2.354536 0
M  V30 24 C -3.304736 -2.139224 -2.457495 0
M  V30 25 N -2.528365 -2.540613 -3.579988 0
M  V30 26 C -1.098891 -2.436554 -3.791024 0 CFG=1
M  V30 27 C -0.388973 -3.189978 -2.732351 0
M  V30 28 C 1.106680 -3.211466 -2.879278 0
M  V30 29 C 1.587071 -3.024080 -4.276399 0 CFG=2
M  V30 30 C 2.110265 -1.632833 -4.443378 0
M  V30 31 S 2.720277 -1.227288 -6.035530 0
M  V30 32 C 4.055479 -2.277629 -6.488160 0
M  V30 33 O 1.664439 -1.144576 -7.094687 0
M  V30 34 O 3.285541 0.174266 -5.920151 0
M  V30 35 C 0.622961 -3.472305 -5.323198 0
M  V30 36 C -0.768892 -2.975912 -5.153601 0
M  V30 37 N -2.640866 -1.588341 -1.407849 0
M  V30 38 C 0.579989 2.750374 4.002885 0
M  V30 39 C 1.696096 2.504885 4.967525 0
M  V30 40 H 3.892482 1.620327 5.956691 0
M  V30 41 H 4.171987 0.072524 6.896316 0
M  V30 42 H 3.537745 0.032001 5.229210 0
M  V30 43 H -0.252612 1.089688 7.413321 0
M  V30 44 H -0.342091 2.762944 6.693031 0
M  V30 45 H -2.029837 1.446025 5.642380 0
M  V30 46 H -0.866956 0.147431 5.293635 0
M  V30 47 H -2.468376 3.625624 3.703231 0
M  V30 48 H -4.266870 3.382494 2.074548 0
M  V30 49 H -4.439150 1.416636 0.575702 0
M  V30 50 H 1.071791 -2.937861 3.108308 0
M  V30 51 H 1.804299 -2.161266 1.889297 0
M  V30 52 H -0.967345 -2.190545 0.844404 0
M  V30 53 H -5.142633 -0.965418 0.734787 0
M  V30 54 H -6.350366 -1.989724 -1.227701 0
M  V30 55 H -3.127514 -2.965885 -4.332484 0
M  V30 56 H -0.889370 -1.347529 -3.804713 0
M  V30 57 H -0.725323 -4.252775 -2.793180 0
M  V30 58 H -0.667671 -2.841566 -1.727344 0
M  V30 59 H 1.529772 -4.156896 -2.441259 0
M  V30 60 H 1.527216 -2.405806 -2.244586 0
M  V30 61 H 2.488886 -3.695008 -4.405680 0
M  V30 62 H 2.999748 -1.531155 -3.753662 0
M  V30 63 H 1.435685 -0.830154 -4.082101 0
M  V30 64 H 3.773450 -3.324766 -6.696446 0
M  V30 65 H 4.824092 -2.185192 -5.686031 0
M  V30 66 H 4.569880 -1.899427 -7.409858 0
M  V30 67 H 0.579191 -4.597752 -5.270983 0
M  V30 68 H 1.062157 -3.269380 -6.320675 0
M  V30 69 H -1.540873 -3.773867 -5.368520 0
M  V30 70 H -0.982771 -2.169195 -5.899707 0
M  V30 71 H 0.234820 3.814244 4.157645 0
M  V30 72 H 0.907886 2.731095 2.940008 0
M  V30 73 H 2.638995 2.191509 4.456520 0
M  V30 74 H 2.002337 3.458219 5.494182 0
M  V30 END ATOM
M  V30 BEGIN BOND
M  V30 1 1 1 2
M  V30 2 2 2 3
M  V30 3 1 2 4
M  V30 4 1 4 5
M  V30 5 1 5 6
M  V30 6 1 6 7
M  V30 7 1 7 8
M  V30 8 2 8 9
M  V30 9 1 9 10
M  V30 10 2 10 11
M  V30 11 1 11 12
M  V30 12 2 12 13
M  V30 13 1 13 14
M  V30 14 1 14 15
M  V30 15 1 15 16
M  V30 16 2 15 17
M  V30 17 2 14 18
M  V30 18 1 18 19
M  V30 19 1 19 20
M  V30 20 2 20 21
M  V30 21 1 21 22
M  V30 22 2 22 23
M  V30 23 1 23 24
M  V30 24 1 24 25
M  V30 25 1 25 26
M  V30 26 1 26 27
M  V30 27 1 27 28
M  V30 28 1 28 29
M  V30 29 1 29 30
M  V30 30 1 30 31
M  V30 31 1 31 32
M  V30 32 2 31 33
M  V30 33 2 31 34
M  V30 34 1 29 35
M  V30 35 1 35 36
M  V30 36 2 24 37
M  V30 37 1 7 38
M  V30 38 1 38 39
M  V30 39 1 39 4
M  V30 40 1 13 8
M  V30 41 1 37 20
M  V30 42 1 19 12
M  V30 43 1 36 26
M  V30 44 1 1 40
M  V30 45 1 1 41
M  V30 46 1 1 42
M  V30 47 1 5 43
M  V30 48 1 5 44
M  V30 49 1 6 45
M  V30 50 1 6 46
M  V30 51 1 9 47
M  V30 52 1 10 48
M  V30 53 1 11 49
M  V30 54 1 16 50
M  V30 55 1 16 51
M  V30 56 1 18 52
M  V30 57 1 21 53
M  V30 58 1 22 54
M  V30 59 1 25 55
M  V30 60 1 26 56 CFG=3
M  V30 61 1 27 57
M  V30 62 1 27 58
M  V30 63 1 28 59
M  V30 64 1 28 60
M  V30 65 1 29 61 CFG=1
M  V30 66 1 30 62
M  V30 67 1 30 63
M  V30 68 1 32 64
M  V30 69 1 32 65
M  V30 70 1 32 66
M  V30 71 1 35 67
M  V30 72 1 35 68
M  V30 73 1 36 69
M  V30 74 1 36 70
M  V30 75 1 38 71
M  V30 76 1 38 72
M  V30 77 1 39 73
M  V30 78 1 39 74
M  V30 END BOND
M  V30 END CTAB
M  END
>  <Dataset>  (918) 
ChEMBL_Kinases

>  <Ligand_Instance>  (918) 
nan

>  <PDB_ID>  (918) 
nan

>  <Standardized_SMILES>  (918) 
CC(=O)N1CCN(c2cccc3c2c(C(N)=O)cn3-c2ccnc(N[C@H]3CC[C@H](CS(C)(=O)=O)CC3)n2)CC1

>  <Name>  (918) 
nan

>  <Pocket>  (918) 
nan

>  <ATP_Site>  (918) 
nan

>  <Peripheral>  (918) 
nan

>  <Num_H_Atoms_ProtBoundConf>  (918) 
nan

>  <Num_Resolved_Atoms>  (918) 
nan

>  <Num_Not_Resolved_Atoms>  (918) 
nan

$$$$
CHEMBL3674735
     RDKit          3D

  0  0  0  0  0  0  0  0  0  0999 V3000
M  V30 BEGIN CTAB
M  V30 COUNTS 66 70 0 0 0
M  V30 BEGIN ATOM
M  V30 1 C 1.549565 4.852939 6.736622 0
M  V30 2 C 2.352335 4.264378 5.636640 0
M  V30 3 O 3.171313 3.446298 6.169545 0
M  V30 4 N 2.593629 4.225467 4.257160 0
M  V30 5 C 3.641307 3.326127 3.837896 0
M  V30 6 C 3.146185 2.541994 2.646047 0
M  V30 7 N 2.173694 3.262570 1.846360 0
M  V30 8 C 1.753394 2.538356 0.701116 0
M  V30 9 C 2.452240 2.947032 -0.441003 0
M  V30 10 C 2.186882 2.275725 -1.641529 0
M  V30 11 C 1.272561 1.256910 -1.682628 0
M  V30 12 C 0.579530 0.846609 -0.572556 0
M  V30 13 C 0.848505 1.513132 0.598428 0
M  V30 14 C 0.066782 0.990453 1.591952 0
M  V30 15 C -0.056017 1.366613 2.985304 0
M  V30 16 N -0.884686 0.676620 3.912203 0
M  V30 17 O 0.274346 2.132538 3.906784 0
M  V30 18 C -0.705013 -0.016257 1.065814 0
M  V30 19 N -0.339897 -0.038021 -0.225486 0
M  V30 20 C -0.909324 -0.963978 -1.175941 0
M  V30 21 C -1.390239 -0.586151 -2.413259 0
M  V30 22 C -1.913669 -1.560481 -3.244956 0
M  V30 23 N -1.939548 -2.840496 -2.828369 0
M  V30 24 C -1.474472 -3.223476 -1.625213 0
M  V30 25 N -1.498986 -4.577487 -1.180415 0
M  V30 26 C -2.025933 -5.669446 -1.975089 0 CFG=1
M  V30 27 C -1.897658 -6.995717 -1.250303 0
M  V30 28 C -2.440328 -8.076884 -2.123438 0
M  V30 29 C -2.859925 -7.641319 -3.494127 0 CFG=2
M  V30 30 O -1.806464 -7.547532 -4.402324 0
M  V30 31 C -3.755229 -6.433976 -3.502778 0
M  V30 32 C -3.478961 -5.471281 -2.367561 0
M  V30 33 N -0.967082 -2.273512 -0.820783 0
M  V30 34 C 1.598728 4.555687 2.042679 0
M  V30 35 C 1.779136 5.076460 3.449249 0
M  V30 36 H 0.995701 4.048328 7.249909 0
M  V30 37 H 2.233122 5.367134 7.474659 0
M  V30 38 H 0.932345 5.654426 6.315231 0
M  V30 39 H 3.907763 2.585269 4.615613 0
M  V30 40 H 4.516814 3.950691 3.547296 0
M  V30 41 H 2.786585 1.549906 2.913845 0
M  V30 42 H 4.057960 2.390848 1.991051 0
M  V30 43 H 3.191370 3.729059 -0.541678 0
M  V30 44 H 2.689455 2.530493 -2.584975 0
M  V30 45 H 1.065264 0.731012 -2.619786 0
M  V30 46 H -0.775843 -0.071874 4.640344 0
M  V30 47 H -1.930072 0.836685 4.034170 0
M  V30 48 H -1.431949 -0.644540 1.558324 0
M  V30 49 H -1.335644 0.466656 -2.679185 0
M  V30 50 H -2.295510 -1.287663 -4.217387 0
M  V30 51 H -1.124010 -4.815847 -0.240031 0
M  V30 52 H -1.457993 -5.772673 -2.922429 0
M  V30 53 H -0.815137 -7.172592 -1.086816 0
M  V30 54 H -2.433538 -6.990735 -0.279170 0
M  V30 55 H -1.723542 -8.923039 -2.266823 0
M  V30 56 H -3.339661 -8.570194 -1.647466 0
M  V30 57 H -3.495597 -8.485895 -3.894013 0
M  V30 58 H -1.177296 -8.270310 -4.188896 0
M  V30 59 H -4.846413 -6.717125 -3.505813 0
M  V30 60 H -3.596902 -5.878228 -4.467043 0
M  V30 61 H -3.685919 -4.428200 -2.639769 0
M  V30 62 H -4.133245 -5.790651 -1.502902 0
M  V30 63 H 0.526168 4.603499 1.750826 0
M  V30 64 H 2.101685 5.276438 1.344707 0
M  V30 65 H 0.785527 5.258595 3.921606 0
M  V30 66 H 2.268594 6.086333 3.427797 0
M  V30 END ATOM
M  V30 BEGIN BOND
M  V30 1 1 1 2
M  V30 2 2 2 3
M  V30 3 1 2 4
M  V30 4 1 4 5
M  V30 5 1 5 6
M  V30 6 1 6 7
M  V30 7 1 7 8
M  V30 8 2 8 9
M  V30 9 1 9 10
M  V30 10 2 10 11
M  V30 11 1 11 12
M  V30 12 2 12 13
M  V30 13 1 13 14
M  V30 14 1 14 15
M  V30 15 1 15 16
M  V30 16 2 15 17
M  V30 17 2 14 18
M  V30 18 1 18 19
M  V30 19 1 19 20
M  V30 20 2 20 21
M  V30 21 1 21 22
M  V30 22 2 22 23
M  V30 23 1 23 24
M  V30 24 1 24 25
M  V30 25 1 25 26
M  V30 26 1 26 27
M  V30 27 1 27 28
M  V30 28 1 28 29
M  V30 29 1 29 30
M  V30 30 1 29 31
M  V30 31 1 31 32
M  V30 32 2 24 33
M  V30 33 1 7 34
M  V30 34 1 34 35
M  V30 35 1 35 4
M  V30 36 1 13 8
M  V30 37 1 33 20
M  V30 38 1 19 12
M  V30 39 1 32 26
M  V30 40 1 1 36
M  V30 41 1 1 37
M  V30 42 1 1 38
M  V30 43 1 5 39
M  V30 44 1 5 40
M  V30 45 1 6 41
M  V30 46 1 6 42
M  V30 47 1 9 43
M  V30 48 1 10 44
M  V30 49 1 11 45
M  V30 50 1 16 46
M  V30 51 1 16 47
M  V30 52 1 18 48
M  V30 53 1 21 49
M  V30 54 1 22 50
M  V30 55 1 25 51
M  V30 56 1 26 52 CFG=3
M  V30 57 1 27 53
M  V30 58 1 27 54
M  V30 59 1 28 55
M  V30 60 1 28 56
M  V30 61 1 29 57 CFG=3
M  V30 62 1 30 58
M  V30 63 1 31 59
M  V30 64 1 31 60
M  V30 65 1 32 61
M  V30 66 1 32 62
M  V30 67 1 34 63
M  V30 68 1 34 64
M  V30 69 1 35 65
M  V30 70 1 35 66
M  V30 END BOND
M  V30 END CTAB
M  END
>  <Dataset>  (919) 
ChEMBL_Kinases

>  <Ligand_Instance>  (919) 
nan

>  <PDB_ID>  (919) 
nan

>  <Standardized_SMILES>  (919) 
CC(=O)N1CCN(c2cccc3c2c(C(N)=O)cn3-c2ccnc(N[C@H]3CC[C@H](O)CC3)n2)CC1

>  <Name>  (919) 
nan

>  <Pocket>  (919) 
nan

>  <ATP_Site>  (919) 
nan

>  <Peripheral>  (919) 
nan

>  <Num_H_Atoms_ProtBoundConf>  (919) 
nan

>  <Num_Resolved_Atoms>  (919) 
nan

>  <Num_Not_Resolved_Atoms>  (919) 
nan

$$$$
CHEMBL3674734
     RDKit          3D

  0  0  0  0  0  0  0  0  0  0999 V3000
M  V30 BEGIN CTAB
M  V30 COUNTS 64 68 0 0 0
M  V30 BEGIN ATOM
M  V30 1 C 4.615206 -1.912422 3.902291 0
M  V30 2 S 4.786882 -0.176785 4.226472 0
M  V30 3 O 5.135091 -0.011937 5.673270 0
M  V30 4 O 5.876727 0.444503 3.379004 0
M  V30 5 C 3.233654 0.616335 3.882660 0
M  V30 6 C 3.337748 2.115672 4.102023 0
M  V30 7 C 1.954464 2.708723 4.012155 0
M  V30 8 N 1.085616 1.686197 3.446441 0
M  V30 9 C 0.717642 1.857936 2.087139 0
M  V30 10 C 1.631647 2.542255 1.276365 0
M  V30 11 C 1.421069 2.722469 -0.070241 0
M  V30 12 C 0.281709 2.222471 -0.657668 0
M  V30 13 C -0.650827 1.543564 0.089103 0
M  V30 14 C -0.394658 1.388077 1.432042 0
M  V30 15 C -1.454323 0.707294 1.935117 0
M  V30 16 C -2.347132 0.441083 0.931797 0
M  V30 17 N -1.830505 0.964924 -0.194441 0
M  V30 18 C -2.463881 0.894289 -1.471344 0
M  V30 19 C -3.077817 1.970579 -2.076742 0
M  V30 20 C -3.653466 1.741982 -3.320951 0
M  V30 21 N -3.623463 0.540283 -3.919639 0
M  V30 22 C -3.017560 -0.507781 -3.313647 0
M  V30 23 N -2.993195 -1.774133 -3.961121 0
M  V30 24 C -2.358938 -2.929587 -3.363045 0 CFG=1
M  V30 25 C -3.026891 -3.223301 -2.061907 0
M  V30 26 C -2.867178 -4.635896 -1.572738 0
M  V30 27 C -1.571211 -5.160354 -2.166423 0 CFG=1
M  V30 28 O -1.139489 -6.319467 -1.577814 0
M  V30 29 C -1.880188 -5.377697 -3.646074 0
M  V30 30 C -2.295996 -4.099637 -4.296109 0
M  V30 31 N -2.465315 -0.294585 -2.123166 0
M  V30 32 C 0.854935 0.694819 4.475731 0
M  V30 33 C 2.178494 0.033663 4.793801 0
M  V30 34 H 3.780350 -2.058410 3.160633 0
M  V30 35 H 5.525868 -2.332407 3.423454 0
M  V30 36 H 4.335159 -2.497313 4.801397 0
M  V30 37 H 3.007438 0.440016 2.827304 0
M  V30 38 H 3.748848 2.271260 5.119855 0
M  V30 39 H 4.071104 2.553583 3.407638 0
M  V30 40 H 1.934056 3.639872 3.409371 0
M  V30 41 H 1.566919 3.005415 5.006947 0
M  V30 42 H 2.571001 2.991823 1.591194 0
M  V30 43 H 2.094659 3.242175 -0.735003 0
M  V30 44 H 0.097276 2.347272 -1.706731 0
M  V30 45 H -1.679382 0.381639 2.933823 0
M  V30 46 H -3.294530 -0.082425 0.980908 0
M  V30 47 H -3.087121 2.934084 -1.572808 0
M  V30 48 H -4.143870 2.567847 -3.819142 0
M  V30 49 H -3.433543 -1.914411 -4.891087 0
M  V30 50 H -1.303561 -2.644707 -3.151730 0
M  V30 51 H -4.122115 -2.994345 -2.210943 0
M  V30 52 H -2.617497 -2.549748 -1.259053 0
M  V30 53 H -3.684673 -5.260425 -2.015235 0
M  V30 54 H -2.868301 -4.644606 -0.480325 0
M  V30 55 H -0.843080 -4.345457 -2.080402 0
M  V30 56 H -1.121536 -6.141178 -0.583603 0
M  V30 57 H -0.925632 -5.711192 -4.100388 0
M  V30 58 H -2.593444 -6.213929 -3.772291 0
M  V30 59 H -1.645402 -3.873155 -5.164065 0
M  V30 60 H -3.325985 -4.256366 -4.705883 0
M  V30 61 H 0.399472 1.148711 5.383509 0
M  V30 62 H 0.214065 -0.099715 4.065358 0
M  V30 63 H 2.107022 -1.047155 4.555590 0
M  V30 64 H 2.448051 0.144332 5.863080 0
M  V30 END ATOM
M  V30 BEGIN BOND
M  V30 1 1 1 2
M  V30 2 2 2 3
M  V30 3 2 2 4
M  V30 4 1 2 5
M  V30 5 1 5 6
M  V30 6 1 6 7
M  V30 7 1 7 8
M  V30 8 1 8 9
M  V30 9 2 9 10
M  V30 10 1 10 11
M  V30 11 2 11 12
M  V30 12 1 12 13
M  V30 13 2 13 14
M  V30 14 1 14 15
M  V30 15 2 15 16
M  V30 16 1 16 17
M  V30 17 1 17 18
M  V30 18 2 18 19
M  V30 19 1 19 20
M  V30 20 2 20 21
M  V30 21 1 21 22
M  V30 22 1 22 23
M  V30 23 1 23 24
M  V30 24 1 24 25
M  V30 25 1 25 26
M  V30 26 1 26 27
M  V30 27 1 27 28
M  V30 28 1 27 29
M  V30 29 1 29 30
M  V30 30 2 22 31
M  V30 31 1 8 32
M  V30 32 1 32 33
M  V30 33 1 33 5
M  V30 34 1 14 9
M  V30 35 1 31 18
M  V30 36 1 17 13
M  V30 37 1 30 24
M  V30 38 1 1 34
M  V30 39 1 1 35
M  V30 40 1 1 36
M  V30 41 1 5 37
M  V30 42 1 6 38
M  V30 43 1 6 39
M  V30 44 1 7 40
M  V30 45 1 7 41
M  V30 46 1 10 42
M  V30 47 1 11 43
M  V30 48 1 12 44
M  V30 49 1 15 45
M  V30 50 1 16 46
M  V30 51 1 19 47
M  V30 52 1 20 48
M  V30 53 1 23 49
M  V30 54 1 24 50 CFG=1
M  V30 55 1 25 51
M  V30 56 1 25 52
M  V30 57 1 26 53
M  V30 58 1 26 54
M  V30 59 1 27 55 CFG=3
M  V30 60 1 28 56
M  V30 61 1 29 57
M  V30 62 1 29 58
M  V30 63 1 30 59
M  V30 64 1 30 60
M  V30 65 1 32 61
M  V30 66 1 32 62
M  V30 67 1 33 63
M  V30 68 1 33 64
M  V30 END BOND
M  V30 END CTAB
M  END
>  <Dataset>  (920) 
ChEMBL_Kinases

>  <Ligand_Instance>  (920) 
nan

>  <PDB_ID>  (920) 
nan

>  <Standardized_SMILES>  (920) 
CS(=O)(=O)C1CCN(c2cccc3c2ccn3-c2ccnc(N[C@H]3CC[C@@H](O)CC3)n2)CC1

>  <Name>  (920) 
nan

>  <Pocket>  (920) 
nan

>  <ATP_Site>  (920) 
nan

>  <Peripheral>  (920) 
nan

>  <Num_H_Atoms_ProtBoundConf>  (920) 
nan

>  <Num_Resolved_Atoms>  (920) 
nan

>  <Num_Not_Resolved_Atoms>  (920) 
nan

$$$$
CHEMBL3674733
     RDKit          3D

  0  0  0  0  0  0  0  0  0  0999 V3000
M  V30 BEGIN CTAB
M  V30 COUNTS 60 64 0 0 0
M  V30 BEGIN ATOM
M  V30 1 N 7.038134 -2.808337 6.426198 0
M  V30 2 C 6.043423 -2.750726 5.855389 0
M  V30 3 C 4.781789 -2.665744 5.115807 0
M  V30 4 C 4.472498 -1.230919 4.892336 0
M  V30 5 O 4.423486 -0.418561 5.849167 0
M  V30 6 N 4.214170 -0.662200 3.625082 0
M  V30 7 C 3.891649 0.754808 3.508420 0
M  V30 8 C 2.555667 1.018313 2.873866 0
M  V30 9 N 2.202978 0.049744 1.859366 0
M  V30 10 C 1.278425 0.284864 0.806664 0
M  V30 11 C 1.870645 0.201921 -0.460781 0
M  V30 12 C 1.067730 0.408705 -1.565252 0
M  V30 13 C -0.279530 0.689234 -1.429816 0
M  V30 14 C -0.847203 0.766911 -0.170457 0
M  V30 15 C -0.063776 0.564053 0.952403 0
M  V30 16 C -0.821564 0.685952 2.071079 0
M  V30 17 C -2.094788 0.968251 1.622368 0
M  V30 18 N -2.114422 1.018495 0.252886 0
M  V30 19 C -3.158594 1.262526 -0.684880 0
M  V30 20 C -3.905289 2.394058 -0.940592 0
M  V30 21 C -4.866396 2.315973 -1.930891 0
M  V30 22 N -5.040578 1.167913 -2.598758 0
M  V30 23 C -4.333144 0.051915 -2.376431 0
M  V30 24 N -4.584437 -1.125214 -3.130176 0
M  V30 25 C -3.878488 -2.372842 -2.980605 0 CFG=2
M  V30 26 C -4.073158 -2.862386 -1.564385 0
M  V30 27 C -2.817826 -3.655032 -1.259126 0
M  V30 28 C -1.833291 -3.395092 -2.364585 0 CFG=1
M  V30 29 O -1.630509 -4.511841 -3.179266 0
M  V30 30 C -2.386124 -2.207456 -3.076915 0
M  V30 31 N -3.432995 0.177960 -1.425837 0
M  V30 32 C 2.794789 -1.289367 1.850295 0
M  V30 33 C 4.226785 -1.253166 2.302216 0
M  V30 34 H 4.721624 -3.286354 4.224109 0
M  V30 35 H 3.970590 -3.015715 5.829347 0
M  V30 36 H 3.890477 1.212575 4.493920 0
M  V30 37 H 4.717419 1.226496 2.894807 0
M  V30 38 H 2.638238 2.048221 2.416589 0
M  V30 39 H 1.802027 1.007189 3.685480 0
M  V30 40 H 2.904374 -0.008464 -0.640488 0
M  V30 41 H 1.482618 0.354680 -2.545650 0
M  V30 42 H -0.857478 0.840133 -2.318728 0
M  V30 43 H -0.484497 0.582271 3.081722 0
M  V30 44 H -2.975541 1.135040 2.197985 0
M  V30 45 H -3.621392 3.225414 -0.299178 0
M  V30 46 H -5.415454 3.231979 -2.080613 0
M  V30 47 H -5.356595 -1.081682 -3.863239 0
M  V30 48 H -4.247175 -3.118236 -3.723451 0
M  V30 49 H -4.081328 -2.018227 -0.849140 0
M  V30 50 H -4.986815 -3.459980 -1.435999 0
M  V30 51 H -3.054352 -4.739102 -1.150694 0
M  V30 52 H -2.344815 -3.375018 -0.289685 0
M  V30 53 H -0.840006 -3.066895 -1.926274 0
M  V30 54 H -0.708139 -4.550667 -3.557665 0
M  V30 55 H -2.023691 -1.240438 -2.690003 0
M  V30 56 H -2.163342 -2.291230 -4.187703 0
M  V30 57 H 2.730831 -1.766086 0.863526 0
M  V30 58 H 2.168429 -1.889680 2.561282 0
M  V30 59 H 4.760762 -0.605250 1.565755 0
M  V30 60 H 4.629855 -2.268648 2.284069 0
M  V30 END ATOM
M  V30 BEGIN BOND
M  V30 1 3 1 2
M  V30 2 1 2 3
M  V30 3 1 3 4
M  V30 4 2 4 5
M  V30 5 1 4 6
M  V30 6 1 6 7
M  V30 7 1 7 8
M  V30 8 1 8 9
M  V30 9 1 9 10
M  V30 10 2 10 11
M  V30 11 1 11 12
M  V30 12 2 12 13
M  V30 13 1 13 14
M  V30 14 2 14 15
M  V30 15 1 15 16
M  V30 16 2 16 17
M  V30 17 1 17 18
M  V30 18 1 18 19
M  V30 19 2 19 20
M  V30 20 1 20 21
M  V30 21 2 21 22
M  V30 22 1 22 23
M  V30 23 1 23 24
M  V30 24 1 24 25
M  V30 25 1 25 26
M  V30 26 1 26 27
M  V30 27 1 27 28
M  V30 28 1 28 29
M  V30 29 1 28 30
M  V30 30 2 23 31
M  V30 31 1 9 32
M  V30 32 1 32 33
M  V30 33 1 33 6
M  V30 34 1 15 10
M  V30 35 1 31 19
M  V30 36 1 18 14
M  V30 37 1 30 25
M  V30 38 1 3 34
M  V30 39 1 3 35
M  V30 40 1 7 36
M  V30 41 1 7 37
M  V30 42 1 8 38
M  V30 43 1 8 39
M  V30 44 1 11 40
M  V30 45 1 12 41
M  V30 46 1 13 42
M  V30 47 1 16 43
M  V30 48 1 17 44
M  V30 49 1 20 45
M  V30 50 1 21 46
M  V30 51 1 24 47
M  V30 52 1 25 48 CFG=3
M  V30 53 1 26 49
M  V30 54 1 26 50
M  V30 55 1 27 51
M  V30 56 1 27 52
M  V30 57 1 28 53 CFG=1
M  V30 58 1 29 54
M  V30 59 1 30 55
M  V30 60 1 30 56
M  V30 61 1 32 57
M  V30 62 1 32 58
M  V30 63 1 33 59
M  V30 64 1 33 60
M  V30 END BOND
M  V30 END CTAB
M  END
>  <Dataset>  (921) 
ChEMBL_Kinases

>  <Ligand_Instance>  (921) 
nan

>  <PDB_ID>  (921) 
nan

>  <Standardized_SMILES>  (921) 
N#CCC(=O)N1CCN(c2cccc3c2ccn3-c2ccnc(N[C@@H]3CC[C@@H](O)C3)n2)CC1

>  <Name>  (921) 
nan

>  <Pocket>  (921) 
nan

>  <ATP_Site>  (921) 
nan

>  <Peripheral>  (921) 
nan

>  <Num_H_Atoms_ProtBoundConf>  (921) 
nan

>  <Num_Resolved_Atoms>  (921) 
nan

>  <Num_Not_Resolved_Atoms>  (921) 
nan

$$$$
CHEMBL3674732
     RDKit          3D

  0  0  0  0  0  0  0  0  0  0999 V3000
M  V30 BEGIN CTAB
M  V30 COUNTS 60 64 0 0 0
M  V30 BEGIN ATOM
M  V30 1 N 8.185608 -1.964796 5.030763 0
M  V30 2 C 7.524399 -1.006337 5.085193 0
M  V30 3 C 6.678440 0.182753 5.150390 0
M  V30 4 C 6.380066 0.730915 3.811789 0
M  V30 5 O 7.384403 1.042152 3.117234 0
M  V30 6 N 5.113506 0.947647 3.217143 0
M  V30 7 C 5.068649 1.512532 1.897302 0
M  V30 8 C 3.804708 2.254928 1.614773 0
M  V30 9 N 2.624950 1.552291 2.084033 0
M  V30 10 C 1.690585 1.092910 1.115481 0
M  V30 11 C 2.250294 0.743011 -0.119150 0
M  V30 12 C 1.439782 0.232883 -1.104935 0
M  V30 13 C 0.090986 0.057492 -0.910605 0
M  V30 14 C -0.478995 0.391207 0.282307 0
M  V30 15 C 0.336234 0.901048 1.267068 0
M  V30 16 C -0.441286 1.166581 2.340924 0
M  V30 17 C -1.743409 0.825316 2.037079 0
M  V30 18 N -1.729356 0.357396 0.777319 0
M  V30 19 C -2.906858 -0.113571 0.072557 0
M  V30 20 C -4.171745 0.317164 0.415811 0
M  V30 21 C -5.208539 -0.204566 -0.327040 0
M  V30 22 N -5.088354 -1.085299 -1.341746 0
M  V30 23 C -3.814114 -1.487046 -1.649362 0
M  V30 24 N -3.601342 -2.410425 -2.696791 0
M  V30 25 C -4.742910 -2.921078 -3.442036 0 CFG=1
M  V30 26 C -4.258569 -3.908274 -4.482590 0
M  V30 27 C -4.179119 -5.244149 -3.813811 0
M  V30 28 C -4.488211 -4.958206 -2.359021 0 CFG=2
M  V30 29 O -4.984710 -6.083183 -1.707592 0
M  V30 30 C -5.507201 -3.844103 -2.494288 0
M  V30 31 N -2.775713 -0.995017 -0.942059 0
M  V30 32 C 2.805562 1.505860 3.518561 0
M  V30 33 C 3.925397 0.581149 3.952380 0
M  V30 34 H 5.788564 -0.014770 5.759087 0
M  V30 35 H 7.279232 0.939312 5.732956 0
M  V30 36 H 5.179040 0.648794 1.192243 0
M  V30 37 H 5.935662 2.150819 1.765334 0
M  V30 38 H 3.739991 2.462894 0.541772 0
M  V30 39 H 3.884382 3.267816 2.109567 0
M  V30 40 H 3.267554 0.798242 -0.457340 0
M  V30 41 H 1.768670 -0.074503 -2.110961 0
M  V30 42 H -0.572182 -0.338489 -1.663411 0
M  V30 43 H -0.214181 1.572970 3.298942 0
M  V30 44 H -2.628820 0.901964 2.654213 0
M  V30 45 H -4.300342 1.015005 1.218716 0
M  V30 46 H -6.240001 0.083959 -0.123500 0
M  V30 47 H -2.635062 -2.716254 -2.923556 0
M  V30 48 H -5.342830 -2.106354 -3.841629 0
M  V30 49 H -3.256548 -3.620120 -4.861667 0
M  V30 50 H -4.986438 -3.931232 -5.340475 0
M  V30 51 H -5.032446 -5.879427 -4.185729 0
M  V30 52 H -3.210742 -5.772355 -3.939544 0
M  V30 53 H -3.573209 -4.563014 -1.854088 0
M  V30 54 H -4.298192 -6.503593 -1.128295 0
M  V30 55 H -5.756511 -3.368129 -1.544628 0
M  V30 56 H -6.359173 -4.223994 -3.085504 0
M  V30 57 H 1.884285 1.029419 3.973025 0
M  V30 58 H 2.865687 2.509413 3.949448 0
M  V30 59 H 4.002527 0.668130 5.037240 0
M  V30 60 H 3.584622 -0.450651 3.695575 0
M  V30 END ATOM
M  V30 BEGIN BOND
M  V30 1 3 1 2
M  V30 2 1 2 3
M  V30 3 1 3 4
M  V30 4 2 4 5
M  V30 5 1 4 6
M  V30 6 1 6 7
M  V30 7 1 7 8
M  V30 8 1 8 9
M  V30 9 1 9 10
M  V30 10 2 10 11
M  V30 11 1 11 12
M  V30 12 2 12 13
M  V30 13 1 13 14
M  V30 14 2 14 15
M  V30 15 1 15 16
M  V30 16 2 16 17
M  V30 17 1 17 18
M  V30 18 1 18 19
M  V30 19 2 19 20
M  V30 20 1 20 21
M  V30 21 2 21 22
M  V30 22 1 22 23
M  V30 23 1 23 24
M  V30 24 1 24 25
M  V30 25 1 25 26
M  V30 26 1 26 27
M  V30 27 1 27 28
M  V30 28 1 28 29
M  V30 29 1 28 30
M  V30 30 2 23 31
M  V30 31 1 9 32
M  V30 32 1 32 33
M  V30 33 1 33 6
M  V30 34 1 15 10
M  V30 35 1 31 19
M  V30 36 1 18 14
M  V30 37 1 30 25
M  V30 38 1 3 34
M  V30 39 1 3 35
M  V30 40 1 7 36
M  V30 41 1 7 37
M  V30 42 1 8 38
M  V30 43 1 8 39
M  V30 44 1 11 40
M  V30 45 1 12 41
M  V30 46 1 13 42
M  V30 47 1 16 43
M  V30 48 1 17 44
M  V30 49 1 20 45
M  V30 50 1 21 46
M  V30 51 1 24 47
M  V30 52 1 25 48 CFG=3
M  V30 53 1 26 49
M  V30 54 1 26 50
M  V30 55 1 27 51
M  V30 56 1 27 52
M  V30 57 1 28 53 CFG=1
M  V30 58 1 29 54
M  V30 59 1 30 55
M  V30 60 1 30 56
M  V30 61 1 32 57
M  V30 62 1 32 58
M  V30 63 1 33 59
M  V30 64 1 33 60
M  V30 END BOND
M  V30 END CTAB
M  END
>  <Dataset>  (922) 
ChEMBL_Kinases

>  <Ligand_Instance>  (922) 
nan

>  <PDB_ID>  (922) 
nan

>  <Standardized_SMILES>  (922) 
N#CCC(=O)N1CCN(c2cccc3c2ccn3-c2ccnc(N[C@H]3CC[C@H](O)C3)n2)CC1

>  <Name>  (922) 
nan

>  <Pocket>  (922) 
nan

>  <ATP_Site>  (922) 
nan

>  <Peripheral>  (922) 
nan

>  <Num_H_Atoms_ProtBoundConf>  (922) 
nan

>  <Num_Resolved_Atoms>  (922) 
nan

>  <Num_Not_Resolved_Atoms>  (922) 
nan

$$$$
CHEMBL3674731
     RDKit          3D

  0  0  0  0  0  0  0  0  0  0999 V3000
M  V30 BEGIN CTAB
M  V30 COUNTS 60 64 0 0 0
M  V30 BEGIN ATOM
M  V30 1 N 3.075732 -2.353871 6.460911 0
M  V30 2 C 3.244444 -1.300857 5.982210 0
M  V30 3 C 3.438890 0.027934 5.364061 0
M  V30 4 C 4.293755 -0.194456 4.169328 0
M  V30 5 O 4.482783 -1.450110 4.210640 0
M  V30 6 N 4.740376 0.803819 3.263283 0
M  V30 7 C 4.437235 2.198626 3.349410 0
M  V30 8 C 3.747131 2.628197 2.080529 0
M  V30 9 N 3.678644 1.541155 1.163781 0
M  V30 10 C 2.503877 1.261670 0.407067 0
M  V30 11 C 2.720852 1.337190 -0.968975 0
M  V30 12 C 1.689190 1.097214 -1.884455 0
M  V30 13 C 0.447875 0.782642 -1.370520 0
M  V30 14 C 0.213334 0.703042 -0.014619 0
M  V30 15 C 1.242056 0.942737 0.873162 0
M  V30 16 C 0.848188 0.824145 2.167567 0
M  V30 17 C -0.500546 0.492164 2.089222 0
M  V30 18 N -0.863246 0.424033 0.777623 0
M  V30 19 C -2.112950 0.125385 0.157132 0
M  V30 20 C -3.125983 0.976044 -0.236519 0
M  V30 21 C -4.249703 0.420401 -0.823262 0
M  V30 22 N -4.331632 -0.912754 -0.995459 0
M  V30 23 C -3.351757 -1.754965 -0.616636 0
M  V30 24 N -3.488742 -3.158106 -0.821822 0
M  V30 25 C -4.659933 -3.701710 -1.429830 0 CFG=2
M  V30 26 C -4.501749 -5.205387 -1.504911 0
M  V30 27 C -5.140737 -5.681203 -2.767845 0
M  V30 28 C -5.586768 -4.444241 -3.493997 0 CFG=2
M  V30 29 O -5.234916 -4.598999 -4.841745 0
M  V30 30 C -4.868390 -3.280578 -2.849466 0
M  V30 31 N -2.276486 -1.204685 -0.053316 0
M  V30 32 C 4.790553 0.612455 0.904441 0
M  V30 33 C 5.575227 0.353696 2.166461 0
M  V30 34 H 2.478465 0.497738 5.160865 0
M  V30 35 H 4.032107 0.597548 6.138220 0
M  V30 36 H 5.436815 2.726244 3.344802 0
M  V30 37 H 3.870792 2.472735 4.261829 0
M  V30 38 H 4.220890 3.522785 1.624538 0
M  V30 39 H 2.688647 2.870789 2.385061 0
M  V30 40 H 3.677019 1.580580 -1.428629 0
M  V30 41 H 1.861025 1.156727 -2.954249 0
M  V30 42 H -0.368150 0.592098 -2.052748 0
M  V30 43 H 1.425167 0.951702 3.057408 0
M  V30 44 H -1.192406 0.308188 2.885357 0
M  V30 45 H -2.902870 2.012118 -0.027359 0
M  V30 46 H -5.005007 1.139610 -1.108151 0
M  V30 47 H -2.678368 -3.764997 -0.499514 0
M  V30 48 H -5.530269 -3.413646 -0.807029 0
M  V30 49 H -3.405715 -5.450555 -1.501620 0
M  V30 50 H -4.907877 -5.695818 -0.583225 0
M  V30 51 H -5.970691 -6.409775 -2.608894 0
M  V30 52 H -4.383160 -6.251674 -3.374141 0
M  V30 53 H -6.693375 -4.390062 -3.390941 0
M  V30 54 H -4.302262 -4.259214 -4.936178 0
M  V30 55 H -3.934942 -3.073672 -3.407635 0
M  V30 56 H -5.600285 -2.424637 -2.888094 0
M  V30 57 H 5.479040 1.089832 0.171609 0
M  V30 58 H 4.460887 -0.336909 0.481509 0
M  V30 59 H 6.499611 0.999860 2.188501 0
M  V30 60 H 5.824982 -0.703187 2.220125 0
M  V30 END ATOM
M  V30 BEGIN BOND
M  V30 1 3 1 2
M  V30 2 1 2 3
M  V30 3 1 3 4
M  V30 4 2 4 5
M  V30 5 1 4 6
M  V30 6 1 6 7
M  V30 7 1 7 8
M  V30 8 1 8 9
M  V30 9 1 9 10
M  V30 10 2 10 11
M  V30 11 1 11 12
M  V30 12 2 12 13
M  V30 13 1 13 14
M  V30 14 2 14 15
M  V30 15 1 15 16
M  V30 16 2 16 17
M  V30 17 1 17 18
M  V30 18 1 18 19
M  V30 19 2 19 20
M  V30 20 1 20 21
M  V30 21 2 21 22
M  V30 22 1 22 23
M  V30 23 1 23 24
M  V30 24 1 24 25
M  V30 25 1 25 26
M  V30 26 1 26 27
M  V30 27 1 27 28
M  V30 28 1 28 29
M  V30 29 1 28 30
M  V30 30 2 23 31
M  V30 31 1 9 32
M  V30 32 1 32 33
M  V30 33 1 33 6
M  V30 34 1 15 10
M  V30 35 1 31 19
M  V30 36 1 18 14
M  V30 37 1 30 25
M  V30 38 1 3 34
M  V30 39 1 3 35
M  V30 40 1 7 36
M  V30 41 1 7 37
M  V30 42 1 8 38
M  V30 43 1 8 39
M  V30 44 1 11 40
M  V30 45 1 12 41
M  V30 46 1 13 42
M  V30 47 1 16 43
M  V30 48 1 17 44
M  V30 49 1 20 45
M  V30 50 1 21 46
M  V30 51 1 24 47
M  V30 52 1 25 48 CFG=1
M  V30 53 1 26 49
M  V30 54 1 26 50
M  V30 55 1 27 51
M  V30 56 1 27 52
M  V30 57 1 28 53 CFG=3
M  V30 58 1 29 54
M  V30 59 1 30 55
M  V30 60 1 30 56
M  V30 61 1 32 57
M  V30 62 1 32 58
M  V30 63 1 33 59
M  V30 64 1 33 60
M  V30 END BOND
M  V30 END CTAB
M  END
>  <Dataset>  (923) 
ChEMBL_Kinases

>  <Ligand_Instance>  (923) 
nan

>  <PDB_ID>  (923) 
nan

>  <Standardized_SMILES>  (923) 
N#CCC(=O)N1CCN(c2cccc3c2ccn3-c2ccnc(N[C@@H]3CC[C@H](O)C3)n2)CC1

>  <Name>  (923) 
nan

>  <Pocket>  (923) 
nan

>  <ATP_Site>  (923) 
nan

>  <Peripheral>  (923) 
nan

>  <Num_H_Atoms_ProtBoundConf>  (923) 
nan

>  <Num_Resolved_Atoms>  (923) 
nan

>  <Num_Not_Resolved_Atoms>  (923) 
nan

$$$$
CHEMBL3674730
     RDKit          3D

  0  0  0  0  0  0  0  0  0  0999 V3000
M  V30 BEGIN CTAB
M  V30 COUNTS 60 64 0 0 0
M  V30 BEGIN ATOM
M  V30 1 N 7.436613 -1.566067 6.886163 0
M  V30 2 C 6.752300 -0.657446 6.620966 0
M  V30 3 C 5.897436 0.500618 6.300941 0
M  V30 4 C 6.046447 0.869767 4.878604 0
M  V30 5 O 6.984014 1.551196 4.379646 0
M  V30 6 N 5.095261 0.460719 3.928032 0
M  V30 7 C 5.185809 0.787046 2.527547 0
M  V30 8 C 4.013635 1.593837 2.052260 0
M  V30 9 N 2.738244 0.948909 2.190150 0
M  V30 10 C 1.870678 0.829711 1.069750 0
M  V30 11 C 2.464842 0.783507 -0.173413 0
M  V30 12 C 1.701783 0.621432 -1.306688 0
M  V30 13 C 0.322659 0.500250 -1.240305 0
M  V30 14 C -0.299898 0.543433 -0.012848 0
M  V30 15 C 0.499584 0.706997 1.096671 0
M  V30 16 C -0.342414 0.729305 2.161055 0
M  V30 17 C -1.639734 0.580514 1.720010 0
M  V30 18 N -1.586997 0.467841 0.378777 0
M  V30 19 C -2.660842 0.294287 -0.544735 0
M  V30 20 C -3.718512 1.138073 -0.812804 0
M  V30 21 C -4.634988 0.721840 -1.772868 0
M  V30 22 N -4.471331 -0.458750 -2.397303 0
M  V30 23 C -3.442435 -1.284558 -2.139501 0
M  V30 24 N -3.301657 -2.527480 -2.822403 0
M  V30 25 C -4.289552 -2.869868 -3.793242 0 CFG=1
M  V30 26 C -3.931910 -4.221557 -4.378336 0
M  V30 27 C -4.457156 -5.242157 -3.421956 0
M  V30 28 C -5.554357 -4.571396 -2.621761 0 CFG=1
M  V30 29 O -5.275421 -4.586663 -1.255323 0
M  V30 30 C -5.644340 -3.150427 -3.142508 0
M  V30 31 N -2.553533 -0.885684 -1.211370 0
M  V30 32 C 2.707536 0.536209 3.566702 0
M  V30 33 C 3.887286 -0.306283 3.995947 0
M  V30 34 H 4.847824 0.329299 6.550408 0
M  V30 35 H 6.250345 1.323831 6.982377 0
M  V30 36 H 5.324225 -0.126826 1.914545 0
M  V30 37 H 6.096743 1.419998 2.382548 0
M  V30 38 H 4.260463 1.932925 1.027241 0
M  V30 39 H 4.010719 2.518668 2.714677 0
M  V30 40 H 3.504591 0.851119 -0.447080 0
M  V30 41 H 2.063650 0.571402 -2.332390 0
M  V30 42 H -0.311473 0.370851 -2.115443 0
M  V30 43 H -0.167319 0.844342 3.206303 0
M  V30 44 H -2.558440 0.549419 2.254999 0
M  V30 45 H -3.705455 2.048515 -0.226026 0
M  V30 46 H -5.442762 1.421539 -1.943450 0
M  V30 47 H -2.487170 -3.134727 -2.587874 0
M  V30 48 H -4.429314 -2.100472 -4.575768 0
M  V30 49 H -4.282446 -4.335718 -5.418039 0
M  V30 50 H -2.809508 -4.299521 -4.380712 0
M  V30 51 H -4.847870 -6.113260 -3.962816 0
M  V30 52 H -3.668798 -5.648346 -2.724262 0
M  V30 53 H -6.504024 -5.117918 -2.779601 0
M  V30 54 H -4.574748 -5.255824 -1.026992 0
M  V30 55 H -5.816772 -2.425081 -2.335922 0
M  V30 56 H -6.442514 -3.122856 -3.899278 0
M  V30 57 H 1.833331 -0.184237 3.649001 0
M  V30 58 H 2.477033 1.376807 4.215653 0
M  V30 59 H 3.645170 -0.644174 5.029165 0
M  V30 60 H 3.892144 -1.231873 3.387749 0
M  V30 END ATOM
M  V30 BEGIN BOND
M  V30 1 3 1 2
M  V30 2 1 2 3
M  V30 3 1 3 4
M  V30 4 2 4 5
M  V30 5 1 4 6
M  V30 6 1 6 7
M  V30 7 1 7 8
M  V30 8 1 8 9
M  V30 9 1 9 10
M  V30 10 2 10 11
M  V30 11 1 11 12
M  V30 12 2 12 13
M  V30 13 1 13 14
M  V30 14 2 14 15
M  V30 15 1 15 16
M  V30 16 2 16 17
M  V30 17 1 17 18
M  V30 18 1 18 19
M  V30 19 2 19 20
M  V30 20 1 20 21
M  V30 21 2 21 22
M  V30 22 1 22 23
M  V30 23 1 23 24
M  V30 24 1 24 25
M  V30 25 1 25 26
M  V30 26 1 26 27
M  V30 27 1 27 28
M  V30 28 1 28 29
M  V30 29 1 28 30
M  V30 30 2 23 31
M  V30 31 1 9 32
M  V30 32 1 32 33
M  V30 33 1 33 6
M  V30 34 1 15 10
M  V30 35 1 31 19
M  V30 36 1 18 14
M  V30 37 1 30 25
M  V30 38 1 3 34
M  V30 39 1 3 35
M  V30 40 1 7 36
M  V30 41 1 7 37
M  V30 42 1 8 38
M  V30 43 1 8 39
M  V30 44 1 11 40
M  V30 45 1 12 41
M  V30 46 1 13 42
M  V30 47 1 16 43
M  V30 48 1 17 44
M  V30 49 1 20 45
M  V30 50 1 21 46
M  V30 51 1 24 47
M  V30 52 1 25 48 CFG=3
M  V30 53 1 26 49
M  V30 54 1 26 50
M  V30 55 1 27 51
M  V30 56 1 27 52
M  V30 57 1 28 53 CFG=1
M  V30 58 1 29 54
M  V30 59 1 30 55
M  V30 60 1 30 56
M  V30 61 1 32 57
M  V30 62 1 32 58
M  V30 63 1 33 59
M  V30 64 1 33 60
M  V30 END BOND
M  V30 END CTAB
M  END
>  <Dataset>  (924) 
ChEMBL_Kinases

>  <Ligand_Instance>  (924) 
nan

>  <PDB_ID>  (924) 
nan

>  <Standardized_SMILES>  (924) 
N#CCC(=O)N1CCN(c2cccc3c2ccn3-c2ccnc(N[C@H]3CC[C@@H](O)C3)n2)CC1

>  <Name>  (924) 
nan

>  <Pocket>  (924) 
nan

>  <ATP_Site>  (924) 
nan

>  <Peripheral>  (924) 
nan

>  <Num_H_Atoms_ProtBoundConf>  (924) 
nan

>  <Num_Resolved_Atoms>  (924) 
nan

>  <Num_Not_Resolved_Atoms>  (924) 
nan

$$$$
CHEMBL3674729
     RDKit          3D

  0  0  0  0  0  0  0  0  0  0999 V3000
M  V30 BEGIN CTAB
M  V30 COUNTS 63 67 0 0 0
M  V30 BEGIN ATOM
M  V30 1 N 3.865370 1.209264 7.464978 0
M  V30 2 C 3.809702 1.490624 6.325631 0
M  V30 3 C 3.731508 1.829943 4.906793 0
M  V30 4 C 2.707671 2.855875 4.660486 0
M  V30 5 O 2.121850 3.219919 5.712165 0
M  V30 6 N 2.500394 3.303223 3.329221 0
M  V30 7 C 3.270394 2.779726 2.189309 0
M  V30 8 C 2.433499 2.974355 0.962246 0
M  V30 9 N 1.050154 2.605163 1.305388 0
M  V30 10 C 0.510070 1.402027 0.785067 0
M  V30 11 C 1.395259 0.473856 0.249364 0
M  V30 12 C 0.968161 -0.737083 -0.252523 0
M  V30 13 C -0.381739 -1.088194 -0.245357 0
M  V30 14 C -1.262867 -0.184762 0.278087 0
M  V30 15 C -0.808517 1.016173 0.771860 0
M  V30 16 C -1.909929 1.675808 1.202453 0
M  V30 17 C -3.012492 0.882087 0.971820 0
M  V30 18 N -2.600149 -0.253848 0.405559 0
M  V30 19 C -3.461977 -1.321421 0.021875 0
M  V30 20 C -4.788724 -1.312784 0.412016 0
M  V30 21 C -5.686675 -2.305531 0.081409 0
M  V30 22 N -5.205093 -3.315826 -0.659937 0
M  V30 23 C -3.911357 -3.385049 -1.076546 0
M  V30 24 N -3.471496 -4.482600 -1.860706 0
M  V30 25 C -2.144217 -4.675388 -2.356197 0 CFG=1
M  V30 26 C -1.655876 -3.566457 -3.245782 0
M  V30 27 C -0.196176 -3.389589 -3.303074 0
M  V30 28 C 0.679102 -4.470101 -2.809109 0 CFG=1
M  V30 29 O 1.709106 -3.900536 -2.019959 0
M  V30 30 C 0.069516 -5.536988 -1.983039 0
M  V30 31 C -1.157921 -5.076764 -1.279693 0
M  V30 32 N -3.090937 -2.381674 -0.717091 0
M  V30 33 C 0.425567 3.566775 2.193286 0
M  V30 34 C 1.493790 4.326257 3.006260 0
M  V30 35 H 4.762276 2.196578 4.628815 0
M  V30 36 H 3.560179 0.885862 4.350698 0
M  V30 37 H 3.512187 1.737392 2.426932 0
M  V30 38 H 4.214477 3.384427 2.188381 0
M  V30 39 H 2.412579 4.085256 0.771664 0
M  V30 40 H 2.797077 2.517522 0.048325 0
M  V30 41 H 2.448571 0.561606 0.162950 0
M  V30 42 H 1.607255 -1.500053 -0.681459 0
M  V30 43 H -0.742801 -2.011685 -0.623662 0
M  V30 44 H -1.984626 2.646025 1.647128 0
M  V30 45 H -4.044944 1.142393 1.212794 0
M  V30 46 H -5.226602 -0.505551 1.019913 0
M  V30 47 H -6.712295 -2.346036 0.354847 0
M  V30 48 H -4.207887 -5.218104 -2.090549 0
M  V30 49 H -2.135593 -5.584313 -3.034686 0
M  V30 50 H -2.083713 -3.682725 -4.286839 0
M  V30 51 H -2.139874 -2.637506 -2.877760 0
M  V30 52 H 0.103390 -3.219644 -4.383045 0
M  V30 53 H 0.089759 -2.400781 -2.832684 0
M  V30 54 H 1.259215 -4.986231 -3.633801 0
M  V30 55 H 2.372411 -4.592447 -1.768914 0
M  V30 56 H -0.228049 -6.447674 -2.579525 0
M  V30 57 H 0.801382 -5.935087 -1.226887 0
M  V30 58 H -1.037197 -4.372791 -0.468663 0
M  V30 59 H -1.611808 -6.001273 -0.809651 0
M  V30 60 H -0.125070 3.002499 3.002641 0
M  V30 61 H -0.259583 4.252184 1.706612 0
M  V30 62 H 1.050812 4.714934 3.942070 0
M  V30 63 H 1.898038 5.156176 2.428387 0
M  V30 END ATOM
M  V30 BEGIN BOND
M  V30 1 3 1 2
M  V30 2 1 2 3
M  V30 3 1 3 4
M  V30 4 2 4 5
M  V30 5 1 4 6
M  V30 6 1 6 7
M  V30 7 1 7 8
M  V30 8 1 8 9
M  V30 9 1 9 10
M  V30 10 2 10 11
M  V30 11 1 11 12
M  V30 12 2 12 13
M  V30 13 1 13 14
M  V30 14 2 14 15
M  V30 15 1 15 16
M  V30 16 2 16 17
M  V30 17 1 17 18
M  V30 18 1 18 19
M  V30 19 2 19 20
M  V30 20 1 20 21
M  V30 21 2 21 22
M  V30 22 1 22 23
M  V30 23 1 23 24
M  V30 24 1 24 25
M  V30 25 1 25 26
M  V30 26 1 26 27
M  V30 27 1 27 28
M  V30 28 1 28 29
M  V30 29 1 28 30
M  V30 30 1 30 31
M  V30 31 2 23 32
M  V30 32 1 9 33
M  V30 33 1 33 34
M  V30 34 1 34 6
M  V30 35 1 15 10
M  V30 36 1 32 19
M  V30 37 1 18 14
M  V30 38 1 31 25
M  V30 39 1 3 35
M  V30 40 1 3 36
M  V30 41 1 7 37
M  V30 42 1 7 38
M  V30 43 1 8 39
M  V30 44 1 8 40
M  V30 45 1 11 41
M  V30 46 1 12 42
M  V30 47 1 13 43
M  V30 48 1 16 44
M  V30 49 1 17 45
M  V30 50 1 20 46
M  V30 51 1 21 47
M  V30 52 1 24 48
M  V30 53 1 25 49 CFG=3
M  V30 54 1 26 50
M  V30 55 1 26 51
M  V30 56 1 27 52
M  V30 57 1 27 53
M  V30 58 1 28 54 CFG=3
M  V30 59 1 29 55
M  V30 60 1 30 56
M  V30 61 1 30 57
M  V30 62 1 31 58
M  V30 63 1 31 59
M  V30 64 1 33 60
M  V30 65 1 33 61
M  V30 66 1 34 62
M  V30 67 1 34 63
M  V30 END BOND
M  V30 END CTAB
M  END
>  <Dataset>  (925) 
ChEMBL_Kinases

>  <Ligand_Instance>  (925) 
nan

>  <PDB_ID>  (925) 
nan

>  <Standardized_SMILES>  (925) 
N#CCC(=O)N1CCN(c2cccc3c2ccn3-c2ccnc(N[C@H]3CC[C@@H](O)CC3)n2)CC1

>  <Name>  (925) 
nan

>  <Pocket>  (925) 
nan

>  <ATP_Site>  (925) 
nan

>  <Peripheral>  (925) 
nan

>  <Num_H_Atoms_ProtBoundConf>  (925) 
nan

>  <Num_Resolved_Atoms>  (925) 
nan

>  <Num_Not_Resolved_Atoms>  (925) 
nan

$$$$
CHEMBL3674728
     RDKit          3D

  0  0  0  0  0  0  0  0  0  0999 V3000
M  V30 BEGIN CTAB
M  V30 COUNTS 84 89 0 0 0
M  V30 BEGIN ATOM
M  V30 1 C 0.054043 -4.463280 1.880001 0
M  V30 2 C 1.558367 -4.581296 1.999571 0
M  V30 3 N 2.251724 -3.442059 1.422176 0
M  V30 4 C 2.081321 -3.445297 0.003254 0
M  V30 5 C 3.299526 -3.010877 -0.755841 0
M  V30 6 N 4.108753 -2.029795 -0.048975 0
M  V30 7 C 4.602134 -0.720057 -0.397297 0
M  V30 8 O 5.311398 0.002239 0.353405 0
M  V30 9 C 4.271615 -0.147133 -1.725590 0 CFG=1
M  V30 10 C 2.798192 0.064565 -1.932500 0
M  V30 11 C 2.448977 1.541730 -2.062381 0
M  V30 12 C 3.221633 2.368662 -1.076305 0 CFG=2
M  V30 13 N 2.750577 3.736732 -1.110012 0
M  V30 14 C 1.429748 4.162225 -0.812390 0
M  V30 15 N 1.097661 5.464040 -0.871751 0
M  V30 16 C -0.133350 5.924643 -0.600198 0
M  V30 17 C -1.128179 5.041497 -0.239398 0
M  V30 18 C -0.805444 3.703505 -0.173888 0
M  V30 19 N -1.665398 2.622034 0.170747 0
M  V30 20 C -2.926346 2.521692 -0.321265 0
M  V30 21 C -3.488805 1.357775 0.207988 0
M  V30 22 C -2.533328 0.795957 1.007289 0
M  V30 23 C -2.447700 -0.331415 1.799983 0
M  V30 24 N -3.557029 -1.217808 1.899604 0
M  V30 25 C -4.920940 -1.038835 2.349845 0
M  V30 26 C -5.945335 -1.694490 1.482841 0
M  V30 27 N -5.401758 -2.150862 0.219101 0
M  V30 28 C -5.961106 -1.817629 -1.039609 0
M  V30 29 O -6.982165 -1.077523 -0.881853 0
M  V30 30 C -5.303402 -2.354588 -2.258944 0
M  V30 31 C -5.990492 -1.924431 -3.473525 0
M  V30 32 N -6.525994 -1.567394 -4.450526 0
M  V30 33 C -4.211576 -2.996202 0.332468 0
M  V30 34 C -3.348289 -2.598451 1.481723 0
M  V30 35 C -1.333263 -0.688094 2.533462 0
M  V30 36 C -0.230993 0.136970 2.470636 0
M  V30 37 C -0.238121 1.281810 1.701105 0
M  V30 38 C -1.394289 1.585216 0.984356 0
M  V30 39 N 0.450505 3.317626 -0.460284 0
M  V30 40 C 4.707307 2.278612 -1.290612 0
M  V30 41 C 5.107920 1.045958 -2.057337 0
M  V30 42 C 4.497604 -2.475567 1.298855 0
M  V30 43 C 3.643399 -3.588267 1.806431 0
M  V30 44 H -0.200508 -4.235378 0.837273 0
M  V30 45 H -0.320724 -3.670757 2.540837 0
M  V30 46 H -0.341408 -5.487603 2.141501 0
M  V30 47 H 1.835341 -4.704084 3.083879 0
M  V30 48 H 1.896985 -5.530384 1.514965 0
M  V30 49 H 1.159599 -2.853886 -0.247330 0
M  V30 50 H 1.852553 -4.509442 -0.301541 0
M  V30 51 H 3.905902 -3.905197 -1.035143 0
M  V30 52 H 2.976732 -2.549427 -1.709148 0
M  V30 53 H 4.559605 -0.946706 -2.472043 0
M  V30 54 H 2.240371 -0.360451 -1.072068 0
M  V30 55 H 2.393711 -0.418637 -2.843624 0
M  V30 56 H 2.641981 1.869897 -3.103427 0
M  V30 57 H 1.381633 1.620908 -1.824177 0
M  V30 58 H 3.029259 1.895349 -0.075255 0
M  V30 59 H 3.456794 4.463853 -1.379159 0
M  V30 60 H -0.390659 6.974464 -0.649891 0
M  V30 61 H -2.151929 5.286348 0.001934 0
M  V30 62 H -3.441189 3.189246 -0.996992 0
M  V30 63 H -4.476029 0.947536 0.046527 0
M  V30 64 H -5.064979 0.080443 2.392602 0
M  V30 65 H -4.969862 -1.413144 3.386932 0
M  V30 66 H -6.339802 -2.613554 2.003903 0
M  V30 67 H -6.833621 -1.036401 1.317533 0
M  V30 68 H -5.278537 -3.467236 -2.235122 0
M  V30 69 H -4.238856 -2.011754 -2.341297 0
M  V30 70 H -3.648207 -3.018519 -0.642150 0
M  V30 71 H -4.571923 -4.040281 0.466640 0
M  V30 72 H -2.298536 -2.789065 1.183694 0
M  V30 73 H -3.503067 -3.276952 2.372808 0
M  V30 74 H -1.276054 -1.556373 3.142307 0
M  V30 75 H 0.680174 -0.100121 3.035631 0
M  V30 76 H 0.613979 1.956208 1.628522 0
M  V30 77 H 5.303057 2.414563 -0.367209 0
M  V30 78 H 4.981319 3.159136 -1.932048 0
M  V30 79 H 5.087359 1.259118 -3.141215 0
M  V30 80 H 6.155409 0.797578 -1.771885 0
M  V30 81 H 5.567928 -2.765606 1.316663 0
M  V30 82 H 4.396452 -1.586409 1.974716 0
M  V30 83 H 3.646080 -3.576224 2.922066 0
M  V30 84 H 4.030839 -4.596358 1.515763 0
M  V30 END ATOM
M  V30 BEGIN BOND
M  V30 1 1 1 2
M  V30 2 1 2 3
M  V30 3 1 3 4
M  V30 4 1 4 5
M  V30 5 1 5 6
M  V30 6 1 6 7
M  V30 7 2 7 8
M  V30 8 1 7 9
M  V30 9 1 9 10
M  V30 10 1 10 11
M  V30 11 1 11 12
M  V30 12 1 12 13
M  V30 13 1 13 14
M  V30 14 2 14 15
M  V30 15 1 15 16
M  V30 16 2 16 17
M  V30 17 1 17 18
M  V30 18 1 18 19
M  V30 19 1 19 20
M  V30 20 2 20 21
M  V30 21 1 21 22
M  V30 22 2 22 23
M  V30 23 1 23 24
M  V30 24 1 24 25
M  V30 25 1 25 26
M  V30 26 1 26 27
M  V30 27 1 27 28
M  V30 28 2 28 29
M  V30 29 1 28 30
M  V30 30 1 30 31
M  V30 31 3 31 32
M  V30 32 1 27 33
M  V30 33 1 33 34
M  V30 34 1 23 35
M  V30 35 2 35 36
M  V30 36 1 36 37
M  V30 37 2 37 38
M  V30 38 2 18 39
M  V30 39 1 12 40
M  V30 40 1 40 41
M  V30 41 1 6 42
M  V30 42 1 42 43
M  V30 43 1 43 3
M  V30 44 1 41 9
M  V30 45 1 39 14
M  V30 46 1 38 19
M  V30 47 1 38 22
M  V30 48 1 34 24
M  V30 49 1 1 44
M  V30 50 1 1 45
M  V30 51 1 1 46
M  V30 52 1 2 47
M  V30 53 1 2 48
M  V30 54 1 4 49
M  V30 55 1 4 50
M  V30 56 1 5 51
M  V30 57 1 5 52
M  V30 58 1 9 53 CFG=3
M  V30 59 1 10 54
M  V30 60 1 10 55
M  V30 61 1 11 56
M  V30 62 1 11 57
M  V30 63 1 12 58 CFG=1
M  V30 64 1 13 59
M  V30 65 1 16 60
M  V30 66 1 17 61
M  V30 67 1 20 62
M  V30 68 1 21 63
M  V30 69 1 25 64
M  V30 70 1 25 65
M  V30 71 1 26 66
M  V30 72 1 26 67
M  V30 73 1 30 68
M  V30 74 1 30 69
M  V30 75 1 33 70
M  V30 76 1 33 71
M  V30 77 1 34 72
M  V30 78 1 34 73
M  V30 79 1 35 74
M  V30 80 1 36 75
M  V30 81 1 37 76
M  V30 82 1 40 77
M  V30 83 1 40 78
M  V30 84 1 41 79
M  V30 85 1 41 80
M  V30 86 1 42 81
M  V30 87 1 42 82
M  V30 88 1 43 83
M  V30 89 1 43 84
M  V30 END BOND
M  V30 END CTAB
M  END
>  <Dataset>  (926) 
ChEMBL_Kinases

>  <Ligand_Instance>  (926) 
nan

>  <PDB_ID>  (926) 
nan

>  <Standardized_SMILES>  (926) 
CCN1CCN(C(=O)[C@H]2CC[C@H](Nc3nccc(-n4ccc5c(N6CCN(C(=O)CC#N)CC6)cccc54)n3)CC2)CC1

>  <Name>  (926) 
nan

>  <Pocket>  (926) 
nan

>  <ATP_Site>  (926) 
nan

>  <Peripheral>  (926) 
nan

>  <Num_H_Atoms_ProtBoundConf>  (926) 
nan

>  <Num_Resolved_Atoms>  (926) 
nan

>  <Num_Not_Resolved_Atoms>  (926) 
nan

$$$$
CHEMBL3674727
     RDKit          3D

  0  0  0  0  0  0  0  0  0  0999 V3000
M  V30 BEGIN CTAB
M  V30 COUNTS 63 67 0 0 0
M  V30 BEGIN ATOM
M  V30 1 N 5.389120 2.435680 7.186979 0
M  V30 2 C 5.044138 2.363662 6.067603 0
M  V30 3 C 4.615409 2.248059 4.652485 0
M  V30 4 C 3.485768 3.180912 4.429268 0
M  V30 5 O 3.002159 3.936937 5.339198 0
M  V30 6 N 2.908480 3.232752 3.117606 0
M  V30 7 C 3.421816 2.387324 2.027201 0
M  V30 8 C 2.593584 2.706845 0.817088 0
M  V30 9 N 1.206840 2.392585 1.202138 0
M  V30 10 C 0.567821 1.245679 0.670966 0
M  V30 11 C 1.360495 0.299972 0.040775 0
M  V30 12 C 0.829559 -0.860962 -0.480685 0
M  V30 13 C -0.528771 -1.124098 -0.391272 0
M  V30 14 C -1.334482 -0.208843 0.224600 0
M  V30 15 C -0.776062 0.942809 0.736384 0
M  V30 16 C -1.800285 1.648913 1.270463 0
M  V30 17 C -2.962709 0.945523 1.091386 0
M  V30 18 N -2.660466 -0.195522 0.446526 0
M  V30 19 C -3.620331 -1.191199 0.082945 0
M  V30 20 C -4.948613 -1.023538 0.416550 0
M  V30 21 C -5.844527 -2.003641 0.051530 0
M  V30 22 N -5.476585 -3.107621 -0.611649 0
M  V30 23 C -4.162149 -3.275159 -0.942739 0
M  V30 24 N -3.743544 -4.445446 -1.650214 0
M  V30 25 C -2.394270 -4.752464 -2.064477 0 CFG=1
M  V30 26 C -1.903350 -3.667535 -2.989914 0
M  V30 27 C -0.436824 -3.716454 -3.258963 0
M  V30 28 C 0.228214 -4.885919 -2.603182 0 CFG=2
M  V30 29 O -0.159928 -6.120157 -3.104500 0
M  V30 30 C -0.071757 -4.846807 -1.131547 0
M  V30 31 C -1.548447 -4.870601 -0.819443 0
M  V30 32 N -3.315114 -2.318246 -0.581303 0
M  V30 33 C 0.667567 3.348651 2.149407 0
M  V30 34 C 1.784995 4.141772 2.849093 0
M  V30 35 H 5.477236 2.581762 4.025166 0
M  V30 36 H 4.347463 1.194001 4.466144 0
M  V30 37 H 3.365237 1.356583 2.381424 0
M  V30 38 H 4.489841 2.655839 1.891379 0
M  V30 39 H 2.682122 3.827910 0.687193 0
M  V30 40 H 2.907536 2.264161 -0.118089 0
M  V30 41 H 2.415355 0.331652 -0.115338 0
M  V30 42 H 1.385661 -1.640972 -0.984122 0
M  V30 43 H -0.974829 -2.011295 -0.782423 0
M  V30 44 H -1.780644 2.603063 1.759325 0
M  V30 45 H -3.963029 1.258085 1.416613 0
M  V30 46 H -5.326128 -0.178219 0.941850 0
M  V30 47 H -6.893604 -1.882463 0.308750 0
M  V30 48 H -4.512945 -5.143747 -1.884062 0
M  V30 49 H -2.399897 -5.718537 -2.601699 0
M  V30 50 H -2.418444 -3.850534 -3.979606 0
M  V30 51 H -2.253971 -2.648301 -2.706781 0
M  V30 52 H -0.208056 -3.638397 -4.342818 0
M  V30 53 H 0.029588 -2.802717 -2.805098 0
M  V30 54 H 1.325566 -4.744595 -2.708555 0
M  V30 55 H 0.214446 -6.331259 -4.000638 0
M  V30 56 H 0.450175 -5.732971 -0.689007 0
M  V30 57 H 0.400737 -3.965732 -0.651059 0
M  V30 58 H -1.773915 -5.865869 -0.369122 0
M  V30 59 H -1.857898 -4.129187 -0.086604 0
M  V30 60 H 0.172193 2.836397 3.009339 0
M  V30 61 H 0.067732 4.087349 1.627065 0
M  V30 62 H 1.420782 4.522585 3.825092 0
M  V30 63 H 2.138477 4.988973 2.265671 0
M  V30 END ATOM
M  V30 BEGIN BOND
M  V30 1 3 1 2
M  V30 2 1 2 3
M  V30 3 1 3 4
M  V30 4 2 4 5
M  V30 5 1 4 6
M  V30 6 1 6 7
M  V30 7 1 7 8
M  V30 8 1 8 9
M  V30 9 1 9 10
M  V30 10 2 10 11
M  V30 11 1 11 12
M  V30 12 2 12 13
M  V30 13 1 13 14
M  V30 14 2 14 15
M  V30 15 1 15 16
M  V30 16 2 16 17
M  V30 17 1 17 18
M  V30 18 1 18 19
M  V30 19 2 19 20
M  V30 20 1 20 21
M  V30 21 2 21 22
M  V30 22 1 22 23
M  V30 23 1 23 24
M  V30 24 1 24 25
M  V30 25 1 25 26
M  V30 26 1 26 27
M  V30 27 1 27 28
M  V30 28 1 28 29
M  V30 29 1 28 30
M  V30 30 1 30 31
M  V30 31 2 23 32
M  V30 32 1 9 33
M  V30 33 1 33 34
M  V30 34 1 34 6
M  V30 35 1 15 10
M  V30 36 1 32 19
M  V30 37 1 18 14
M  V30 38 1 31 25
M  V30 39 1 3 35
M  V30 40 1 3 36
M  V30 41 1 7 37
M  V30 42 1 7 38
M  V30 43 1 8 39
M  V30 44 1 8 40
M  V30 45 1 11 41
M  V30 46 1 12 42
M  V30 47 1 13 43
M  V30 48 1 16 44
M  V30 49 1 17 45
M  V30 50 1 20 46
M  V30 51 1 21 47
M  V30 52 1 24 48
M  V30 53 1 25 49 CFG=3
M  V30 54 1 26 50
M  V30 55 1 26 51
M  V30 56 1 27 52
M  V30 57 1 27 53
M  V30 58 1 28 54 CFG=1
M  V30 59 1 29 55
M  V30 60 1 30 56
M  V30 61 1 30 57
M  V30 62 1 31 58
M  V30 63 1 31 59
M  V30 64 1 33 60
M  V30 65 1 33 61
M  V30 66 1 34 62
M  V30 67 1 34 63
M  V30 END BOND
M  V30 END CTAB
M  END
>  <Dataset>  (927) 
ChEMBL_Kinases

>  <Ligand_Instance>  (927) 
nan

>  <PDB_ID>  (927) 
nan

>  <Standardized_SMILES>  (927) 
N#CCC(=O)N1CCN(c2cccc3c2ccn3-c2ccnc(N[C@H]3CC[C@H](O)CC3)n2)CC1

>  <Name>  (927) 
nan

>  <Pocket>  (927) 
nan

>  <ATP_Site>  (927) 
nan

>  <Peripheral>  (927) 
nan

>  <Num_H_Atoms_ProtBoundConf>  (927) 
nan

>  <Num_Resolved_Atoms>  (927) 
nan

>  <Num_Not_Resolved_Atoms>  (927) 
nan

$$$$
CHEMBL3674726
     RDKit          3D

  0  0  0  0  0  0  0  0  0  0999 V3000
M  V30 BEGIN CTAB
M  V30 COUNTS 81 87 0 0 0
M  V30 BEGIN ATOM
M  V30 1 C 7.041209 -4.188528 -0.180271 0
M  V30 2 S 8.160492 -2.949146 -0.734427 0
M  V30 3 O 9.328551 -2.856344 0.199149 0
M  V30 4 O 8.696740 -3.396343 -2.066009 0
M  V30 5 C 7.391199 -1.370182 -0.958498 0
M  V30 6 C 6.401545 -1.401444 -2.102107 0
M  V30 7 C 5.534606 -0.146993 -1.955578 0
M  V30 8 N 4.625295 -0.446175 -0.854070 0
M  V30 9 C 3.226724 -0.222847 -0.744009 0
M  V30 10 C 2.434513 -1.350783 -0.548625 0
M  V30 11 C 1.062270 -1.220577 -0.432086 0
M  V30 12 C 0.540175 0.052914 -0.518158 0
M  V30 13 C 1.299472 1.202538 -0.712731 0
M  V30 14 C 2.657949 1.032439 -0.823594 0
M  V30 15 C 3.180867 2.270327 -1.005225 0
M  V30 16 C 2.141846 3.178483 -1.003564 0
M  V30 17 N 0.973858 2.520597 -0.822531 0
M  V30 18 C -0.394593 2.934437 -0.738249 0
M  V30 19 C -1.136561 3.658150 -1.650405 0
M  V30 20 C -2.452790 3.928710 -1.333803 0
M  V30 21 N -2.976898 3.493664 -0.171344 0
M  V30 22 C -2.273406 2.787651 0.731499 0
M  V30 23 N -2.848705 2.334662 1.952347 0
M  V30 24 C -4.218623 2.608515 2.276236 0 CFG=1
M  V30 25 C -5.209814 2.078376 1.286610 0
M  V30 26 C -5.714561 0.688197 1.651038 0
M  V30 27 C -4.486492 -0.087409 2.098193 0 CFG=2
M  V30 28 C -4.671566 -1.554575 2.043100 0
M  V30 29 O -4.663307 -2.117790 3.192675 0
M  V30 30 N -4.846012 -2.321708 0.858820 0
M  V30 31 C -4.879240 -2.011309 -0.553847 0
M  V30 32 C -3.623250 -2.588343 -1.197202 0
M  V30 33 N -3.407353 -3.898792 -0.635234 0
M  V30 34 C -2.462596 -4.727394 -1.130320 0
M  V30 35 C -2.474144 -5.902329 -0.410123 0
M  V30 36 N -3.446475 -5.757556 0.526004 0
M  V30 37 C -3.984540 -4.549699 0.364524 0
M  V30 38 C -5.055308 -3.748477 1.010249 0
M  V30 39 C -4.138341 0.427226 3.466880 0
M  V30 40 C -4.512552 1.898577 3.605073 0
M  V30 41 N -1.003545 2.541766 0.397331 0
M  V30 42 C 5.231233 -1.065954 0.306949 0
M  V30 43 C 6.727486 -0.835979 0.266357 0
M  V30 44 H 7.649033 -5.106074 0.013316 0
M  V30 45 H 6.533945 -3.970602 0.774424 0
M  V30 46 H 6.311238 -4.488088 -0.956981 0
M  V30 47 H 8.217400 -0.684655 -1.308570 0
M  V30 48 H 6.944039 -1.333945 -3.048106 0
M  V30 49 H 5.761322 -2.314422 -2.061817 0
M  V30 50 H 4.992331 0.086476 -2.890735 0
M  V30 51 H 6.192274 0.664782 -1.627444 0
M  V30 52 H 2.878493 -2.337594 -0.485818 0
M  V30 53 H 0.405054 -2.079252 -0.277784 0
M  V30 54 H -0.555003 0.115311 -0.421065 0
M  V30 55 H 4.227604 2.511013 -1.129915 0
M  V30 56 H 2.150408 4.253684 -1.118962 0
M  V30 57 H -0.575125 3.935786 -2.536154 0
M  V30 58 H -2.989024 4.497864 -2.081748 0
M  V30 59 H -2.203052 1.787987 2.597750 0
M  V30 60 H -4.342248 3.690367 2.497823 0
M  V30 61 H -4.791136 2.018494 0.259548 0
M  V30 62 H -6.076029 2.795036 1.223362 0
M  V30 63 H -6.379473 0.842684 2.542899 0
M  V30 64 H -6.253432 0.236892 0.824627 0
M  V30 65 H -3.693373 0.200088 1.348704 0
M  V30 66 H -5.741660 -2.490108 -1.066589 0
M  V30 67 H -4.949132 -0.918304 -0.756380 0
M  V30 68 H -3.752719 -2.660997 -2.308167 0
M  V30 69 H -2.738894 -1.918366 -1.065382 0
M  V30 70 H -1.737139 -4.662227 -1.932316 0
M  V30 71 H -1.908807 -6.812654 -0.456516 0
M  V30 72 H -6.040116 -3.997132 0.559896 0
M  V30 73 H -5.074313 -4.032675 2.078419 0
M  V30 74 H -3.054730 0.260835 3.710583 0
M  V30 75 H -4.712847 -0.170668 4.217131 0
M  V30 76 H -5.534219 2.054531 3.940345 0
M  V30 77 H -3.753130 2.315240 4.327607 0
M  V30 78 H 4.876041 -0.613836 1.255155 0
M  V30 79 H 5.020009 -2.156321 0.371808 0
M  V30 80 H 7.219865 -1.152314 1.207568 0
M  V30 81 H 6.861666 0.285676 0.259638 0
M  V30 END ATOM
M  V30 BEGIN BOND
M  V30 1 1 1 2
M  V30 2 2 2 3
M  V30 3 2 2 4
M  V30 4 1 2 5
M  V30 5 1 5 6
M  V30 6 1 6 7
M  V30 7 1 7 8
M  V30 8 1 8 9
M  V30 9 2 9 10
M  V30 10 1 10 11
M  V30 11 2 11 12
M  V30 12 1 12 13
M  V30 13 2 13 14
M  V30 14 1 14 15
M  V30 15 2 15 16
M  V30 16 1 16 17
M  V30 17 1 17 18
M  V30 18 2 18 19
M  V30 19 1 19 20
M  V30 20 2 20 21
M  V30 21 1 21 22
M  V30 22 1 22 23
M  V30 23 1 23 24
M  V30 24 1 24 25
M  V30 25 1 25 26
M  V30 26 1 26 27
M  V30 27 1 27 28
M  V30 28 2 28 29
M  V30 29 1 28 30
M  V30 30 1 30 31
M  V30 31 1 31 32
M  V30 32 1 32 33
M  V30 33 1 33 34
M  V30 34 2 34 35
M  V30 35 1 35 36
M  V30 36 2 36 37
M  V30 37 1 37 38
M  V30 38 1 27 39
M  V30 39 1 39 40
M  V30 40 2 22 41
M  V30 41 1 8 42
M  V30 42 1 42 43
M  V30 43 1 43 5
M  V30 44 1 14 9
M  V30 45 1 41 18
M  V30 46 1 17 13
M  V30 47 1 40 24
M  V30 48 1 38 30
M  V30 49 1 37 33
M  V30 50 1 1 44
M  V30 51 1 1 45
M  V30 52 1 1 46
M  V30 53 1 5 47
M  V30 54 1 6 48
M  V30 55 1 6 49
M  V30 56 1 7 50
M  V30 57 1 7 51
M  V30 58 1 10 52
M  V30 59 1 11 53
M  V30 60 1 12 54
M  V30 61 1 15 55
M  V30 62 1 16 56
M  V30 63 1 19 57
M  V30 64 1 20 58
M  V30 65 1 23 59
M  V30 66 1 24 60 CFG=1
M  V30 67 1 25 61
M  V30 68 1 25 62
M  V30 69 1 26 63
M  V30 70 1 26 64
M  V30 71 1 27 65 CFG=3
M  V30 72 1 31 66
M  V30 73 1 31 67
M  V30 74 1 32 68
M  V30 75 1 32 69
M  V30 76 1 34 70
M  V30 77 1 35 71
M  V30 78 1 38 72
M  V30 79 1 38 73
M  V30 80 1 39 74
M  V30 81 1 39 75
M  V30 82 1 40 76
M  V30 83 1 40 77
M  V30 84 1 42 78
M  V30 85 1 42 79
M  V30 86 1 43 80
M  V30 87 1 43 81
M  V30 END BOND
M  V30 END CTAB
M  END
>  <Dataset>  (928) 
ChEMBL_Kinases

>  <Ligand_Instance>  (928) 
nan

>  <PDB_ID>  (928) 
nan

>  <Standardized_SMILES>  (928) 
CS(=O)(=O)C1CCN(c2cccc3c2ccn3-c2ccnc(N[C@H]3CC[C@H](C(=O)N4CCn5ccnc5C4)CC3)n2)CC1

>  <Name>  (928) 
nan

>  <Pocket>  (928) 
nan

>  <ATP_Site>  (928) 
nan

>  <Peripheral>  (928) 
nan

>  <Num_H_Atoms_ProtBoundConf>  (928) 
nan

>  <Num_Resolved_Atoms>  (928) 
nan

>  <Num_Not_Resolved_Atoms>  (928) 
nan

$$$$
CHEMBL3674725
     RDKit          3D

  0  0  0  0  0  0  0  0  0  0999 V3000
M  V30 BEGIN CTAB
M  V30 COUNTS 86 92 0 0 0
M  V30 BEGIN ATOM
M  V30 1 C -2.629033 -8.573530 -0.884943 0
M  V30 2 S -1.478314 -7.822766 -2.029804 0
M  V30 3 O -0.096888 -8.219248 -1.548187 0
M  V30 4 O -1.729244 -8.240728 -3.435030 0
M  V30 5 C -1.599468 -6.052921 -1.800893 0
M  V30 6 C -0.680834 -5.367100 -2.757763 0
M  V30 7 C -0.760521 -3.864591 -2.560506 0
M  V30 8 N -2.089317 -3.490361 -2.389741 0
M  V30 9 C -2.652176 -2.373589 -1.759770 0
M  V30 10 C -3.476129 -1.431678 -2.392561 0
M  V30 11 C -4.015978 -0.336194 -1.729572 0
M  V30 12 C -3.730617 -0.156364 -0.370756 0
M  V30 13 C -2.915092 -1.106708 0.214433 0
M  V30 14 C -2.377086 -2.186348 -0.418661 0
M  V30 15 C -1.628230 -2.866893 0.550988 0
M  V30 16 C -1.744472 -2.161301 1.750721 0
M  V30 17 N -2.545879 -1.082142 1.503235 0
M  V30 18 C -2.766962 -0.256045 2.627063 0
M  V30 19 C -3.783110 -0.635879 3.480140 0
M  V30 20 C -4.016267 0.153957 4.586068 0
M  V30 21 N -3.294355 1.259016 4.846359 0
M  V30 22 C -2.305583 1.623801 4.011209 0
M  V30 23 N -1.511994 2.779521 4.242516 0
M  V30 24 C -0.438443 3.227803 3.381704 0 CFG=1
M  V30 25 C -0.866173 3.560861 1.987074 0
M  V30 26 C 0.328437 3.777978 1.127808 0
M  V30 27 C 1.539921 4.333336 1.773455 0 CFG=2
M  V30 28 C 2.742990 3.437632 1.570545 0
M  V30 29 O 3.239409 2.963693 2.649697 0
M  V30 30 N 3.276736 3.148794 0.282688 0
M  V30 31 C 2.872321 3.579897 -1.032014 0
M  V30 32 C 3.422302 2.592048 -2.038523 0
M  V30 33 N 3.285400 1.223223 -1.581583 0
M  V30 34 C 3.707888 0.362675 -2.667957 0
M  V30 35 C 4.830679 -0.497342 -2.171357 0
M  V30 36 C 5.384818 0.330851 -1.016310 0
M  V30 37 C 4.142502 0.963159 -0.462279 0
M  V30 38 C 4.431218 2.272792 0.242430 0
M  V30 39 C 1.438097 4.817134 3.167299 0
M  V30 40 C 0.231044 4.434029 3.945704 0
M  V30 41 N -2.082941 0.864375 2.949601 0
M  V30 42 C -3.023441 -4.460901 -2.988375 0
M  V30 43 C -3.011082 -5.657737 -2.093083 0
M  V30 44 H -2.155064 -8.817722 0.089969 0
M  V30 45 H -3.475225 -7.887342 -0.658439 0
M  V30 46 H -3.097420 -9.477712 -1.357022 0
M  V30 47 H -1.318094 -5.909629 -0.729781 0
M  V30 48 H -0.971219 -5.681713 -3.776265 0
M  V30 49 H 0.341902 -5.761056 -2.565121 0
M  V30 50 H -0.433265 -3.446174 -3.561892 0
M  V30 51 H 0.024759 -3.584929 -1.884671 0
M  V30 52 H -3.637553 -1.661882 -3.449592 0
M  V30 53 H -4.642757 0.341385 -2.296519 0
M  V30 54 H -4.150935 0.695498 0.142165 0
M  V30 55 H -1.078735 -3.775834 0.339432 0
M  V30 56 H -1.219341 -2.551862 2.623510 0
M  V30 57 H -4.404298 -1.514556 3.331306 0
M  V30 58 H -4.799846 -0.083830 5.302427 0
M  V30 59 H -1.729501 3.349888 5.113593 0
M  V30 60 H 0.272481 2.360913 3.294314 0
M  V30 61 H -1.520501 4.477884 2.016324 0
M  V30 62 H -1.533521 2.757436 1.624393 0
M  V30 63 H -0.014313 4.361848 0.219619 0
M  V30 64 H 0.595699 2.770656 0.701178 0
M  V30 65 H 1.822507 5.244415 1.150049 0
M  V30 66 H 1.786778 3.622465 -1.185145 0
M  V30 67 H 3.363708 4.569615 -1.215345 0
M  V30 68 H 2.932102 2.710896 -3.029976 0
M  V30 69 H 4.514929 2.799139 -2.228906 0
M  V30 70 H 4.076762 0.940252 -3.541377 0
M  V30 71 H 2.874896 -0.262305 -3.063548 0
M  V30 72 H 4.508721 -1.504148 -1.835216 0
M  V30 73 H 5.603486 -0.647533 -2.973360 0
M  V30 74 H 6.113925 1.047162 -1.411608 0
M  V30 75 H 5.875216 -0.366807 -0.299452 0
M  V30 76 H 3.720814 0.253349 0.278732 0
M  V30 77 H 4.859165 2.108543 1.250402 0
M  V30 78 H 5.225274 2.841855 -0.323902 0
M  V30 79 H 2.318248 4.363797 3.727171 0
M  V30 80 H 1.664668 5.925940 3.252367 0
M  V30 81 H -0.497938 5.291911 3.846698 0
M  V30 82 H 0.394987 4.314967 5.019047 0
M  V30 83 H -4.062906 -4.074166 -3.024745 0
M  V30 84 H -2.765426 -4.689089 -4.039319 0
M  V30 85 H -3.644108 -6.488713 -2.464269 0
M  V30 86 H -3.475712 -5.357017 -1.120918 0
M  V30 END ATOM
M  V30 BEGIN BOND
M  V30 1 1 1 2
M  V30 2 2 2 3
M  V30 3 2 2 4
M  V30 4 1 2 5
M  V30 5 1 5 6
M  V30 6 1 6 7
M  V30 7 1 7 8
M  V30 8 1 8 9
M  V30 9 2 9 10
M  V30 10 1 10 11
M  V30 11 2 11 12
M  V30 12 1 12 13
M  V30 13 2 13 14
M  V30 14 1 14 15
M  V30 15 2 15 16
M  V30 16 1 16 17
M  V30 17 1 17 18
M  V30 18 2 18 19
M  V30 19 1 19 20
M  V30 20 2 20 21
M  V30 21 1 21 22
M  V30 22 1 22 23
M  V30 23 1 23 24
M  V30 24 1 24 25
M  V30 25 1 25 26
M  V30 26 1 26 27
M  V30 27 1 27 28
M  V30 28 2 28 29
M  V30 29 1 28 30
M  V30 30 1 30 31
M  V30 31 1 31 32
M  V30 32 1 32 33
M  V30 33 1 33 34
M  V30 34 1 34 35
M  V30 35 1 35 36
M  V30 36 1 36 37
M  V30 37 1 37 38
M  V30 38 1 27 39
M  V30 39 1 39 40
M  V30 40 2 22 41
M  V30 41 1 8 42
M  V30 42 1 42 43
M  V30 43 1 43 5
M  V30 44 1 14 9
M  V30 45 1 41 18
M  V30 46 1 17 13
M  V30 47 1 40 24
M  V30 48 1 38 30
M  V30 49 1 37 33
M  V30 50 1 1 44
M  V30 51 1 1 45
M  V30 52 1 1 46
M  V30 53 1 5 47
M  V30 54 1 6 48
M  V30 55 1 6 49
M  V30 56 1 7 50
M  V30 57 1 7 51
M  V30 58 1 10 52
M  V30 59 1 11 53
M  V30 60 1 12 54
M  V30 61 1 15 55
M  V30 62 1 16 56
M  V30 63 1 19 57
M  V30 64 1 20 58
M  V30 65 1 23 59
M  V30 66 1 24 60 CFG=3
M  V30 67 1 25 61
M  V30 68 1 25 62
M  V30 69 1 26 63
M  V30 70 1 26 64
M  V30 71 1 27 65 CFG=3
M  V30 72 1 31 66
M  V30 73 1 31 67
M  V30 74 1 32 68
M  V30 75 1 32 69
M  V30 76 1 34 70
M  V30 77 1 34 71
M  V30 78 1 35 72
M  V30 79 1 35 73
M  V30 80 1 36 74
M  V30 81 1 36 75
M  V30 82 1 37 76
M  V30 83 1 38 77
M  V30 84 1 38 78
M  V30 85 1 39 79
M  V30 86 1 39 80
M  V30 87 1 40 81
M  V30 88 1 40 82
M  V30 89 1 42 83
M  V30 90 1 42 84
M  V30 91 1 43 85
M  V30 92 1 43 86
M  V30 END BOND
M  V30 END CTAB
M  END
>  <Dataset>  (929) 
ChEMBL_Kinases

>  <Ligand_Instance>  (929) 
nan

>  <PDB_ID>  (929) 
nan

>  <Standardized_SMILES>  (929) 
CS(=O)(=O)C1CCN(c2cccc3c2ccn3-c2ccnc(N[C@H]3CC[C@H](C(=O)N4CCN5CCCC5C4)CC3)n2)CC1

>  <Name>  (929) 
nan

>  <Pocket>  (929) 
nan

>  <ATP_Site>  (929) 
nan

>  <Peripheral>  (929) 
nan

>  <Num_H_Atoms_ProtBoundConf>  (929) 
nan

>  <Num_Resolved_Atoms>  (929) 
nan

>  <Num_Not_Resolved_Atoms>  (929) 
nan

$$$$
CHEMBL3674724
     RDKit          3D

  0  0  0  0  0  0  0  0  0  0999 V3000
M  V30 BEGIN CTAB
M  V30 COUNTS 83 89 0 0 0
M  V30 BEGIN ATOM
M  V30 1 C 3.104834 -2.001067 6.712878 0
M  V30 2 S 2.141077 -0.734721 7.525059 0
M  V30 3 O 0.885304 -1.315318 8.074069 0
M  V30 4 O 2.961215 -0.196693 8.676772 0
M  V30 5 C 1.785821 0.558277 6.361254 0
M  V30 6 C 3.048007 1.175949 5.858624 0
M  V30 7 C 2.852362 2.549901 5.235573 0
M  V30 8 N 1.413066 2.727292 4.984831 0
M  V30 9 C 0.938984 2.798797 3.645237 0
M  V30 10 C 1.790246 3.338064 2.701436 0
M  V30 11 C 1.397783 3.482867 1.388146 0
M  V30 12 C 0.136204 3.094366 0.958953 0
M  V30 13 C -0.723325 2.554248 1.890710 0
M  V30 14 C -0.303807 2.423481 3.189524 0
M  V30 15 C -1.342608 1.859682 3.860095 0
M  V30 16 C -2.399894 1.639250 3.003502 0
M  V30 17 N -2.000509 2.073321 1.795941 0
M  V30 18 C -2.695383 2.090545 0.528079 0
M  V30 19 C -3.980404 2.544408 0.292713 0
M  V30 20 C -4.435138 2.472762 -1.006223 0
M  V30 21 N -3.698260 1.992683 -2.020936 0
M  V30 22 C -2.450318 1.554090 -1.779985 0
M  V30 23 N -1.642049 1.051059 -2.824036 0
M  V30 24 C -2.030623 0.968936 -4.191839 0 CFG=1
M  V30 25 C -0.938827 0.405524 -5.092243 0
M  V30 26 C -1.318973 -0.964003 -5.614136 0
M  V30 27 C -1.702874 -1.770331 -4.399127 0 CFG=2
M  V30 28 C -1.623530 -3.222560 -4.571786 0
M  V30 29 O -2.442370 -4.193170 -4.561919 0
M  V30 30 N -0.324647 -3.801514 -4.821972 0
M  V30 31 C -0.301155 -5.231136 -5.002323 0
M  V30 32 C 0.516461 -5.977099 -4.001090 0
M  V30 33 N 1.684289 -5.269821 -3.574111 0
M  V30 34 C 1.915587 -4.035266 -3.998601 0
M  V30 35 N 3.084773 -3.691268 -3.400622 0
M  V30 36 N 3.548316 -4.668920 -2.645688 0
M  V30 37 C 2.650573 -5.680956 -2.756970 0
M  V30 38 C 2.801839 -6.988542 -2.050335 0
M  V30 39 F 3.621514 -7.781480 -2.809395 0
M  V30 40 F 3.277685 -6.800746 -0.772365 0
M  V30 41 F 1.563409 -7.604086 -1.975139 0
M  V30 42 C 1.017171 -3.274719 -4.934258 0
M  V30 43 C -3.028557 -1.253856 -3.933239 0
M  V30 44 C -3.275039 0.176085 -4.408861 0
M  V30 45 N -1.981840 1.612993 -0.519746 0
M  V30 46 C 0.735959 2.826127 6.267446 0
M  V30 47 C 0.882938 1.555695 7.065656 0
M  V30 48 H 2.694364 -2.152808 5.680985 0
M  V30 49 H 3.029785 -2.965552 7.232781 0
M  V30 50 H 4.168650 -1.724307 6.648446 0
M  V30 51 H 1.219645 0.117389 5.519831 0
M  V30 52 H 3.832157 1.167043 6.647334 0
M  V30 53 H 3.448777 0.516323 5.044826 0
M  V30 54 H 3.462503 2.645127 4.322351 0
M  V30 55 H 3.160530 3.344988 5.919338 0
M  V30 56 H 2.790596 3.705594 2.810309 0
M  V30 57 H 2.002481 3.899711 0.571846 0
M  V30 58 H -0.178783 3.208988 -0.087248 0
M  V30 59 H -1.418110 1.585546 4.888708 0
M  V30 60 H -3.358550 1.216446 3.198747 0
M  V30 61 H -4.502024 2.912859 1.165847 0
M  V30 62 H -5.444211 2.835808 -1.149652 0
M  V30 63 H -0.675263 0.704249 -2.600936 0
M  V30 64 H -2.196130 2.036708 -4.531245 0
M  V30 65 H -0.618860 1.112432 -5.856415 0
M  V30 66 H -0.054708 0.220815 -4.424398 0
M  V30 67 H -2.144434 -0.907682 -6.356009 0
M  V30 68 H -0.459587 -1.376864 -6.163542 0
M  V30 69 H -0.950886 -1.472694 -3.604132 0
M  V30 70 H 0.151612 -5.412875 -6.015190 0
M  V30 71 H -1.327377 -5.696801 -4.983638 0
M  V30 72 H 0.848480 -6.942061 -4.486090 0
M  V30 73 H -0.116337 -6.304407 -3.137067 0
M  V30 74 H 1.108653 -2.215921 -4.602769 0
M  V30 75 H 1.370156 -3.433387 -5.952392 0
M  V30 76 H -3.088690 -1.204838 -2.819641 0
M  V30 77 H -3.862158 -1.869363 -4.304528 0
M  V30 78 H -4.143914 0.528151 -3.821299 0
M  V30 79 H -3.615891 0.196201 -5.464179 0
M  V30 80 H -0.292912 3.169751 6.151588 0
M  V30 81 H 1.278552 3.653938 6.829235 0
M  V30 82 H -0.094402 1.052766 7.218095 0
M  V30 83 H 1.337455 1.760927 8.069953 0
M  V30 END ATOM
M  V30 BEGIN BOND
M  V30 1 1 1 2
M  V30 2 2 2 3
M  V30 3 2 2 4
M  V30 4 1 2 5
M  V30 5 1 5 6
M  V30 6 1 6 7
M  V30 7 1 7 8
M  V30 8 1 8 9
M  V30 9 2 9 10
M  V30 10 1 10 11
M  V30 11 2 11 12
M  V30 12 1 12 13
M  V30 13 2 13 14
M  V30 14 1 14 15
M  V30 15 2 15 16
M  V30 16 1 16 17
M  V30 17 1 17 18
M  V30 18 2 18 19
M  V30 19 1 19 20
M  V30 20 2 20 21
M  V30 21 1 21 22
M  V30 22 1 22 23
M  V30 23 1 23 24
M  V30 24 1 24 25
M  V30 25 1 25 26
M  V30 26 1 26 27
M  V30 27 1 27 28
M  V30 28 2 28 29
M  V30 29 1 28 30
M  V30 30 1 30 31
M  V30 31 1 31 32
M  V30 32 1 32 33
M  V30 33 1 33 34
M  V30 34 2 34 35
M  V30 35 1 35 36
M  V30 36 2 36 37
M  V30 37 1 37 38
M  V30 38 1 38 39
M  V30 39 1 38 40
M  V30 40 1 38 41
M  V30 41 1 34 42
M  V30 42 1 27 43
M  V30 43 1 43 44
M  V30 44 2 22 45
M  V30 45 1 8 46
M  V30 46 1 46 47
M  V30 47 1 47 5
M  V30 48 1 14 9
M  V30 49 1 45 18
M  V30 50 1 17 13
M  V30 51 1 44 24
M  V30 52 1 42 30
M  V30 53 1 37 33
M  V30 54 1 1 48
M  V30 55 1 1 49
M  V30 56 1 1 50
M  V30 57 1 5 51
M  V30 58 1 6 52
M  V30 59 1 6 53
M  V30 60 1 7 54
M  V30 61 1 7 55
M  V30 62 1 10 56
M  V30 63 1 11 57
M  V30 64 1 12 58
M  V30 65 1 15 59
M  V30 66 1 16 60
M  V30 67 1 19 61
M  V30 68 1 20 62
M  V30 69 1 23 63
M  V30 70 1 24 64 CFG=3
M  V30 71 1 25 65
M  V30 72 1 25 66
M  V30 73 1 26 67
M  V30 74 1 26 68
M  V30 75 1 27 69 CFG=1
M  V30 76 1 31 70
M  V30 77 1 31 71
M  V30 78 1 32 72
M  V30 79 1 32 73
M  V30 80 1 42 74
M  V30 81 1 42 75
M  V30 82 1 43 76
M  V30 83 1 43 77
M  V30 84 1 44 78
M  V30 85 1 44 79
M  V30 86 1 46 80
M  V30 87 1 46 81
M  V30 88 1 47 82
M  V30 89 1 47 83
M  V30 END BOND
M  V30 END CTAB
M  END
>  <Dataset>  (930) 
ChEMBL_Kinases

>  <Ligand_Instance>  (930) 
nan

>  <PDB_ID>  (930) 
nan

>  <Standardized_SMILES>  (930) 
CS(=O)(=O)C1CCN(c2cccc3c2ccn3-c2ccnc(N[C@H]3CC[C@H](C(=O)N4CCn5c(nnc5C(F)(F)F)C4)CC3)n2)CC1

>  <Name>  (930) 
nan

>  <Pocket>  (930) 
nan

>  <ATP_Site>  (930) 
nan

>  <Peripheral>  (930) 
nan

>  <Num_H_Atoms_ProtBoundConf>  (930) 
nan

>  <Num_Resolved_Atoms>  (930) 
nan

>  <Num_Not_Resolved_Atoms>  (930) 
nan

$$$$
CHEMBL3674723
     RDKit          3D

  0  0  0  0  0  0  0  0  0  0999 V3000
M  V30 BEGIN CTAB
M  V30 COUNTS 89 95 0 0 0
M  V30 BEGIN ATOM
M  V30 1 C -1.435313 -5.814929 -3.172402 0
M  V30 2 S -0.597422 -4.683837 -4.272236 0
M  V30 3 O -1.226476 -4.742371 -5.613801 0
M  V30 4 O 0.813666 -5.138081 -4.391636 0
M  V30 5 C -0.713866 -3.021648 -3.659566 0
M  V30 6 C 0.024603 -2.129913 -4.642661 0
M  V30 7 C 0.039624 -0.668476 -4.174339 0
M  V30 8 N -1.234125 -0.373483 -3.483848 0
M  V30 9 C -1.178543 0.591794 -2.442603 0
M  V30 10 C -0.123586 1.475566 -2.413277 0
M  V30 11 C -0.035568 2.458732 -1.453723 0
M  V30 12 C -0.981693 2.623244 -0.471492 0
M  V30 13 C -2.029235 1.741879 -0.502485 0
M  V30 14 C -2.127042 0.755337 -1.458011 0
M  V30 15 C -3.282593 0.063086 -1.177467 0
M  V30 16 C -3.870072 0.633282 -0.063718 0
M  V30 17 N -3.075538 1.671153 0.336709 0
M  V30 18 C -3.500050 2.402659 1.478871 0
M  V30 19 C -4.376424 3.464675 1.544838 0
M  V30 20 C -4.639491 3.988642 2.793904 0
M  V30 21 N -4.072275 3.494066 3.904872 0
M  V30 22 C -3.208767 2.450765 3.851707 0
M  V30 23 N -2.628632 1.934330 5.044103 0
M  V30 24 C -1.668095 0.828732 5.109722 0 CFG=1
M  V30 25 C -2.261827 -0.394489 4.498277 0
M  V30 26 C -1.213443 -1.430304 4.128677 0
M  V30 27 C -0.205641 -0.739415 3.243471 0 CFG=2
M  V30 28 C 0.623014 -1.667758 2.480964 0
M  V30 29 O 0.542378 -2.921252 2.500359 0
M  V30 30 N 1.670602 -1.367170 1.576086 0
M  V30 31 C 2.335083 -2.513255 0.945812 0
M  V30 32 C 2.125007 -2.325792 -0.530486 0
M  V30 33 N 2.682724 -1.126211 -1.005221 0
M  V30 34 C 3.508945 -1.168736 -2.154458 0
M  V30 35 C 4.973345 -1.051391 -1.878607 0
M  V30 36 C 5.261308 -0.685180 -0.434693 0
M  V30 37 C 4.308899 0.392940 -0.019257 0
M  V30 38 C 2.839328 -0.026798 -0.145027 0
M  V30 39 C 2.188803 -0.101306 1.180655 0
M  V30 40 C 0.558218 0.194126 4.152595 0
M  V30 41 C -0.399144 1.311498 4.499007 0
M  V30 42 N -2.983378 1.977999 2.639653 0
M  V30 43 C -2.305303 -1.147793 -4.057316 0
M  V30 44 C -2.184115 -2.602700 -3.638378 0
M  V30 45 H -1.173573 -6.857659 -3.430088 0
M  V30 46 H -2.546043 -5.719680 -3.287291 0
M  V30 47 H -1.114332 -5.649146 -2.113096 0
M  V30 48 H -0.242377 -2.977545 -2.670469 0
M  V30 49 H 1.074591 -2.504175 -4.656322 0
M  V30 50 H -0.455571 -2.255314 -5.623776 0
M  V30 51 H 0.029291 -0.054096 -5.094074 0
M  V30 52 H 0.889857 -0.485086 -3.504413 0
M  V30 53 H 0.710857 1.480519 -3.122187 0
M  V30 54 H 0.804641 3.168410 -1.427191 0
M  V30 55 H -0.929360 3.387985 0.286749 0
M  V30 56 H -3.679157 -0.779239 -1.704830 0
M  V30 57 H -4.813915 0.255235 0.360986 0
M  V30 58 H -4.773401 3.780307 0.587007 0
M  V30 59 H -5.325690 4.815905 2.824069 0
M  V30 60 H -2.918117 2.390045 5.949514 0
M  V30 61 H -1.466100 0.607493 6.194536 0
M  V30 62 H -2.762066 -0.137410 3.563736 0
M  V30 63 H -2.942941 -0.879210 5.237127 0
M  V30 64 H -0.744537 -1.834042 5.061730 0
M  V30 65 H -1.722153 -2.287439 3.642994 0
M  V30 66 H -0.813633 -0.129691 2.515591 0
M  V30 67 H 1.864017 -3.479465 1.209157 0
M  V30 68 H 3.393387 -2.592130 1.234501 0
M  V30 69 H 1.025310 -2.343332 -0.701933 0
M  V30 70 H 2.615508 -3.193701 -1.046926 0
M  V30 71 H 3.338073 -2.149717 -2.668004 0
M  V30 72 H 3.198268 -0.404476 -2.924598 0
M  V30 73 H 5.520420 -1.983943 -2.111675 0
M  V30 74 H 5.394012 -0.284014 -2.562227 0
M  V30 75 H 6.271502 -0.226695 -0.422441 0
M  V30 76 H 5.311984 -1.549450 0.241032 0
M  V30 77 H 4.502278 0.599613 1.071401 0
M  V30 78 H 4.550786 1.299731 -0.569384 0
M  V30 79 H 2.362328 0.851720 -0.679692 0
M  V30 80 H 2.972560 0.158928 1.953644 0
M  V30 81 H 1.390903 0.684162 1.333043 0
M  V30 82 H 0.746330 -0.375569 5.103485 0
M  V30 83 H 1.456437 0.624116 3.724163 0
M  V30 84 H -0.575764 1.946825 3.617259 0
M  V30 85 H 0.119265 1.920757 5.296626 0
M  V30 86 H -3.302842 -0.727385 -3.966851 0
M  V30 87 H -2.120920 -1.177413 -5.179782 0
M  V30 88 H -2.554143 -2.802229 -2.629276 0
M  V30 89 H -2.723274 -3.274078 -4.334856 0
M  V30 END ATOM
M  V30 BEGIN BOND
M  V30 1 1 1 2
M  V30 2 2 2 3
M  V30 3 2 2 4
M  V30 4 1 2 5
M  V30 5 1 5 6
M  V30 6 1 6 7
M  V30 7 1 7 8
M  V30 8 1 8 9
M  V30 9 2 9 10
M  V30 10 1 10 11
M  V30 11 2 11 12
M  V30 12 1 12 13
M  V30 13 2 13 14
M  V30 14 1 14 15
M  V30 15 2 15 16
M  V30 16 1 16 17
M  V30 17 1 17 18
M  V30 18 2 18 19
M  V30 19 1 19 20
M  V30 20 2 20 21
M  V30 21 1 21 22
M  V30 22 1 22 23
M  V30 23 1 23 24
M  V30 24 1 24 25
M  V30 25 1 25 26
M  V30 26 1 26 27
M  V30 27 1 27 28
M  V30 28 2 28 29
M  V30 29 1 28 30
M  V30 30 1 30 31
M  V30 31 1 31 32
M  V30 32 1 32 33
M  V30 33 1 33 34
M  V30 34 1 34 35
M  V30 35 1 35 36
M  V30 36 1 36 37
M  V30 37 1 37 38
M  V30 38 1 38 39
M  V30 39 1 27 40
M  V30 40 1 40 41
M  V30 41 2 22 42
M  V30 42 1 8 43
M  V30 43 1 43 44
M  V30 44 1 44 5
M  V30 45 1 14 9
M  V30 46 1 42 18
M  V30 47 1 17 13
M  V30 48 1 41 24
M  V30 49 1 39 30
M  V30 50 1 38 33
M  V30 51 1 1 45
M  V30 52 1 1 46
M  V30 53 1 1 47
M  V30 54 1 5 48
M  V30 55 1 6 49
M  V30 56 1 6 50
M  V30 57 1 7 51
M  V30 58 1 7 52
M  V30 59 1 10 53
M  V30 60 1 11 54
M  V30 61 1 12 55
M  V30 62 1 15 56
M  V30 63 1 16 57
M  V30 64 1 19 58
M  V30 65 1 20 59
M  V30 66 1 23 60
M  V30 67 1 24 61 CFG=1
M  V30 68 1 25 62
M  V30 69 1 25 63
M  V30 70 1 26 64
M  V30 71 1 26 65
M  V30 72 1 27 66 CFG=3
M  V30 73 1 31 67
M  V30 74 1 31 68
M  V30 75 1 32 69
M  V30 76 1 32 70
M  V30 77 1 34 71
M  V30 78 1 34 72
M  V30 79 1 35 73
M  V30 80 1 35 74
M  V30 81 1 36 75
M  V30 82 1 36 76
M  V30 83 1 37 77
M  V30 84 1 37 78
M  V30 85 1 38 79
M  V30 86 1 39 80
M  V30 87 1 39 81
M  V30 88 1 40 82
M  V30 89 1 40 83
M  V30 90 1 41 84
M  V30 91 1 41 85
M  V30 92 1 43 86
M  V30 93 1 43 87
M  V30 94 1 44 88
M  V30 95 1 44 89
M  V30 END BOND
M  V30 END CTAB
M  END
>  <Dataset>  (931) 
ChEMBL_Kinases

>  <Ligand_Instance>  (931) 
nan

>  <PDB_ID>  (931) 
nan

>  <Standardized_SMILES>  (931) 
CS(=O)(=O)C1CCN(c2cccc3c2ccn3-c2ccnc(N[C@H]3CC[C@H](C(=O)N4CCN5CCCCC5C4)CC3)n2)CC1

>  <Name>  (931) 
nan

>  <Pocket>  (931) 
nan

>  <ATP_Site>  (931) 
nan

>  <Peripheral>  (931) 
nan

>  <Num_H_Atoms_ProtBoundConf>  (931) 
nan

>  <Num_Resolved_Atoms>  (931) 
nan

>  <Num_Not_Resolved_Atoms>  (931) 
nan

$$$$
CHEMBL3674722
     RDKit          3D

  0  0  0  0  0  0  0  0  0  0999 V3000
M  V30 BEGIN CTAB
M  V30 COUNTS 89 95 0 0 0
M  V30 BEGIN ATOM
M  V30 1 C -1.715619 -7.841267 -2.805864 0
M  V30 2 S -0.289001 -6.818138 -3.065154 0
M  V30 3 O 0.345499 -7.260004 -4.358871 0
M  V30 4 O 0.715909 -7.018133 -1.977658 0
M  V30 5 C -0.790909 -5.118406 -3.193841 0
M  V30 6 C 0.381666 -4.197519 -3.343236 0
M  V30 7 C -0.058599 -2.765509 -3.263126 0
M  V30 8 N -1.303192 -2.533506 -3.976228 0
M  V30 9 C -1.990780 -1.381014 -3.559101 0
M  V30 10 C -2.136985 -0.413541 -4.541157 0
M  V30 11 C -2.802143 0.775317 -4.219194 0
M  V30 12 C -3.318548 1.030108 -2.973316 0
M  V30 13 C -3.166753 0.060133 -2.005905 0
M  V30 14 C -2.511780 -1.113407 -2.318394 0
M  V30 15 C -2.494941 -1.901050 -1.204658 0
M  V30 16 C -3.145816 -1.190143 -0.219292 0
M  V30 17 N -3.551478 0.011264 -0.728282 0
M  V30 18 C -4.255412 0.970377 0.057058 0
M  V30 19 C -5.353158 1.717387 -0.317632 0
M  V30 20 C -5.886096 2.601995 0.615789 0
M  V30 21 N -5.349793 2.725694 1.843865 0
M  V30 22 C -4.279451 2.001128 2.218193 0
M  V30 23 N -3.701677 2.114733 3.513786 0
M  V30 24 C -2.543263 1.293275 3.833469 0 CFG=1
M  V30 25 C -1.434532 1.689053 2.890487 0
M  V30 26 C -0.511801 2.632474 3.633282 0
M  V30 27 C 0.323035 1.738254 4.535935 0 CFG=2
M  V30 28 C 1.037305 0.785346 3.612486 0
M  V30 29 O 0.870520 -0.459659 3.650565 0
M  V30 30 N 1.958768 1.197982 2.619661 0
M  V30 31 C 2.487209 0.069759 1.870482 0
M  V30 32 C 2.941445 0.572025 0.512050 0
M  V30 33 N 4.076477 1.468120 0.628025 0
M  V30 34 C 5.305407 0.738849 0.585493 0
M  V30 35 C 5.413167 -0.008488 -0.735877 0
M  V30 36 C 6.866202 0.463643 -0.808041 0
M  V30 37 C 6.517381 1.543592 0.174041 0
M  V30 38 C 3.932114 2.356254 1.752793 0
M  V30 39 C 2.484239 2.465140 2.197752 0
M  V30 40 C -0.646611 0.969437 5.404707 0
M  V30 41 C -2.068704 1.477048 5.232726 0
M  V30 42 N -3.789674 1.162893 1.305686 0
M  V30 43 C -1.546266 -3.562242 -4.964944 0
M  V30 44 C -1.731867 -4.920102 -4.335937 0
M  V30 45 H -1.522205 -8.899506 -3.084068 0
M  V30 46 H -2.528750 -7.432307 -3.457419 0
M  V30 47 H -2.082185 -7.744274 -1.769540 0
M  V30 48 H -1.290869 -4.854692 -2.243754 0
M  V30 49 H 1.099661 -4.467960 -2.542067 0
M  V30 50 H 0.884383 -4.448027 -4.305037 0
M  V30 51 H 0.721379 -2.180533 -3.833677 0
M  V30 52 H -0.044281 -2.356824 -2.249851 0
M  V30 53 H -1.758674 -0.532379 -5.554150 0
M  V30 54 H -2.914990 1.531888 -4.990860 0
M  V30 55 H -3.828345 1.955097 -2.743222 0
M  V30 56 H -2.073704 -2.869435 -1.093969 0
M  V30 57 H -3.319129 -1.521302 0.815091 0
M  V30 58 H -5.709894 1.544196 -1.324425 0
M  V30 59 H -6.743523 3.168831 0.286935 0
M  V30 60 H -4.146372 2.792861 4.179632 0
M  V30 61 H -2.783225 0.206909 3.625285 0
M  V30 62 H -1.775298 2.208511 1.977570 0
M  V30 63 H -0.877577 0.765120 2.563678 0
M  V30 64 H 0.117360 3.226590 2.939828 0
M  V30 65 H -1.101247 3.344063 4.240410 0
M  V30 66 H 1.051537 2.320572 5.130061 0
M  V30 67 H 1.732906 -0.715862 1.683004 0
M  V30 68 H 3.355348 -0.407749 2.360824 0
M  V30 69 H 2.121198 1.075733 -0.035873 0
M  V30 70 H 3.272657 -0.301005 -0.084468 0
M  V30 71 H 5.525864 0.103735 1.468988 0
M  V30 72 H 5.304628 -1.095012 -0.686935 0
M  V30 73 H 4.814319 0.494977 -1.541328 0
M  V30 74 H 7.160116 0.832164 -1.819162 0
M  V30 75 H 7.508395 -0.317634 -0.367861 0
M  V30 76 H 6.169737 2.463461 -0.354867 0
M  V30 77 H 7.246088 1.709745 0.992271 0
M  V30 78 H 4.305348 3.346122 1.437567 0
M  V30 79 H 4.547493 1.950948 2.567655 0
M  V30 80 H 2.512368 3.206951 3.050250 0
M  V30 81 H 1.909554 2.934702 1.377795 0
M  V30 82 H -0.659933 -0.096785 5.074031 0
M  V30 83 H -0.367052 0.977730 6.474421 0
M  V30 84 H -2.249271 2.462437 5.659317 0
M  V30 85 H -2.685251 0.764728 5.861731 0
M  V30 86 H -2.437709 -3.352647 -5.604461 0
M  V30 87 H -0.619718 -3.630865 -5.593667 0
M  V30 88 H -2.772750 -5.085321 -3.954156 0
M  V30 89 H -1.569301 -5.736459 -5.073612 0
M  V30 END ATOM
M  V30 BEGIN BOND
M  V30 1 1 1 2
M  V30 2 2 2 3
M  V30 3 2 2 4
M  V30 4 1 2 5
M  V30 5 1 5 6
M  V30 6 1 6 7
M  V30 7 1 7 8
M  V30 8 1 8 9
M  V30 9 2 9 10
M  V30 10 1 10 11
M  V30 11 2 11 12
M  V30 12 1 12 13
M  V30 13 2 13 14
M  V30 14 1 14 15
M  V30 15 2 15 16
M  V30 16 1 16 17
M  V30 17 1 17 18
M  V30 18 2 18 19
M  V30 19 1 19 20
M  V30 20 2 20 21
M  V30 21 1 21 22
M  V30 22 1 22 23
M  V30 23 1 23 24
M  V30 24 1 24 25
M  V30 25 1 25 26
M  V30 26 1 26 27
M  V30 27 1 27 28
M  V30 28 2 28 29
M  V30 29 1 28 30
M  V30 30 1 30 31
M  V30 31 1 31 32
M  V30 32 1 32 33
M  V30 33 1 33 34
M  V30 34 1 34 35
M  V30 35 1 35 36
M  V30 36 1 36 37
M  V30 37 1 33 38
M  V30 38 1 38 39
M  V30 39 1 27 40
M  V30 40 1 40 41
M  V30 41 2 22 42
M  V30 42 1 8 43
M  V30 43 1 43 44
M  V30 44 1 44 5
M  V30 45 1 14 9
M  V30 46 1 42 18
M  V30 47 1 17 13
M  V30 48 1 41 24
M  V30 49 1 39 30
M  V30 50 1 37 34
M  V30 51 1 1 45
M  V30 52 1 1 46
M  V30 53 1 1 47
M  V30 54 1 5 48
M  V30 55 1 6 49
M  V30 56 1 6 50
M  V30 57 1 7 51
M  V30 58 1 7 52
M  V30 59 1 10 53
M  V30 60 1 11 54
M  V30 61 1 12 55
M  V30 62 1 15 56
M  V30 63 1 16 57
M  V30 64 1 19 58
M  V30 65 1 20 59
M  V30 66 1 23 60
M  V30 67 1 24 61 CFG=1
M  V30 68 1 25 62
M  V30 69 1 25 63
M  V30 70 1 26 64
M  V30 71 1 26 65
M  V30 72 1 27 66 CFG=1
M  V30 73 1 31 67
M  V30 74 1 31 68
M  V30 75 1 32 69
M  V30 76 1 32 70
M  V30 77 1 34 71
M  V30 78 1 35 72
M  V30 79 1 35 73
M  V30 80 1 36 74
M  V30 81 1 36 75
M  V30 82 1 37 76
M  V30 83 1 37 77
M  V30 84 1 38 78
M  V30 85 1 38 79
M  V30 86 1 39 80
M  V30 87 1 39 81
M  V30 88 1 40 82
M  V30 89 1 40 83
M  V30 90 1 41 84
M  V30 91 1 41 85
M  V30 92 1 43 86
M  V30 93 1 43 87
M  V30 94 1 44 88
M  V30 95 1 44 89
M  V30 END BOND
M  V30 END CTAB
M  END
>  <Dataset>  (932) 
ChEMBL_Kinases

>  <Ligand_Instance>  (932) 
nan

>  <PDB_ID>  (932) 
nan

>  <Standardized_SMILES>  (932) 
CS(=O)(=O)C1CCN(c2cccc3c2ccn3-c2ccnc(N[C@H]3CC[C@H](C(=O)N4CCN(C5CCC5)CC4)CC3)n2)CC1

>  <Name>  (932) 
nan

>  <Pocket>  (932) 
nan

>  <ATP_Site>  (932) 
nan

>  <Peripheral>  (932) 
nan

>  <Num_H_Atoms_ProtBoundConf>  (932) 
nan

>  <Num_Resolved_Atoms>  (932) 
nan

>  <Num_Not_Resolved_Atoms>  (932) 
nan

$$$$
CHEMBL3674704
     RDKit          3D

  0  0  0  0  0  0  0  0  0  0999 V3000
M  V30 BEGIN CTAB
M  V30 COUNTS 84 89 0 0 0
M  V30 BEGIN ATOM
M  V30 1 C 2.282426 -4.787511 0.447858 0
M  V30 2 C 0.772983 -4.606497 0.457462 0
M  V30 3 O 0.489983 -3.621830 -0.507122 0
M  V30 4 C -0.907159 -3.457387 -0.494998 0 CFG=2
M  V30 5 C -1.533340 -3.751317 -1.816426 0
M  V30 6 C -2.119544 -2.428623 -2.233516 0
M  V30 7 N -2.261620 -1.643146 -1.047762 0
M  V30 8 C -3.245379 -0.634306 -0.900133 0
M  V30 9 O -3.758387 -0.768312 -2.021267 0
M  V30 10 C -3.546974 0.264569 0.214800 0 CFG=1
M  V30 11 C -4.710787 1.159052 -0.166671 0
M  V30 12 C -4.761095 2.259871 0.873117 0
M  V30 13 C -5.232855 1.635639 2.155508 0 CFG=2
M  V30 14 N -4.811015 2.367369 3.345356 0
M  V30 15 C -3.468869 2.649368 3.724024 0
M  V30 16 N -3.038585 3.325270 4.831647 0
M  V30 17 C -1.719275 3.502254 5.027525 0
M  V30 18 C -0.742972 3.039041 4.169012 0
M  V30 19 C -1.195204 2.362291 3.061718 0
M  V30 20 N -0.222372 1.867513 2.147317 0
M  V30 21 C 0.031196 2.678521 1.079980 0
M  V30 22 C 0.997510 2.017007 0.321622 0
M  V30 23 C 1.325642 0.820908 0.920674 0
M  V30 24 C 2.183434 -0.229657 0.655879 0
M  V30 25 N 2.970147 -0.102801 -0.548688 0
M  V30 26 C 2.508883 0.026428 -1.916739 0
M  V30 27 C 3.133147 -0.946300 -2.872358 0
M  V30 28 C 4.609003 -1.055019 -2.586331 0
M  V30 29 S 5.467425 -1.099093 -4.142372 0
M  V30 30 C 4.941309 -2.487001 -5.117999 0
M  V30 31 O 5.273352 0.142622 -4.924704 0
M  V30 32 O 6.932465 -1.353117 -3.820421 0
M  V30 33 C 5.025483 0.101944 -1.740769 0
M  V30 34 C 4.426961 -0.106323 -0.345652 0
M  V30 35 C 2.235665 -1.299471 1.526607 0
M  V30 36 C 1.438429 -1.320496 2.652147 0
M  V30 37 C 0.559827 -0.271711 2.947477 0
M  V30 38 C 0.543760 0.765428 2.055362 0
M  V30 39 N -2.521978 2.209007 2.906648 0
M  V30 40 C -5.039303 0.159676 2.249741 0
M  V30 41 C -3.884786 -0.406674 1.509690 0
M  V30 42 C -1.267103 -2.063559 -0.108230 0
M  V30 43 H 2.554754 -5.838452 0.186372 0
M  V30 44 H 2.788303 -4.126973 -0.271679 0
M  V30 45 H 2.677446 -4.601612 1.467694 0
M  V30 46 H 0.283130 -5.571191 0.251503 0
M  V30 47 H 0.416798 -4.302307 1.472857 0
M  V30 48 H -1.319438 -4.164982 0.275257 0
M  V30 49 H -2.308512 -4.525041 -1.716525 0
M  V30 50 H -0.728108 -4.114412 -2.506020 0
M  V30 51 H -3.093743 -2.534797 -2.732967 0
M  V30 52 H -1.399756 -1.958049 -2.962053 0
M  V30 53 H -2.671951 0.936746 0.417211 0
M  V30 54 H -4.466461 1.569194 -1.170171 0
M  V30 55 H -5.649381 0.600568 -0.240288 0
M  V30 56 H -3.772414 2.721754 0.907670 0
M  V30 57 H -5.465483 3.033274 0.476766 0
M  V30 58 H -6.356357 1.787849 2.131144 0
M  V30 59 H -5.484073 2.771832 4.064836 0
M  V30 60 H -1.506616 4.054620 5.943881 0
M  V30 61 H 0.279819 3.230386 4.412582 0
M  V30 62 H -0.353887 3.647809 0.759921 0
M  V30 63 H 1.438357 2.386650 -0.616506 0
M  V30 64 H 2.606461 1.076146 -2.249974 0
M  V30 65 H 1.398246 -0.171815 -1.956246 0
M  V30 66 H 2.638067 -1.943907 -2.848704 0
M  V30 67 H 3.017845 -0.509754 -3.884875 0
M  V30 68 H 4.796337 -1.975241 -1.993679 0
M  V30 69 H 4.640533 -3.339229 -4.475340 0
M  V30 70 H 4.077236 -2.229335 -5.771318 0
M  V30 71 H 5.758964 -2.831858 -5.792406 0
M  V30 72 H 4.643959 1.040674 -2.188556 0
M  V30 73 H 6.123280 0.160780 -1.582649 0
M  V30 74 H 4.765731 0.754101 0.260079 0
M  V30 75 H 4.781619 -1.047178 0.068210 0
M  V30 76 H 2.929603 -2.073354 1.245329 0
M  V30 77 H 1.512693 -2.184397 3.310306 0
M  V30 78 H -0.066324 -0.301091 3.843104 0
M  V30 79 H -5.953228 -0.405432 1.919294 0
M  V30 80 H -4.896832 -0.070952 3.344846 0
M  V30 81 H -2.998026 -0.449345 2.206676 0
M  V30 82 H -4.093600 -1.498101 1.310558 0
M  V30 83 H -1.698604 -1.991460 0.919162 0
M  V30 84 H -0.340550 -1.438913 -0.153985 0
M  V30 END ATOM
M  V30 BEGIN BOND
M  V30 1 1 1 2
M  V30 2 1 2 3
M  V30 3 1 3 4
M  V30 4 1 4 5
M  V30 5 1 5 6
M  V30 6 1 6 7
M  V30 7 1 7 8
M  V30 8 2 8 9
M  V30 9 1 8 10
M  V30 10 1 10 11
M  V30 11 1 11 12
M  V30 12 1 12 13
M  V30 13 1 13 14
M  V30 14 1 14 15
M  V30 15 2 15 16
M  V30 16 1 16 17
M  V30 17 2 17 18
M  V30 18 1 18 19
M  V30 19 1 19 20
M  V30 20 1 20 21
M  V30 21 2 21 22
M  V30 22 1 22 23
M  V30 23 2 23 24
M  V30 24 1 24 25
M  V30 25 1 25 26
M  V30 26 1 26 27
M  V30 27 1 27 28
M  V30 28 1 28 29
M  V30 29 1 29 30
M  V30 30 2 29 31
M  V30 31 2 29 32
M  V30 32 1 28 33
M  V30 33 1 33 34
M  V30 34 1 24 35
M  V30 35 2 35 36
M  V30 36 1 36 37
M  V30 37 2 37 38
M  V30 38 2 19 39
M  V30 39 1 13 40
M  V30 40 1 40 41
M  V30 41 1 7 42
M  V30 42 1 42 4
M  V30 43 1 41 10
M  V30 44 1 39 15
M  V30 45 1 38 20
M  V30 46 1 38 23
M  V30 47 1 34 25
M  V30 48 1 1 43
M  V30 49 1 1 44
M  V30 50 1 1 45
M  V30 51 1 2 46
M  V30 52 1 2 47
M  V30 53 1 4 48 CFG=1
M  V30 54 1 5 49
M  V30 55 1 5 50
M  V30 56 1 6 51
M  V30 57 1 6 52
M  V30 58 1 10 53 CFG=1
M  V30 59 1 11 54
M  V30 60 1 11 55
M  V30 61 1 12 56
M  V30 62 1 12 57
M  V30 63 1 13 58 CFG=3
M  V30 64 1 14 59
M  V30 65 1 17 60
M  V30 66 1 18 61
M  V30 67 1 21 62
M  V30 68 1 22 63
M  V30 69 1 26 64
M  V30 70 1 26 65
M  V30 71 1 27 66
M  V30 72 1 27 67
M  V30 73 1 28 68
M  V30 74 1 30 69
M  V30 75 1 30 70
M  V30 76 1 30 71
M  V30 77 1 33 72
M  V30 78 1 33 73
M  V30 79 1 34 74
M  V30 80 1 34 75
M  V30 81 1 35 76
M  V30 82 1 36 77
M  V30 83 1 37 78
M  V30 84 1 40 79
M  V30 85 1 40 80
M  V30 86 1 41 81
M  V30 87 1 41 82
M  V30 88 1 42 83
M  V30 89 1 42 84
M  V30 END BOND
M  V30 END CTAB
M  END
>  <Dataset>  (933) 
ChEMBL_Kinases

>  <Ligand_Instance>  (933) 
nan

>  <PDB_ID>  (933) 
nan

>  <Standardized_SMILES>  (933) 
CCO[C@@H]1CCN(C(=O)[C@H]2CC[C@H](Nc3nccc(-n4ccc5c(N6CCC(S(C)(=O)=O)CC6)cccc54)n3)CC2)C1

>  <Name>  (933) 
nan

>  <Pocket>  (933) 
nan

>  <ATP_Site>  (933) 
nan

>  <Peripheral>  (933) 
nan

>  <Num_H_Atoms_ProtBoundConf>  (933) 
nan

>  <Num_Resolved_Atoms>  (933) 
nan

>  <Num_Not_Resolved_Atoms>  (933) 
nan

$$$$
CHEMBL3674705
     RDKit          3D

  0  0  0  0  0  0  0  0  0  0999 V3000
M  V30 BEGIN CTAB
M  V30 COUNTS 84 89 0 0 0
M  V30 BEGIN ATOM
M  V30 1 C -0.433107 -8.001997 -0.869262 0
M  V30 2 C 0.939625 -7.725988 -0.275490 0
M  V30 3 O 1.386093 -6.550464 -0.847107 0
M  V30 4 C 2.647253 -6.242484 -0.341711 0 CFG=1
M  V30 5 C 3.694665 -6.139776 -1.438348 0
M  V30 6 C 4.795896 -5.335864 -0.732846 0
M  V30 7 N 4.066589 -4.514617 0.237615 0
M  V30 8 C 4.998674 -3.642301 0.879390 0
M  V30 9 O 6.071378 -3.950597 0.289772 0
M  V30 10 C 4.641540 -2.696656 1.925781 0 CFG=1
M  V30 11 C 4.215183 -3.338887 3.216914 0
M  V30 12 C 3.364132 -2.365602 3.981701 0
M  V30 13 C 3.829062 -0.972862 3.757071 0 CFG=2
M  V30 14 N 2.982038 -0.268085 2.788782 0
M  V30 15 C 1.595144 -0.138760 3.126731 0
M  V30 16 N 1.103254 -0.614555 4.291788 0
M  V30 17 C -0.181875 -0.538309 4.655442 0
M  V30 18 C -1.090052 0.070725 3.784669 0
M  V30 19 C -0.611788 0.562002 2.593781 0
M  V30 20 N -1.341834 1.205649 1.557462 0
M  V30 21 C -2.516167 0.615075 1.187973 0
M  V30 22 C -3.047269 1.410288 0.165013 0
M  V30 23 C -2.160418 2.422186 -0.012446 0
M  V30 24 C -2.206002 3.480726 -0.895882 0
M  V30 25 N -3.228056 3.736948 -1.854651 0
M  V30 26 C -3.372375 2.704670 -2.864874 0
M  V30 27 C -4.831138 2.790163 -3.331349 0
M  V30 28 C -5.001223 4.126921 -4.028067 0
M  V30 29 S -6.684805 4.285663 -4.575236 0
M  V30 30 C -7.842778 4.405993 -3.264273 0
M  V30 31 O -6.839891 5.509038 -5.463052 0
M  V30 32 O -7.019475 3.099121 -5.429001 0
M  V30 33 C -4.523284 5.271486 -3.213732 0
M  V30 34 C -4.054997 4.928153 -1.824172 0
M  V30 35 C -1.148430 4.394951 -0.867415 0
M  V30 36 C -0.092504 4.240262 0.018565 0
M  V30 37 C -0.036870 3.188645 0.903043 0
M  V30 38 C -1.087799 2.315495 0.846277 0
M  V30 39 N 0.694519 0.436816 2.321672 0
M  V30 40 C 5.288390 -0.815410 3.409279 0
M  V30 41 C 5.651401 -1.593252 2.165536 0
M  V30 42 C 2.655886 -4.839050 0.223579 0
M  V30 43 H -1.181378 -7.382173 -0.325676 0
M  V30 44 H -0.472930 -7.699899 -1.936651 0
M  V30 45 H -0.750421 -9.053668 -0.742496 0
M  V30 46 H 1.581493 -8.603468 -0.535227 0
M  V30 47 H 0.832970 -7.637543 0.832503 0
M  V30 48 H 2.997719 -6.993927 0.387017 0
M  V30 49 H 3.284402 -5.582394 -2.295344 0
M  V30 50 H 4.056544 -7.156193 -1.690009 0
M  V30 51 H 5.452506 -6.055848 -0.235079 0
M  V30 52 H 5.323306 -4.747724 -1.486220 0
M  V30 53 H 3.721381 -2.152946 1.555839 0
M  V30 54 H 3.641252 -4.272523 2.956840 0
M  V30 55 H 5.140009 -3.617104 3.795553 0
M  V30 56 H 2.319578 -2.505829 3.564474 0
M  V30 57 H 3.355839 -2.583816 5.074917 0
M  V30 58 H 3.692609 -0.397949 4.705810 0
M  V30 59 H 3.260301 0.169145 1.855387 0
M  V30 60 H -0.584337 -0.915062 5.584412 0
M  V30 61 H -2.136779 0.198492 3.945151 0
M  V30 62 H -3.025370 -0.260063 1.524660 0
M  V30 63 H -3.974021 1.237592 -0.358446 0
M  V30 64 H -2.721468 2.968097 -3.752071 0
M  V30 65 H -3.124406 1.698673 -2.537032 0
M  V30 66 H -5.109390 1.945534 -3.970986 0
M  V30 67 H -5.443707 2.821988 -2.408496 0
M  V30 68 H -4.389366 4.057628 -4.950849 0
M  V30 69 H -7.579718 3.797591 -2.376622 0
M  V30 70 H -8.077547 5.462153 -3.025574 0
M  V30 71 H -8.805942 3.969293 -3.640178 0
M  V30 72 H -5.348391 6.023020 -3.189450 0
M  V30 73 H -3.693037 5.784867 -3.737087 0
M  V30 74 H -4.874995 4.880645 -1.080583 0
M  V30 75 H -3.391737 5.759205 -1.484992 0
M  V30 76 H -1.155369 5.249693 -1.559817 0
M  V30 77 H 0.714388 4.967393 0.017186 0
M  V30 78 H 0.768223 3.026075 1.611533 0
M  V30 79 H 5.954874 -1.109206 4.239126 0
M  V30 80 H 5.468066 0.255104 3.202478 0
M  V30 81 H 5.762325 -0.896276 1.320972 0
M  V30 82 H 6.630313 -2.075755 2.341031 0
M  V30 83 H 2.154521 -4.790568 1.187595 0
M  V30 84 H 2.125372 -4.210882 -0.532193 0
M  V30 END ATOM
M  V30 BEGIN BOND
M  V30 1 1 1 2
M  V30 2 1 2 3
M  V30 3 1 3 4
M  V30 4 1 4 5
M  V30 5 1 5 6
M  V30 6 1 6 7
M  V30 7 1 7 8
M  V30 8 2 8 9
M  V30 9 1 8 10
M  V30 10 1 10 11
M  V30 11 1 11 12
M  V30 12 1 12 13
M  V30 13 1 13 14
M  V30 14 1 14 15
M  V30 15 2 15 16
M  V30 16 1 16 17
M  V30 17 2 17 18
M  V30 18 1 18 19
M  V30 19 1 19 20
M  V30 20 1 20 21
M  V30 21 2 21 22
M  V30 22 1 22 23
M  V30 23 2 23 24
M  V30 24 1 24 25
M  V30 25 1 25 26
M  V30 26 1 26 27
M  V30 27 1 27 28
M  V30 28 1 28 29
M  V30 29 1 29 30
M  V30 30 2 29 31
M  V30 31 2 29 32
M  V30 32 1 28 33
M  V30 33 1 33 34
M  V30 34 1 24 35
M  V30 35 2 35 36
M  V30 36 1 36 37
M  V30 37 2 37 38
M  V30 38 2 19 39
M  V30 39 1 13 40
M  V30 40 1 40 41
M  V30 41 1 7 42
M  V30 42 1 42 4
M  V30 43 1 41 10
M  V30 44 1 39 15
M  V30 45 1 38 20
M  V30 46 1 38 23
M  V30 47 1 34 25
M  V30 48 1 1 43
M  V30 49 1 1 44
M  V30 50 1 1 45
M  V30 51 1 2 46
M  V30 52 1 2 47
M  V30 53 1 4 48 CFG=1
M  V30 54 1 5 49
M  V30 55 1 5 50
M  V30 56 1 6 51
M  V30 57 1 6 52
M  V30 58 1 10 53 CFG=3
M  V30 59 1 11 54
M  V30 60 1 11 55
M  V30 61 1 12 56
M  V30 62 1 12 57
M  V30 63 1 13 58 CFG=1
M  V30 64 1 14 59
M  V30 65 1 17 60
M  V30 66 1 18 61
M  V30 67 1 21 62
M  V30 68 1 22 63
M  V30 69 1 26 64
M  V30 70 1 26 65
M  V30 71 1 27 66
M  V30 72 1 27 67
M  V30 73 1 28 68
M  V30 74 1 30 69
M  V30 75 1 30 70
M  V30 76 1 30 71
M  V30 77 1 33 72
M  V30 78 1 33 73
M  V30 79 1 34 74
M  V30 80 1 34 75
M  V30 81 1 35 76
M  V30 82 1 36 77
M  V30 83 1 37 78
M  V30 84 1 40 79
M  V30 85 1 40 80
M  V30 86 1 41 81
M  V30 87 1 41 82
M  V30 88 1 42 83
M  V30 89 1 42 84
M  V30 END BOND
M  V30 END CTAB
M  END
>  <Dataset>  (934) 
ChEMBL_Kinases

>  <Ligand_Instance>  (934) 
nan

>  <PDB_ID>  (934) 
nan

>  <Standardized_SMILES>  (934) 
CCO[C@H]1CCN(C(=O)[C@H]2CC[C@H](Nc3nccc(-n4ccc5c(N6CCC(S(C)(=O)=O)CC6)cccc54)n3)CC2)C1

>  <Name>  (934) 
nan

>  <Pocket>  (934) 
nan

>  <ATP_Site>  (934) 
nan

>  <Peripheral>  (934) 
nan

>  <Num_H_Atoms_ProtBoundConf>  (934) 
nan

>  <Num_Resolved_Atoms>  (934) 
nan

>  <Num_Not_Resolved_Atoms>  (934) 
nan

$$$$
CHEMBL3674706
     RDKit          3D

  0  0  0  0  0  0  0  0  0  0999 V3000
M  V30 BEGIN CTAB
M  V30 COUNTS 69 73 0 0 0
M  V30 BEGIN ATOM
M  V30 1 N 7.196614 -1.620427 -4.038874 0
M  V30 2 C 7.423017 -1.557657 -2.890758 0
M  V30 3 C 7.712241 -1.481703 -1.458387 0
M  V30 4 C 6.652573 -0.742604 -0.720297 0
M  V30 5 O 6.946005 -0.696846 0.525268 0
M  V30 6 O 5.484677 -0.152176 -1.198116 0
M  V30 7 C 4.627850 0.495637 -0.294131 0 CFG=2
M  V30 8 C 3.331630 -0.278577 -0.238979 0
M  V30 9 C 2.412436 -0.024750 -1.389829 0
M  V30 10 C 2.418489 1.443624 -1.816136 0
M  V30 11 C 2.968045 2.211884 -0.648633 0 CFG=2
M  V30 12 N 2.567141 3.596535 -0.607021 0
M  V30 13 C 1.158509 3.843712 -0.509471 0
M  V30 14 N 0.702437 5.095069 -0.467732 0
M  V30 15 C -0.613075 5.356661 -0.373138 0
M  V30 16 C -1.574111 4.371825 -0.313511 0
M  V30 17 C -1.081207 3.051855 -0.357559 0
M  V30 18 N -1.780438 1.816412 -0.311550 0
M  V30 19 C -2.453039 1.077195 -1.208149 0
M  V30 20 C -2.940589 -0.074557 -0.587100 0
M  V30 21 C -2.523874 0.021241 0.716973 0
M  V30 22 C -2.775317 -0.897374 1.708546 0
M  V30 23 N -3.484561 -2.125985 1.631101 0
M  V30 24 C -2.862715 -3.072904 0.760461 0
M  V30 25 C -3.817157 -4.136200 0.268361 0
M  V30 26 N -4.507280 -4.667476 1.431891 0
M  V30 27 C -4.204354 -6.025753 1.763268 0
M  V30 28 O -3.391515 -6.562238 0.980245 0
M  V30 29 C -4.801778 -6.713611 2.919132 0
M  V30 30 C -5.419506 -7.985906 2.539186 0
M  V30 31 N -5.916805 -8.984064 2.230503 0
M  V30 32 C -5.370602 -3.653236 1.980015 0
M  V30 33 C -4.703591 -2.377139 2.354691 0
M  V30 34 C -2.275460 -0.629405 2.962456 0
M  V30 35 C -1.545252 0.517247 3.227110 0
M  V30 36 C -1.320194 1.414206 2.174495 0
M  V30 37 C -1.816236 1.173181 0.884825 0
M  V30 38 N 0.248224 2.878569 -0.452618 0
M  V30 39 C 4.435969 1.968862 -0.577697 0
M  V30 40 H 7.744368 -2.555172 -1.105656 0
M  V30 41 H 8.732534 -1.107150 -1.272434 0
M  V30 42 H 5.080565 0.408663 0.717806 0
M  V30 43 H 2.834824 -0.225846 0.754693 0
M  V30 44 H 3.640408 -1.360093 -0.328171 0
M  V30 45 H 2.614653 -0.715763 -2.220160 0
M  V30 46 H 1.352102 -0.206946 -1.055369 0
M  V30 47 H 3.205086 1.498725 -2.613738 0
M  V30 48 H 1.447180 1.781204 -2.184530 0
M  V30 49 H 2.519918 1.730636 0.269621 0
M  V30 50 H 3.230329 4.391045 -0.642622 0
M  V30 51 H -1.068574 6.357640 -0.332201 0
M  V30 52 H -2.649224 4.390263 -0.237557 0
M  V30 53 H -2.556675 1.397374 -2.227777 0
M  V30 54 H -3.528164 -0.847361 -1.095384 0
M  V30 55 H -2.077547 -3.610535 1.359231 0
M  V30 56 H -2.330637 -2.663658 -0.105457 0
M  V30 57 H -4.547148 -3.672650 -0.428342 0
M  V30 58 H -3.273833 -4.894227 -0.300408 0
M  V30 59 H -3.923221 -7.010308 3.572842 0
M  V30 60 H -5.429336 -6.065090 3.548383 0
M  V30 61 H -5.947100 -4.119976 2.810214 0
M  V30 62 H -6.155712 -3.473309 1.183881 0
M  V30 63 H -5.417953 -1.538866 2.089378 0
M  V30 64 H -4.572344 -2.302801 3.459930 0
M  V30 65 H -2.369217 -1.232071 3.872031 0
M  V30 66 H -1.116057 0.810234 4.170493 0
M  V30 67 H -0.756814 2.322000 2.338131 0
M  V30 68 H 4.873124 2.607156 0.238721 0
M  V30 69 H 4.946100 2.227978 -1.530067 0
M  V30 END ATOM
M  V30 BEGIN BOND
M  V30 1 3 1 2
M  V30 2 1 2 3
M  V30 3 1 3 4
M  V30 4 2 4 5
M  V30 5 1 4 6
M  V30 6 1 6 7
M  V30 7 1 7 8
M  V30 8 1 8 9
M  V30 9 1 9 10
M  V30 10 1 10 11
M  V30 11 1 11 12
M  V30 12 1 12 13
M  V30 13 2 13 14
M  V30 14 1 14 15
M  V30 15 2 15 16
M  V30 16 1 16 17
M  V30 17 1 17 18
M  V30 18 1 18 19
M  V30 19 2 19 20
M  V30 20 1 20 21
M  V30 21 2 21 22
M  V30 22 1 22 23
M  V30 23 1 23 24
M  V30 24 1 24 25
M  V30 25 1 25 26
M  V30 26 1 26 27
M  V30 27 2 27 28
M  V30 28 1 27 29
M  V30 29 1 29 30
M  V30 30 3 30 31
M  V30 31 1 26 32
M  V30 32 1 32 33
M  V30 33 1 22 34
M  V30 34 2 34 35
M  V30 35 1 35 36
M  V30 36 2 36 37
M  V30 37 2 17 38
M  V30 38 1 11 39
M  V30 39 1 39 7
M  V30 40 1 38 13
M  V30 41 1 37 18
M  V30 42 1 37 21
M  V30 43 1 33 23
M  V30 44 1 3 40
M  V30 45 1 3 41
M  V30 46 1 7 42 CFG=1
M  V30 47 1 8 43
M  V30 48 1 8 44
M  V30 49 1 9 45
M  V30 50 1 9 46
M  V30 51 1 10 47
M  V30 52 1 10 48
M  V30 53 1 11 49 CFG=1
M  V30 54 1 12 50
M  V30 55 1 15 51
M  V30 56 1 16 52
M  V30 57 1 19 53
M  V30 58 1 20 54
M  V30 59 1 24 55
M  V30 60 1 24 56
M  V30 61 1 25 57
M  V30 62 1 25 58
M  V30 63 1 29 59
M  V30 64 1 29 60
M  V30 65 1 32 61
M  V30 66 1 32 62
M  V30 67 1 33 63
M  V30 68 1 33 64
M  V30 69 1 34 65
M  V30 70 1 35 66
M  V30 71 1 36 67
M  V30 72 1 39 68
M  V30 73 1 39 69
M  V30 END BOND
M  V30 END CTAB
M  END
>  <Dataset>  (935) 
ChEMBL_Kinases

>  <Ligand_Instance>  (935) 
nan

>  <PDB_ID>  (935) 
nan

>  <Standardized_SMILES>  (935) 
N#CCC(=O)O[C@@H]1CCC[C@H](Nc2nccc(-n3ccc4c(N5CCN(C(=O)CC#N)CC5)cccc43)n2)C1

>  <Name>  (935) 
nan

>  <Pocket>  (935) 
nan

>  <ATP_Site>  (935) 
nan

>  <Peripheral>  (935) 
nan

>  <Num_H_Atoms_ProtBoundConf>  (935) 
nan

>  <Num_Resolved_Atoms>  (935) 
nan

>  <Num_Not_Resolved_Atoms>  (935) 
nan

$$$$
CHEMBL3674707
     RDKit          3D

  0  0  0  0  0  0  0  0  0  0999 V3000
M  V30 BEGIN CTAB
M  V30 COUNTS 63 67 0 0 0
M  V30 BEGIN ATOM
M  V30 1 N 6.413972 0.781587 6.413929 0
M  V30 2 C 5.908415 1.051604 5.405132 0
M  V30 3 C 5.247068 1.391968 4.140615 0
M  V30 4 C 4.024843 2.182456 4.408951 0
M  V30 5 O 3.700002 2.461814 5.596493 0
M  V30 6 N 3.209664 2.631744 3.333757 0
M  V30 7 C 3.583172 2.307564 1.947108 0
M  V30 8 C 2.591784 3.034617 1.082839 0
M  V30 9 N 1.277972 2.475672 1.426661 0
M  V30 10 C 0.633059 1.590279 0.532376 0
M  V30 11 C 1.383099 1.070336 -0.511749 0
M  V30 12 C 0.846825 0.180116 -1.416521 0
M  V30 13 C -0.466457 -0.231639 -1.318467 0
M  V30 14 C -1.221511 0.263798 -0.304500 0
M  V30 15 C -0.670923 1.152452 0.591011 0
M  V30 16 C -1.657446 1.463616 1.465930 0
M  V30 17 C -2.802216 0.782186 1.124750 0
M  V30 18 N -2.507150 0.040007 0.017822 0
M  V30 19 C -3.501461 -0.784924 -0.579100 0
M  V30 20 C -4.796507 -0.264759 -0.684200 0
M  V30 21 C -5.839823 -0.974145 -1.238293 0
M  V30 22 N -5.548243 -2.198789 -1.675340 0
M  V30 23 C -4.303783 -2.758217 -1.599235 0
M  V30 24 N -4.069970 -4.080370 -2.083933 0
M  V30 25 C -2.786986 -4.727931 -2.046766 0 CFG=1
M  V30 26 C -1.799157 -3.949581 -2.874952 0
M  V30 27 C -0.366922 -4.239830 -2.584809 0
M  V30 28 C -0.093773 -4.128884 -1.120641 0
M  V30 29 C -0.904075 -5.191707 -0.422226 0 CFG=2
M  V30 30 O -0.528298 -6.475602 -0.728335 0
M  V30 31 C -2.367101 -4.895770 -0.621338 0
M  V30 32 N -3.325469 -2.030324 -1.053720 0
M  V30 33 C 0.834341 2.934635 2.727017 0
M  V30 34 C 2.015040 3.406735 3.596728 0
M  V30 35 H 5.990337 1.985807 3.564670 0
M  V30 36 H 5.009038 0.459250 3.592990 0
M  V30 37 H 3.503532 1.211316 1.890344 0
M  V30 38 H 4.609100 2.586627 1.706913 0
M  V30 39 H 2.642282 4.112801 1.425669 0
M  V30 40 H 2.803847 3.067356 0.023166 0
M  V30 41 H 2.411110 1.271108 -0.740925 0
M  V30 42 H 1.390150 -0.260093 -2.255536 0
M  V30 43 H -0.905712 -0.924017 -2.012434 0
M  V30 44 H -1.621500 2.126335 2.302003 0
M  V30 45 H -3.753999 0.832386 1.643933 0
M  V30 46 H -4.988948 0.734913 -0.315963 0
M  V30 47 H -6.844199 -0.587620 -1.326959 0
M  V30 48 H -4.911574 -4.588783 -2.488878 0
M  V30 49 H -2.887240 -5.735447 -2.496643 0
M  V30 50 H -1.978627 -2.875604 -2.870119 0
M  V30 51 H -1.970319 -4.274916 -3.944392 0
M  V30 52 H -0.125870 -5.252008 -2.969094 0
M  V30 53 H 0.256897 -3.529867 -3.131357 0
M  V30 54 H 0.985778 -4.200748 -0.880378 0
M  V30 55 H -0.485418 -3.146927 -0.757227 0
M  V30 56 H -0.718439 -5.028216 0.678576 0
M  V30 57 H -1.089498 -6.896476 -1.449438 0
M  V30 58 H -2.642362 -4.041271 0.013066 0
M  V30 59 H -2.954159 -5.762538 -0.197820 0
M  V30 60 H 0.481808 2.020590 3.293466 0
M  V30 61 H 0.072062 3.732053 2.671892 0
M  V30 62 H 1.757430 3.287577 4.668736 0
M  V30 63 H 2.197040 4.473129 3.435037 0
M  V30 END ATOM
M  V30 BEGIN BOND
M  V30 1 3 1 2
M  V30 2 1 2 3
M  V30 3 1 3 4
M  V30 4 2 4 5
M  V30 5 1 4 6
M  V30 6 1 6 7
M  V30 7 1 7 8
M  V30 8 1 8 9
M  V30 9 1 9 10
M  V30 10 2 10 11
M  V30 11 1 11 12
M  V30 12 2 12 13
M  V30 13 1 13 14
M  V30 14 2 14 15
M  V30 15 1 15 16
M  V30 16 2 16 17
M  V30 17 1 17 18
M  V30 18 1 18 19
M  V30 19 2 19 20
M  V30 20 1 20 21
M  V30 21 2 21 22
M  V30 22 1 22 23
M  V30 23 1 23 24
M  V30 24 1 24 25
M  V30 25 1 25 26
M  V30 26 1 26 27
M  V30 27 1 27 28
M  V30 28 1 28 29
M  V30 29 1 29 30
M  V30 30 1 29 31
M  V30 31 2 23 32
M  V30 32 1 9 33
M  V30 33 1 33 34
M  V30 34 1 34 6
M  V30 35 1 15 10
M  V30 36 1 32 19
M  V30 37 1 18 14
M  V30 38 1 31 25
M  V30 39 1 3 35
M  V30 40 1 3 36
M  V30 41 1 7 37
M  V30 42 1 7 38
M  V30 43 1 8 39
M  V30 44 1 8 40
M  V30 45 1 11 41
M  V30 46 1 12 42
M  V30 47 1 13 43
M  V30 48 1 16 44
M  V30 49 1 17 45
M  V30 50 1 20 46
M  V30 51 1 21 47
M  V30 52 1 24 48
M  V30 53 1 25 49 CFG=3
M  V30 54 1 26 50
M  V30 55 1 26 51
M  V30 56 1 27 52
M  V30 57 1 27 53
M  V30 58 1 28 54
M  V30 59 1 28 55
M  V30 60 1 29 56 CFG=1
M  V30 61 1 30 57
M  V30 62 1 31 58
M  V30 63 1 31 59
M  V30 64 1 33 60
M  V30 65 1 33 61
M  V30 66 1 34 62
M  V30 67 1 34 63
M  V30 END BOND
M  V30 END CTAB
M  END
>  <Dataset>  (936) 
ChEMBL_Kinases

>  <Ligand_Instance>  (936) 
nan

>  <PDB_ID>  (936) 
nan

>  <Standardized_SMILES>  (936) 
N#CCC(=O)N1CCN(c2cccc3c2ccn3-c2ccnc(N[C@H]3CCC[C@H](O)C3)n2)CC1

>  <Name>  (936) 
nan

>  <Pocket>  (936) 
nan

>  <ATP_Site>  (936) 
nan

>  <Peripheral>  (936) 
nan

>  <Num_H_Atoms_ProtBoundConf>  (936) 
nan

>  <Num_Resolved_Atoms>  (936) 
nan

>  <Num_Not_Resolved_Atoms>  (936) 
nan

$$$$
CHEMBL3674708
     RDKit          3D

  0  0  0  0  0  0  0  0  0  0999 V3000
M  V30 BEGIN CTAB
M  V30 COUNTS 63 67 0 0 0
M  V30 BEGIN ATOM
M  V30 1 N 6.692539 1.424902 6.423410 0
M  V30 2 C 6.116748 1.533958 5.440396 0
M  V30 3 C 5.388267 1.671213 4.177974 0
M  V30 4 C 4.125932 2.400036 4.414433 0
M  V30 5 O 3.882514 2.767631 5.601797 0
M  V30 6 N 3.220134 2.678743 3.355231 0
M  V30 7 C 3.540898 2.234687 1.989087 0
M  V30 8 C 2.514944 2.878713 1.101505 0
M  V30 9 N 1.221999 2.332131 1.524887 0
M  V30 10 C 0.542736 1.409837 0.690976 0
M  V30 11 C 1.253960 0.825823 -0.344693 0
M  V30 12 C 0.678624 -0.102832 -1.186057 0
M  V30 13 C -0.636867 -0.486586 -1.024861 0
M  V30 14 C -1.362837 0.070554 -0.014697 0
M  V30 15 C -0.766017 0.997148 0.813868 0
M  V30 16 C -1.720046 1.369352 1.699933 0
M  V30 17 C -2.887662 0.689760 1.432416 0
M  V30 18 N -2.641148 -0.116446 0.356703 0
M  V30 19 C -3.651751 -0.962604 -0.180978 0
M  V30 20 C -4.994041 -0.654634 0.002614 0
M  V30 21 C -6.040728 -1.412801 -0.474080 0
M  V30 22 N -5.679038 -2.495478 -1.144247 0
M  V30 23 C -4.396040 -2.882546 -1.377535 0
M  V30 24 N -4.114484 -4.072494 -2.104951 0
M  V30 25 C -2.780395 -4.546298 -2.409145 0 CFG=1
M  V30 26 C -1.986129 -3.628747 -3.263303 0
M  V30 27 C -0.527473 -3.633795 -3.124056 0
M  V30 28 C 0.010173 -4.164946 -1.822532 0
M  V30 29 C -0.750393 -5.405237 -1.391905 0 CFG=1
M  V30 30 O -0.190443 -5.927227 -0.238723 0
M  V30 31 C -2.142616 -4.882234 -1.084149 0
M  V30 32 N -3.413503 -2.098959 -0.885496 0
M  V30 33 C 0.810364 2.821709 2.825727 0
M  V30 34 C 1.997139 3.392647 3.620817 0
M  V30 35 H 6.061437 2.266296 3.495874 0
M  V30 36 H 5.179287 0.680521 3.762798 0
M  V30 37 H 3.449985 1.134059 2.024077 0
M  V30 38 H 4.562104 2.499377 1.711667 0
M  V30 39 H 2.502563 3.969927 1.376414 0
M  V30 40 H 2.697709 2.815161 0.032656 0
M  V30 41 H 2.270248 0.992466 -0.617319 0
M  V30 42 H 1.176777 -0.600414 -2.017314 0
M  V30 43 H -1.120022 -1.210925 -1.665229 0
M  V30 44 H -1.661566 2.067177 2.495864 0
M  V30 45 H -3.831948 0.770704 1.968120 0
M  V30 46 H -5.207435 0.247711 0.560830 0
M  V30 47 H -7.077159 -1.147670 -0.315277 0
M  V30 48 H -4.966788 -4.622309 -2.429224 0
M  V30 49 H -2.897398 -5.524850 -2.919736 0
M  V30 50 H -2.386878 -2.602642 -3.138690 0
M  V30 51 H -2.220971 -3.856941 -4.346477 0
M  V30 52 H -0.040499 -4.264130 -3.925721 0
M  V30 53 H -0.058794 -2.637894 -3.275036 0
M  V30 54 H 1.090686 -4.357070 -1.919173 0
M  V30 55 H -0.180154 -3.396256 -1.036982 0
M  V30 56 H -0.774928 -6.114546 -2.237237 0
M  V30 57 H 0.792187 -5.792046 -0.205479 0
M  V30 58 H -2.038005 -3.993087 -0.439612 0
M  V30 59 H -2.734258 -5.670550 -0.595170 0
M  V30 60 H 0.448630 1.994585 3.475000 0
M  V30 61 H 0.086731 3.628704 2.770451 0
M  V30 62 H 1.780466 3.318042 4.712510 0
M  V30 63 H 2.127168 4.449050 3.317340 0
M  V30 END ATOM
M  V30 BEGIN BOND
M  V30 1 3 1 2
M  V30 2 1 2 3
M  V30 3 1 3 4
M  V30 4 2 4 5
M  V30 5 1 4 6
M  V30 6 1 6 7
M  V30 7 1 7 8
M  V30 8 1 8 9
M  V30 9 1 9 10
M  V30 10 2 10 11
M  V30 11 1 11 12
M  V30 12 2 12 13
M  V30 13 1 13 14
M  V30 14 2 14 15
M  V30 15 1 15 16
M  V30 16 2 16 17
M  V30 17 1 17 18
M  V30 18 1 18 19
M  V30 19 2 19 20
M  V30 20 1 20 21
M  V30 21 2 21 22
M  V30 22 1 22 23
M  V30 23 1 23 24
M  V30 24 1 24 25
M  V30 25 1 25 26
M  V30 26 1 26 27
M  V30 27 1 27 28
M  V30 28 1 28 29
M  V30 29 1 29 30
M  V30 30 1 29 31
M  V30 31 2 23 32
M  V30 32 1 9 33
M  V30 33 1 33 34
M  V30 34 1 34 6
M  V30 35 1 15 10
M  V30 36 1 32 19
M  V30 37 1 18 14
M  V30 38 1 31 25
M  V30 39 1 3 35
M  V30 40 1 3 36
M  V30 41 1 7 37
M  V30 42 1 7 38
M  V30 43 1 8 39
M  V30 44 1 8 40
M  V30 45 1 11 41
M  V30 46 1 12 42
M  V30 47 1 13 43
M  V30 48 1 16 44
M  V30 49 1 17 45
M  V30 50 1 20 46
M  V30 51 1 21 47
M  V30 52 1 24 48
M  V30 53 1 25 49 CFG=3
M  V30 54 1 26 50
M  V30 55 1 26 51
M  V30 56 1 27 52
M  V30 57 1 27 53
M  V30 58 1 28 54
M  V30 59 1 28 55
M  V30 60 1 29 56 CFG=3
M  V30 61 1 30 57
M  V30 62 1 31 58
M  V30 63 1 31 59
M  V30 64 1 33 60
M  V30 65 1 33 61
M  V30 66 1 34 62
M  V30 67 1 34 63
M  V30 END BOND
M  V30 END CTAB
M  END
>  <Dataset>  (937) 
ChEMBL_Kinases

>  <Ligand_Instance>  (937) 
nan

>  <PDB_ID>  (937) 
nan

>  <Standardized_SMILES>  (937) 
N#CCC(=O)N1CCN(c2cccc3c2ccn3-c2ccnc(N[C@H]3CCC[C@@H](O)C3)n2)CC1

>  <Name>  (937) 
nan

>  <Pocket>  (937) 
nan

>  <ATP_Site>  (937) 
nan

>  <Peripheral>  (937) 
nan

>  <Num_H_Atoms_ProtBoundConf>  (937) 
nan

>  <Num_Resolved_Atoms>  (937) 
nan

>  <Num_Not_Resolved_Atoms>  (937) 
nan

$$$$
CHEMBL3674709
     RDKit          3D

  0  0  0  0  0  0  0  0  0  0999 V3000
M  V30 BEGIN CTAB
M  V30 COUNTS 69 73 0 0 0
M  V30 BEGIN ATOM
M  V30 1 N 8.663003 -1.078259 2.378299 0
M  V30 2 C 7.656349 -0.710175 1.990111 0
M  V30 3 C 6.386374 -0.221537 1.508089 0
M  V30 4 C 6.449048 0.348001 0.126226 0
M  V30 5 O 7.515817 0.386750 -0.554505 0
M  V30 6 O 5.211969 0.805012 -0.271223 0
M  V30 7 C 4.916431 1.392146 -1.499238 0 CFG=1
M  V30 8 C 3.917179 0.524029 -2.240773 0
M  V30 9 C 2.988700 1.358390 -3.090952 0
M  V30 10 C 2.172045 2.343619 -2.297139 0
M  V30 11 C 2.915221 2.671125 -1.028381 0 CFG=2
M  V30 12 N 2.402100 3.840482 -0.342097 0
M  V30 13 C 1.055818 3.829338 0.118401 0
M  V30 14 N 0.581961 4.931931 0.756463 0
M  V30 15 C -0.686525 4.941864 1.202560 0
M  V30 16 C -1.538927 3.871667 1.040615 0
M  V30 17 C -1.037082 2.763235 0.390401 0
M  V30 18 N -1.736911 1.532601 0.109344 0
M  V30 19 C -2.231328 0.962759 -1.027616 0
M  V30 20 C -2.809084 -0.242046 -0.669611 0
M  V30 21 C -2.652796 -0.377344 0.675663 0
M  V30 22 C -3.071069 -1.419705 1.464327 0
M  V30 23 N -3.760132 -2.588378 1.045155 0
M  V30 24 C -3.272497 -3.553484 0.101731 0
M  V30 25 C -3.042860 -4.892190 0.807537 0
M  V30 26 N -4.210294 -5.292737 1.545470 0
M  V30 27 C -4.650813 -6.656716 1.616493 0
M  V30 28 O -5.663365 -7.034488 2.251934 0
M  V30 29 C -3.840789 -7.663768 0.884172 0
M  V30 30 C -4.381882 -9.008979 1.039286 0
M  V30 31 N -4.819064 -10.064807 1.174345 0
M  V30 32 C -4.998994 -4.312560 2.258132 0
M  V30 33 C -5.078552 -2.999641 1.505763 0
M  V30 34 C -2.831712 -1.408555 2.841618 0
M  V30 35 C -2.156088 -0.298804 3.359762 0
M  V30 36 C -1.757444 0.719985 2.528258 0
M  V30 37 C -1.988271 0.718668 1.170614 0
M  V30 38 N 0.248839 2.781701 -0.049832 0
M  V30 39 C 4.381226 2.808647 -1.355913 0
M  V30 40 H 6.032919 0.588381 2.175647 0
M  V30 41 H 5.595480 -1.000251 1.533102 0
M  V30 42 H 5.839405 1.427085 -2.105520 0
M  V30 43 H 3.365027 -0.154615 -1.560382 0
M  V30 44 H 4.490704 -0.136076 -2.917017 0
M  V30 45 H 2.250150 0.628969 -3.535380 0
M  V30 46 H 3.514168 1.798352 -3.946020 0
M  V30 47 H 2.118506 3.274217 -2.928351 0
M  V30 48 H 1.141804 1.970131 -2.099727 0
M  V30 49 H 2.794609 1.803742 -0.314161 0
M  V30 50 H 3.014027 4.648398 -0.201955 0
M  V30 51 H -1.109017 5.802334 1.718544 0
M  V30 52 H -2.560113 3.789332 1.360949 0
M  V30 53 H -2.117502 1.477579 -1.964591 0
M  V30 54 H -3.281319 -0.904654 -1.387001 0
M  V30 55 H -2.345124 -3.198875 -0.370732 0
M  V30 56 H -4.016124 -3.703058 -0.706295 0
M  V30 57 H -2.200681 -4.803794 1.520866 0
M  V30 58 H -2.821410 -5.688276 0.083152 0
M  V30 59 H -2.800636 -7.580160 1.203034 0
M  V30 60 H -3.873409 -7.410059 -0.203040 0
M  V30 61 H -4.517145 -4.109361 3.244240 0
M  V30 62 H -6.019605 -4.692912 2.443424 0
M  V30 63 H -5.758294 -3.065133 0.639439 0
M  V30 64 H -5.505577 -2.224405 2.174498 0
M  V30 65 H -3.093432 -2.136343 3.573980 0
M  V30 66 H -1.929322 -0.207954 4.412418 0
M  V30 67 H -1.237667 1.566172 2.950033 0
M  V30 68 H 4.456427 3.336084 -2.332480 0
M  V30 69 H 4.936387 3.391593 -0.619839 0
M  V30 END ATOM
M  V30 BEGIN BOND
M  V30 1 3 1 2
M  V30 2 1 2 3
M  V30 3 1 3 4
M  V30 4 2 4 5
M  V30 5 1 4 6
M  V30 6 1 6 7
M  V30 7 1 7 8
M  V30 8 1 8 9
M  V30 9 1 9 10
M  V30 10 1 10 11
M  V30 11 1 11 12
M  V30 12 1 12 13
M  V30 13 2 13 14
M  V30 14 1 14 15
M  V30 15 2 15 16
M  V30 16 1 16 17
M  V30 17 1 17 18
M  V30 18 1 18 19
M  V30 19 2 19 20
M  V30 20 1 20 21
M  V30 21 2 21 22
M  V30 22 1 22 23
M  V30 23 1 23 24
M  V30 24 1 24 25
M  V30 25 1 25 26
M  V30 26 1 26 27
M  V30 27 2 27 28
M  V30 28 1 27 29
M  V30 29 1 29 30
M  V30 30 3 30 31
M  V30 31 1 26 32
M  V30 32 1 32 33
M  V30 33 1 22 34
M  V30 34 2 34 35
M  V30 35 1 35 36
M  V30 36 2 36 37
M  V30 37 2 17 38
M  V30 38 1 11 39
M  V30 39 1 39 7
M  V30 40 1 38 13
M  V30 41 1 37 18
M  V30 42 1 37 21
M  V30 43 1 33 23
M  V30 44 1 3 40
M  V30 45 1 3 41
M  V30 46 1 7 42 CFG=3
M  V30 47 1 8 43
M  V30 48 1 8 44
M  V30 49 1 9 45
M  V30 50 1 9 46
M  V30 51 1 10 47
M  V30 52 1 10 48
M  V30 53 1 11 49 CFG=1
M  V30 54 1 12 50
M  V30 55 1 15 51
M  V30 56 1 16 52
M  V30 57 1 19 53
M  V30 58 1 20 54
M  V30 59 1 24 55
M  V30 60 1 24 56
M  V30 61 1 25 57
M  V30 62 1 25 58
M  V30 63 1 29 59
M  V30 64 1 29 60
M  V30 65 1 32 61
M  V30 66 1 32 62
M  V30 67 1 33 63
M  V30 68 1 33 64
M  V30 69 1 34 65
M  V30 70 1 35 66
M  V30 71 1 36 67
M  V30 72 1 39 68
M  V30 73 1 39 69
M  V30 END BOND
M  V30 END CTAB
M  END
>  <Dataset>  (938) 
ChEMBL_Kinases

>  <Ligand_Instance>  (938) 
nan

>  <PDB_ID>  (938) 
nan

>  <Standardized_SMILES>  (938) 
N#CCC(=O)O[C@H]1CCC[C@H](Nc2nccc(-n3ccc4c(N5CCN(C(=O)CC#N)CC5)cccc43)n2)C1

>  <Name>  (938) 
nan

>  <Pocket>  (938) 
nan

>  <ATP_Site>  (938) 
nan

>  <Peripheral>  (938) 
nan

>  <Num_H_Atoms_ProtBoundConf>  (938) 
nan

>  <Num_Resolved_Atoms>  (938) 
nan

>  <Num_Not_Resolved_Atoms>  (938) 
nan

$$$$
CHEMBL3674710
     RDKit          3D

  0  0  0  0  0  0  0  0  0  0999 V3000
M  V30 BEGIN CTAB
M  V30 COUNTS 61 65 0 0 0
M  V30 BEGIN ATOM
M  V30 1 C 0.962314 -2.111742 5.498997 0
M  V30 2 C 2.212189 -1.927372 4.766386 0
M  V30 3 O 2.082444 -3.020550 4.092830 0
M  V30 4 N 3.420111 -1.667673 4.115570 0
M  V30 5 C 4.112883 -0.448247 4.483358 0
M  V30 6 C 4.310779 0.477753 3.277635 0
M  V30 7 N 3.762477 -0.101724 2.085467 0
M  V30 8 C 2.788135 0.231965 1.073993 0
M  V30 9 C 3.370811 0.223580 -0.191968 0
M  V30 10 C 2.583230 0.513074 -1.294591 0
M  V30 11 C 1.249801 0.798116 -1.083900 0
M  V30 12 C 0.661478 0.808380 0.175439 0
M  V30 13 C 1.451613 0.521383 1.245009 0
M  V30 14 C 0.761965 0.565572 2.415529 0
M  V30 15 C -0.540992 0.903186 2.030354 0
M  V30 16 N -0.570872 1.043136 0.672854 0
M  V30 17 C -1.721159 1.386138 -0.124831 0
M  V30 18 C -2.122618 2.659535 -0.457243 0
M  V30 19 C -3.262663 2.807968 -1.235891 0
M  V30 20 N -3.967507 1.742021 -1.661897 0
M  V30 21 C -3.568370 0.492753 -1.332451 0
M  V30 22 N -4.291695 -0.680955 -1.765305 0
M  V30 23 C -3.857510 -2.016674 -1.409390 0
M  V30 24 C -4.762031 -3.080916 -1.967616 0
M  V30 25 C -4.612756 -3.330135 -3.426892 0
M  V30 26 C -3.652357 -2.429876 -4.145964 0
M  V30 27 C -2.387253 -2.156232 -3.429401 0
M  V30 28 C -2.466141 -2.315958 -1.935351 0
M  V30 29 N -2.455709 0.351369 -0.572774 0
M  V30 30 C 4.444551 -1.392827 1.916477 0
M  V30 31 C 4.275463 -2.257157 3.120117 0
M  V30 32 H 0.088603 -2.065328 4.821177 0
M  V30 33 H 0.878038 -3.064264 6.077120 0
M  V30 34 H 0.809084 -1.260335 6.241577 0
M  V30 35 H 5.094438 -0.714378 4.928434 0
M  V30 36 H 3.562006 0.099170 5.279071 0
M  V30 37 H 3.916820 1.491384 3.502374 0
M  V30 38 H 5.400736 0.617846 3.131951 0
M  V30 39 H 4.411638 0.006770 -0.416713 0
M  V30 40 H 2.967641 0.523915 -2.307998 0
M  V30 41 H 0.634847 1.022301 -1.934039 0
M  V30 42 H 1.120099 0.385912 3.420216 0
M  V30 43 H -1.380428 1.030975 2.697665 0
M  V30 44 H -1.524699 3.456171 -0.089210 0
M  V30 45 H -3.584500 3.795857 -1.501094 0
M  V30 46 H -5.140888 -0.507080 -2.345962 0
M  V30 47 H -3.807857 -2.137183 -0.319247 0
M  V30 48 H -4.467314 -4.029171 -1.429857 0
M  V30 49 H -5.829446 -2.937256 -1.643980 0
M  V30 50 H -5.602689 -3.182450 -3.915458 0
M  V30 51 H -4.367217 -4.408050 -3.652450 0
M  V30 52 H -3.384145 -2.965547 -5.103164 0
M  V30 53 H -4.183230 -1.510196 -4.501711 0
M  V30 54 H -1.545474 -2.790682 -3.809422 0
M  V30 55 H -2.078572 -1.110687 -3.636818 0
M  V30 56 H -2.270772 -3.389931 -1.715918 0
M  V30 57 H -1.681924 -1.738620 -1.404483 0
M  V30 58 H 4.087507 -1.921367 1.009935 0
M  V30 59 H 5.521294 -1.160188 1.721508 0
M  V30 60 H 3.850604 -3.247004 2.815665 0
M  V30 61 H 5.267378 -2.539089 3.581715 0
M  V30 END ATOM
M  V30 BEGIN BOND
M  V30 1 1 1 2
M  V30 2 2 2 3
M  V30 3 1 2 4
M  V30 4 1 4 5
M  V30 5 1 5 6
M  V30 6 1 6 7
M  V30 7 1 7 8
M  V30 8 2 8 9
M  V30 9 1 9 10
M  V30 10 2 10 11
M  V30 11 1 11 12
M  V30 12 2 12 13
M  V30 13 1 13 14
M  V30 14 2 14 15
M  V30 15 1 15 16
M  V30 16 1 16 17
M  V30 17 2 17 18
M  V30 18 1 18 19
M  V30 19 2 19 20
M  V30 20 1 20 21
M  V30 21 1 21 22
M  V30 22 1 22 23
M  V30 23 1 23 24
M  V30 24 1 24 25
M  V30 25 1 25 26
M  V30 26 1 26 27
M  V30 27 1 27 28
M  V30 28 2 21 29
M  V30 29 1 7 30
M  V30 30 1 30 31
M  V30 31 1 31 4
M  V30 32 1 13 8
M  V30 33 1 29 17
M  V30 34 1 16 12
M  V30 35 1 28 23
M  V30 36 1 1 32
M  V30 37 1 1 33
M  V30 38 1 1 34
M  V30 39 1 5 35
M  V30 40 1 5 36
M  V30 41 1 6 37
M  V30 42 1 6 38
M  V30 43 1 9 39
M  V30 44 1 10 40
M  V30 45 1 11 41
M  V30 46 1 14 42
M  V30 47 1 15 43
M  V30 48 1 18 44
M  V30 49 1 19 45
M  V30 50 1 22 46
M  V30 51 1 23 47
M  V30 52 1 24 48
M  V30 53 1 24 49
M  V30 54 1 25 50
M  V30 55 1 25 51
M  V30 56 1 26 52
M  V30 57 1 26 53
M  V30 58 1 27 54
M  V30 59 1 27 55
M  V30 60 1 28 56
M  V30 61 1 28 57
M  V30 62 1 30 58
M  V30 63 1 30 59
M  V30 64 1 31 60
M  V30 65 1 31 61
M  V30 END BOND
M  V30 END CTAB
M  END
>  <Dataset>  (939) 
ChEMBL_Kinases

>  <Ligand_Instance>  (939) 
nan

>  <PDB_ID>  (939) 
nan

>  <Standardized_SMILES>  (939) 
CC(=O)N1CCN(c2cccc3c2ccn3-c2ccnc(NC3CCCCC3)n2)CC1

>  <Name>  (939) 
nan

>  <Pocket>  (939) 
nan

>  <ATP_Site>  (939) 
nan

>  <Peripheral>  (939) 
nan

>  <Num_H_Atoms_ProtBoundConf>  (939) 
nan

>  <Num_Resolved_Atoms>  (939) 
nan

>  <Num_Not_Resolved_Atoms>  (939) 
nan

$$$$
CHEMBL3674711
     RDKit          3D

  0  0  0  0  0  0  0  0  0  0999 V3000
M  V30 BEGIN CTAB
M  V30 COUNTS 62 66 0 0 0
M  V30 BEGIN ATOM
M  V30 1 N 3.374265 -2.669587 8.431037 0
M  V30 2 C 3.042291 -1.762713 7.786044 0
M  V30 3 C 2.629179 -0.643200 6.961207 0
M  V30 4 C 3.441735 -0.535310 5.723322 0
M  V30 5 O 3.855740 -1.499746 6.374874 0
M  V30 6 N 3.031138 0.551500 4.913151 0
M  V30 7 C 3.798733 0.691667 3.694686 0
M  V30 8 C 3.249616 1.843487 2.920932 0
M  V30 9 N 1.822017 1.605069 2.710656 0
M  V30 10 C 1.330707 1.308410 1.414183 0
M  V30 11 C 2.231033 0.918531 0.446566 0
M  V30 12 C 1.848423 0.577730 -0.833411 0
M  V30 13 C 0.504777 0.613251 -1.212895 0
M  V30 14 C -0.402872 0.997587 -0.267617 0
M  V30 15 C 0.021506 1.326341 0.987027 0
M  V30 16 C -1.116774 1.669462 1.677408 0
M  V30 17 C -2.213309 1.554944 0.873780 0
M  V30 18 N -1.739124 1.133631 -0.334997 0
M  V30 19 C -2.589784 0.889050 -1.464581 0
M  V30 20 C -3.261130 1.843414 -2.212198 0
M  V30 21 C -4.038398 1.413320 -3.266554 0
M  V30 22 N -4.145382 0.108243 -3.564751 0
M  V30 23 C -3.491572 -0.842189 -2.839303 0
M  V30 24 N -3.604284 -2.240821 -3.148520 0
M  V30 25 C -2.947781 -3.310671 -2.450907 0
M  V30 26 C -3.372748 -4.635096 -3.047093 0
M  V30 27 C -2.241513 -5.621183 -3.098979 0
M  V30 28 C -1.109706 -5.107140 -3.955471 0
M  V30 29 C -0.721322 -3.695026 -3.596648 0
M  V30 30 C -1.446836 -3.178253 -2.387619 0
M  V30 31 N -2.745015 -0.388914 -1.821798 0
M  V30 32 C 1.091479 1.686904 3.951749 0
M  V30 33 C 1.982440 1.480378 5.157407 0
M  V30 34 H 1.556872 -0.774491 6.632968 0
M  V30 35 H 2.644292 0.329373 7.505844 0
M  V30 36 H 4.869052 0.885235 3.928063 0
M  V30 37 H 3.749206 -0.272272 3.151899 0
M  V30 38 H 3.818228 2.007315 2.010644 0
M  V30 39 H 3.324565 2.732702 3.609234 0
M  V30 40 H 3.291910 0.820870 0.534914 0
M  V30 41 H 2.504194 0.262442 -1.642671 0
M  V30 42 H 0.162749 0.357100 -2.195429 0
M  V30 43 H -1.214162 1.991136 2.680714 0
M  V30 44 H -3.243840 1.742126 1.094870 0
M  V30 45 H -3.117221 2.864326 -1.901864 0
M  V30 46 H -4.561359 2.157956 -3.849224 0
M  V30 47 H -4.238438 -2.466627 -3.973495 0
M  V30 48 H -3.312307 -3.293459 -1.402722 0
M  V30 49 H -4.181221 -5.087542 -2.437742 0
M  V30 50 H -3.840868 -4.438793 -4.051108 0
M  V30 51 H -1.896551 -5.766367 -2.072637 0
M  V30 52 H -2.625319 -6.549980 -3.556694 0
M  V30 53 H -0.278077 -5.836670 -3.882899 0
M  V30 54 H -1.413968 -5.098441 -5.038638 0
M  V30 55 H -0.761346 -3.004671 -4.463692 0
M  V30 56 H 0.355388 -3.745112 -3.309809 0
M  V30 57 H -1.204292 -2.115001 -2.292820 0
M  V30 58 H -1.029236 -3.691621 -1.499399 0
M  V30 59 H 0.552149 2.628050 4.117634 0
M  V30 60 H 0.355018 0.859090 3.960604 0
M  V30 61 H 2.466112 2.452165 5.469608 0
M  V30 62 H 1.399757 1.145850 6.036866 0
M  V30 END ATOM
M  V30 BEGIN BOND
M  V30 1 3 1 2
M  V30 2 1 2 3
M  V30 3 1 3 4
M  V30 4 2 4 5
M  V30 5 1 4 6
M  V30 6 1 6 7
M  V30 7 1 7 8
M  V30 8 1 8 9
M  V30 9 1 9 10
M  V30 10 2 10 11
M  V30 11 1 11 12
M  V30 12 2 12 13
M  V30 13 1 13 14
M  V30 14 2 14 15
M  V30 15 1 15 16
M  V30 16 2 16 17
M  V30 17 1 17 18
M  V30 18 1 18 19
M  V30 19 2 19 20
M  V30 20 1 20 21
M  V30 21 2 21 22
M  V30 22 1 22 23
M  V30 23 1 23 24
M  V30 24 1 24 25
M  V30 25 1 25 26
M  V30 26 1 26 27
M  V30 27 1 27 28
M  V30 28 1 28 29
M  V30 29 1 29 30
M  V30 30 2 23 31
M  V30 31 1 9 32
M  V30 32 1 32 33
M  V30 33 1 33 6
M  V30 34 1 15 10
M  V30 35 1 31 19
M  V30 36 1 18 14
M  V30 37 1 30 25
M  V30 38 1 3 34
M  V30 39 1 3 35
M  V30 40 1 7 36
M  V30 41 1 7 37
M  V30 42 1 8 38
M  V30 43 1 8 39
M  V30 44 1 11 40
M  V30 45 1 12 41
M  V30 46 1 13 42
M  V30 47 1 16 43
M  V30 48 1 17 44
M  V30 49 1 20 45
M  V30 50 1 21 46
M  V30 51 1 24 47
M  V30 52 1 25 48
M  V30 53 1 26 49
M  V30 54 1 26 50
M  V30 55 1 27 51
M  V30 56 1 27 52
M  V30 57 1 28 53
M  V30 58 1 28 54
M  V30 59 1 29 55
M  V30 60 1 29 56
M  V30 61 1 30 57
M  V30 62 1 30 58
M  V30 63 1 32 59
M  V30 64 1 32 60
M  V30 65 1 33 61
M  V30 66 1 33 62
M  V30 END BOND
M  V30 END CTAB
M  END
>  <Dataset>  (940) 
ChEMBL_Kinases

>  <Ligand_Instance>  (940) 
nan

>  <PDB_ID>  (940) 
nan

>  <Standardized_SMILES>  (940) 
N#CCC(=O)N1CCN(c2cccc3c2ccn3-c2ccnc(NC3CCCCC3)n2)CC1

>  <Name>  (940) 
nan

>  <Pocket>  (940) 
nan

>  <ATP_Site>  (940) 
nan

>  <Peripheral>  (940) 
nan

>  <Num_H_Atoms_ProtBoundConf>  (940) 
nan

>  <Num_Resolved_Atoms>  (940) 
nan

>  <Num_Not_Resolved_Atoms>  (940) 
nan

$$$$
CHEMBL3674721
     RDKit          3D

  0  0  0  0  0  0  0  0  0  0999 V3000
M  V30 BEGIN CTAB
M  V30 COUNTS 91 96 0 0 0
M  V30 BEGIN ATOM
M  V30 1 C -3.939460 -3.067389 -0.333269 0
M  V30 2 C -3.296778 -2.785098 -1.698239 0
M  V30 3 C -2.057906 -3.613215 -1.789582 0
M  V30 4 C -4.336091 -3.212980 -2.715865 0
M  V30 5 N -3.011551 -1.381688 -1.717864 0
M  V30 6 C -2.385663 -0.916902 -2.941716 0
M  V30 7 C -2.334790 0.598162 -2.902891 0
M  V30 8 N -2.570117 1.095086 -1.565600 0
M  V30 9 C -1.513488 1.841057 -0.921643 0
M  V30 10 O -0.554684 1.896824 -1.731127 0
M  V30 11 C -1.608444 2.404492 0.440484 0 CFG=1
M  V30 12 C -0.324762 3.084755 0.783259 0
M  V30 13 C -0.470434 4.215842 1.737521 0
M  V30 14 C -1.629607 4.222416 2.653993 0 CFG=2
M  V30 15 N -1.437915 3.618618 3.950046 0
M  V30 16 C -0.970489 2.401611 4.471344 0
M  V30 17 N -0.861040 1.911588 5.741402 0
M  V30 18 C -0.338885 0.695438 5.947550 0
M  V30 19 C 0.118736 -0.140950 4.953103 0
M  V30 20 C 0.003070 0.365425 3.676788 0
M  V30 21 N 0.479728 -0.463363 2.612515 0
M  V30 22 C -0.067449 -1.224164 1.645008 0
M  V30 23 C 0.912083 -1.805306 0.881396 0
M  V30 24 C 2.086975 -1.370312 1.419348 0
M  V30 25 C 3.367519 -1.674043 1.005126 0
M  V30 26 N 3.774390 -2.502554 -0.071460 0
M  V30 27 C 3.524159 -3.892715 -0.313964 0
M  V30 28 C 3.918019 -4.213939 -1.746687 0
M  V30 29 C 3.147285 -3.217720 -2.589108 0
M  V30 30 S 3.003316 -3.702784 -4.279854 0
M  V30 31 C 2.206174 -2.345170 -5.133453 0
M  V30 32 O 2.125316 -4.890179 -4.378750 0
M  V30 33 O 4.367688 -3.900794 -4.878395 0
M  V30 34 C 3.920754 -1.909394 -2.459041 0
M  V30 35 C 4.582176 -1.866270 -1.112139 0
M  V30 36 C 4.466714 -1.147601 1.662136 0
M  V30 37 C 4.251879 -0.299742 2.755656 0
M  V30 38 C 2.955636 -0.025384 3.132086 0
M  V30 39 C 1.835251 -0.539943 2.490613 0
M  V30 40 N -0.525970 1.584083 3.520199 0
M  V30 41 C -2.888033 3.851329 1.955532 0
M  V30 42 C -2.692298 3.464709 0.503805 0
M  V30 43 C -3.893058 0.744617 -1.074825 0
M  V30 44 C -4.231949 -0.626915 -1.567094 0
M  V30 45 H -3.640735 -4.077751 0.030766 0
M  V30 46 H -5.048009 -3.072497 -0.394050 0
M  V30 47 H -3.660425 -2.285416 0.421147 0
M  V30 48 H -2.207253 -4.594737 -1.275430 0
M  V30 49 H -1.801768 -3.846634 -2.845603 0
M  V30 50 H -1.198623 -3.102304 -1.310188 0
M  V30 51 H -4.543696 -4.290859 -2.526303 0
M  V30 52 H -3.990342 -3.064648 -3.741678 0
M  V30 53 H -5.256167 -2.623336 -2.461908 0
M  V30 54 H -2.972350 -1.255764 -3.825770 0
M  V30 55 H -1.384890 -1.380018 -3.027425 0
M  V30 56 H -3.086527 1.007544 -3.629039 0
M  V30 57 H -1.354599 0.912709 -3.259074 0
M  V30 58 H -1.885611 1.562135 1.106310 0
M  V30 59 H 0.069981 3.489085 -0.206270 0
M  V30 60 H 0.447759 2.330927 1.053566 0
M  V30 61 H 0.510136 4.418854 2.284829 0
M  V30 62 H -0.548746 5.155469 1.101415 0
M  V30 63 H -1.763643 5.341333 2.920702 0
M  V30 64 H -1.691598 4.156260 4.841674 0
M  V30 65 H -0.344221 0.496833 7.021505 0
M  V30 66 H 0.516205 -1.096198 5.258358 0
M  V30 67 H -1.130253 -1.281771 1.587127 0
M  V30 68 H 0.766722 -2.450751 0.054351 0
M  V30 69 H 4.127674 -4.567319 0.318315 0
M  V30 70 H 2.438847 -4.122020 -0.277240 0
M  V30 71 H 4.999702 -4.132840 -1.928349 0
M  V30 72 H 3.565960 -5.266711 -1.957911 0
M  V30 73 H 2.134198 -3.029386 -2.175866 0
M  V30 74 H 1.201042 -2.180297 -4.649930 0
M  V30 75 H 2.803869 -1.428665 -4.866248 0
M  V30 76 H 2.144111 -2.498829 -6.216845 0
M  V30 77 H 3.330199 -1.029376 -2.715940 0
M  V30 78 H 4.741931 -1.968744 -3.204526 0
M  V30 79 H 5.590785 -2.364095 -1.106436 0
M  V30 80 H 4.804655 -0.807781 -0.869810 0
M  V30 81 H 5.513756 -1.315840 1.428426 0
M  V30 82 H 5.070587 0.141637 3.306870 0
M  V30 83 H 2.797988 0.619276 3.968557 0
M  V30 84 H -3.450171 3.018452 2.472836 0
M  V30 85 H -3.624091 4.689342 1.941402 0
M  V30 86 H -2.361064 4.320602 -0.101391 0
M  V30 87 H -3.616109 3.063701 0.063472 0
M  V30 88 H -3.906400 0.699291 0.034331 0
M  V30 89 H -4.597461 1.519797 -1.448494 0
M  V30 90 H -4.956957 -1.081589 -0.864549 0
M  V30 91 H -4.707480 -0.561619 -2.579818 0
M  V30 END ATOM
M  V30 BEGIN BOND
M  V30 1 1 1 2
M  V30 2 1 2 3
M  V30 3 1 2 4
M  V30 4 1 2 5
M  V30 5 1 5 6
M  V30 6 1 6 7
M  V30 7 1 7 8
M  V30 8 1 8 9
M  V30 9 2 9 10
M  V30 10 1 9 11
M  V30 11 1 11 12
M  V30 12 1 12 13
M  V30 13 1 13 14
M  V30 14 1 14 15
M  V30 15 1 15 16
M  V30 16 2 16 17
M  V30 17 1 17 18
M  V30 18 2 18 19
M  V30 19 1 19 20
M  V30 20 1 20 21
M  V30 21 1 21 22
M  V30 22 2 22 23
M  V30 23 1 23 24
M  V30 24 2 24 25
M  V30 25 1 25 26
M  V30 26 1 26 27
M  V30 27 1 27 28
M  V30 28 1 28 29
M  V30 29 1 29 30
M  V30 30 1 30 31
M  V30 31 2 30 32
M  V30 32 2 30 33
M  V30 33 1 29 34
M  V30 34 1 34 35
M  V30 35 1 25 36
M  V30 36 2 36 37
M  V30 37 1 37 38
M  V30 38 2 38 39
M  V30 39 2 20 40
M  V30 40 1 14 41
M  V30 41 1 41 42
M  V30 42 1 8 43
M  V30 43 1 43 44
M  V30 44 1 44 5
M  V30 45 1 42 11
M  V30 46 1 40 16
M  V30 47 1 39 21
M  V30 48 1 39 24
M  V30 49 1 35 26
M  V30 50 1 1 45
M  V30 51 1 1 46
M  V30 52 1 1 47
M  V30 53 1 3 48
M  V30 54 1 3 49
M  V30 55 1 3 50
M  V30 56 1 4 51
M  V30 57 1 4 52
M  V30 58 1 4 53
M  V30 59 1 6 54
M  V30 60 1 6 55
M  V30 61 1 7 56
M  V30 62 1 7 57
M  V30 63 1 11 58 CFG=1
M  V30 64 1 12 59
M  V30 65 1 12 60
M  V30 66 1 13 61
M  V30 67 1 13 62
M  V30 68 1 14 63 CFG=1
M  V30 69 1 15 64
M  V30 70 1 18 65
M  V30 71 1 19 66
M  V30 72 1 22 67
M  V30 73 1 23 68
M  V30 74 1 27 69
M  V30 75 1 27 70
M  V30 76 1 28 71
M  V30 77 1 28 72
M  V30 78 1 29 73
M  V30 79 1 31 74
M  V30 80 1 31 75
M  V30 81 1 31 76
M  V30 82 1 34 77
M  V30 83 1 34 78
M  V30 84 1 35 79
M  V30 85 1 35 80
M  V30 86 1 36 81
M  V30 87 1 37 82
M  V30 88 1 38 83
M  V30 89 1 41 84
M  V30 90 1 41 85
M  V30 91 1 42 86
M  V30 92 1 42 87
M  V30 93 1 43 88
M  V30 94 1 43 89
M  V30 95 1 44 90
M  V30 96 1 44 91
M  V30 END BOND
M  V30 END CTAB
M  END
>  <Dataset>  (941) 
ChEMBL_Kinases

>  <Ligand_Instance>  (941) 
nan

>  <PDB_ID>  (941) 
nan

>  <Standardized_SMILES>  (941) 
CC(C)(C)N1CCN(C(=O)[C@H]2CC[C@H](Nc3nccc(-n4ccc5c(N6CCC(S(C)(=O)=O)CC6)cccc54)n3)CC2)CC1

>  <Name>  (941) 
nan

>  <Pocket>  (941) 
nan

>  <ATP_Site>  (941) 
nan

>  <Peripheral>  (941) 
nan

>  <Num_H_Atoms_ProtBoundConf>  (941) 
nan

>  <Num_Resolved_Atoms>  (941) 
nan

>  <Num_Not_Resolved_Atoms>  (941) 
nan

$$$$
CHEMBL3674713
     RDKit          3D

  0  0  0  0  0  0  0  0  0  0999 V3000
M  V30 BEGIN CTAB
M  V30 COUNTS 73 77 0 0 0
M  V30 BEGIN ATOM
M  V30 1 C 2.153313 -1.029080 3.433274 0
M  V30 2 O 1.850881 -1.579448 2.189476 0
M  V30 3 C 2.558664 -2.775094 2.084264 0
M  V30 4 C 2.305010 -3.446977 0.751021 0
M  V30 5 O 2.696076 -2.631387 -0.287946 0
M  V30 6 C 2.451950 -3.242341 -1.509541 0 CFG=1
M  V30 7 C 1.389820 -2.483879 -2.281209 0
M  V30 8 C 1.999389 -1.435245 -3.180393 0
M  V30 9 C 3.363703 -1.076662 -2.686890 0 CFG=2
M  V30 10 N 3.803164 0.191356 -3.279802 0
M  V30 11 C 3.012886 1.333059 -2.923116 0
M  V30 12 N 3.298760 2.560073 -3.397368 0
M  V30 13 C 2.587371 3.654841 -3.081351 0
M  V30 14 C 1.502479 3.563166 -2.232910 0
M  V30 15 C 1.195035 2.313768 -1.738140 0
M  V30 16 N 0.148886 1.894067 -0.851412 0
M  V30 17 C 0.281250 1.842111 0.472532 0
M  V30 18 C -0.917428 1.394845 0.975343 0
M  V30 19 C -1.798551 1.170080 -0.057548 0
M  V30 20 C -3.097973 0.714889 -0.036664 0
M  V30 21 N -3.868838 0.413753 1.116766 0
M  V30 22 C -5.048952 -0.461042 1.029809 0
M  V30 23 C -4.695759 -1.721879 1.795510 0
M  V30 24 N -4.056757 -1.377100 3.032283 0
M  V30 25 C -4.289011 -2.250891 4.138999 0
M  V30 26 O -5.026318 -3.145964 3.656814 0
M  V30 27 C -3.869567 -2.279299 5.551419 0
M  V30 28 C -3.211497 -3.547721 5.899536 0
M  V30 29 N -2.675454 -4.537512 6.175520 0
M  V30 30 C -3.171121 -0.239059 3.318126 0
M  V30 31 C -3.680664 0.890943 2.475947 0
M  V30 32 C -3.660504 0.601495 -1.288312 0
M  V30 33 C -2.989922 0.913650 -2.443764 0
M  V30 34 C -1.679749 1.371080 -2.419327 0
M  V30 35 C -1.088134 1.494947 -1.181962 0
M  V30 36 N 1.951547 1.259376 -2.097029 0
M  V30 37 C 4.275170 -2.218584 -2.936866 0
M  V30 38 C 3.695108 -3.460415 -2.325555 0
M  V30 39 H 1.616022 -0.063871 3.595259 0
M  V30 40 H 3.271620 -0.841581 3.476354 0
M  V30 41 H 1.927008 -1.686999 4.284543 0
M  V30 42 H 3.637279 -2.591165 2.264063 0
M  V30 43 H 2.203384 -3.455413 2.877777 0
M  V30 44 H 2.897395 -4.388170 0.736499 0
M  V30 45 H 1.226202 -3.725513 0.725666 0
M  V30 46 H 2.006801 -4.234401 -1.294596 0
M  V30 47 H 0.761758 -1.958314 -1.521987 0
M  V30 48 H 0.709243 -3.183618 -2.798256 0
M  V30 49 H 1.323889 -0.612197 -3.391203 0
M  V30 50 H 2.149572 -1.954166 -4.175527 0
M  V30 51 H 3.281451 -0.823520 -1.586927 0
M  V30 52 H 4.610666 0.359686 -3.919637 0
M  V30 53 H 2.784392 4.656140 -3.441953 0
M  V30 54 H 0.825091 4.323622 -1.871861 0
M  V30 55 H 1.165370 2.102895 1.016021 0
M  V30 56 H -1.052268 1.258206 2.035621 0
M  V30 57 H -5.851936 0.072322 1.624068 0
M  V30 58 H -5.375710 -0.664893 0.014781 0
M  V30 59 H -3.999854 -2.310842 1.139643 0
M  V30 60 H -5.601624 -2.323370 2.013599 0
M  V30 61 H -3.283097 -1.393797 5.790345 0
M  V30 62 H -4.807748 -2.262092 6.183047 0
M  V30 63 H -2.149178 -0.581306 3.073593 0
M  V30 64 H -3.229361 0.044066 4.378961 0
M  V30 65 H -4.730438 1.091695 2.878689 0
M  V30 66 H -3.178304 1.846244 2.573648 0
M  V30 67 H -4.652813 0.276960 -1.529233 0
M  V30 68 H -3.387686 0.845321 -3.460779 0
M  V30 69 H -1.111384 1.627883 -3.290218 0
M  V30 70 H 4.303002 -2.374861 -4.054446 0
M  V30 71 H 5.296420 -2.042417 -2.539099 0
M  V30 72 H 3.517757 -4.262362 -3.077531 0
M  V30 73 H 4.443550 -3.913720 -1.625332 0
M  V30 END ATOM
M  V30 BEGIN BOND
M  V30 1 1 1 2
M  V30 2 1 2 3
M  V30 3 1 3 4
M  V30 4 1 4 5
M  V30 5 1 5 6
M  V30 6 1 6 7
M  V30 7 1 7 8
M  V30 8 1 8 9
M  V30 9 1 9 10
M  V30 10 1 10 11
M  V30 11 2 11 12
M  V30 12 1 12 13
M  V30 13 2 13 14
M  V30 14 1 14 15
M  V30 15 1 15 16
M  V30 16 1 16 17
M  V30 17 2 17 18
M  V30 18 1 18 19
M  V30 19 2 19 20
M  V30 20 1 20 21
M  V30 21 1 21 22
M  V30 22 1 22 23
M  V30 23 1 23 24
M  V30 24 1 24 25
M  V30 25 2 25 26
M  V30 26 1 25 27
M  V30 27 1 27 28
M  V30 28 3 28 29
M  V30 29 1 24 30
M  V30 30 1 30 31
M  V30 31 1 20 32
M  V30 32 2 32 33
M  V30 33 1 33 34
M  V30 34 2 34 35
M  V30 35 2 15 36
M  V30 36 1 9 37
M  V30 37 1 37 38
M  V30 38 1 38 6
M  V30 39 1 36 11
M  V30 40 1 35 16
M  V30 41 1 35 19
M  V30 42 1 31 21
M  V30 43 1 1 39
M  V30 44 1 1 40
M  V30 45 1 1 41
M  V30 46 1 3 42
M  V30 47 1 3 43
M  V30 48 1 4 44
M  V30 49 1 4 45
M  V30 50 1 6 46 CFG=1
M  V30 51 1 7 47
M  V30 52 1 7 48
M  V30 53 1 8 49
M  V30 54 1 8 50
M  V30 55 1 9 51 CFG=1
M  V30 56 1 10 52
M  V30 57 1 13 53
M  V30 58 1 14 54
M  V30 59 1 17 55
M  V30 60 1 18 56
M  V30 61 1 22 57
M  V30 62 1 22 58
M  V30 63 1 23 59
M  V30 64 1 23 60
M  V30 65 1 27 61
M  V30 66 1 27 62
M  V30 67 1 30 63
M  V30 68 1 30 64
M  V30 69 1 31 65
M  V30 70 1 31 66
M  V30 71 1 32 67
M  V30 72 1 33 68
M  V30 73 1 34 69
M  V30 74 1 37 70
M  V30 75 1 37 71
M  V30 76 1 38 72
M  V30 77 1 38 73
M  V30 END BOND
M  V30 END CTAB
M  END
>  <Dataset>  (942) 
ChEMBL_Kinases

>  <Ligand_Instance>  (942) 
nan

>  <PDB_ID>  (942) 
nan

>  <Standardized_SMILES>  (942) 
COCCO[C@H]1CC[C@H](Nc2nccc(-n3ccc4c(N5CCN(C(=O)CC#N)CC5)cccc43)n2)CC1

>  <Name>  (942) 
nan

>  <Pocket>  (942) 
nan

>  <ATP_Site>  (942) 
nan

>  <Peripheral>  (942) 
nan

>  <Num_H_Atoms_ProtBoundConf>  (942) 
nan

>  <Num_Resolved_Atoms>  (942) 
nan

>  <Num_Not_Resolved_Atoms>  (942) 
nan

$$$$
CHEMBL3674714
     RDKit          3D

  0  0  0  0  0  0  0  0  0  0999 V3000
M  V30 BEGIN CTAB
M  V30 COUNTS 70 74 0 0 0
M  V30 BEGIN ATOM
M  V30 1 C 2.029489 0.307190 5.022790 0
M  V30 2 C 3.055107 0.042069 4.001579 0
M  V30 3 O 3.168267 -1.207195 3.774687 0
M  V30 4 N 3.851151 1.002902 3.318072 0
M  V30 5 C 3.789363 2.428837 3.511116 0
M  V30 6 C 3.835357 3.209325 2.214365 0
M  V30 7 N 3.819819 2.344698 1.073039 0
M  V30 8 C 2.908265 2.272035 -0.021922 0
M  V30 9 C 3.487173 2.484155 -1.258276 0
M  V30 10 C 2.660711 2.427962 -2.368371 0
M  V30 11 C 1.318313 2.167453 -2.198620 0
M  V30 12 C 0.734415 1.955064 -0.970122 0
M  V30 13 C 1.560470 2.011739 0.133465 0
M  V30 14 C 0.804159 1.777115 1.255730 0
M  V30 15 C -0.476671 1.580367 0.815350 0
M  V30 16 N -0.514712 1.688591 -0.529311 0
M  V30 17 C -1.593982 1.570908 -1.464075 0
M  V30 18 C -1.857182 2.514248 -2.433412 0
M  V30 19 C -2.920399 2.270629 -3.257417 0
M  V30 20 N -3.663633 1.176338 -3.128976 0
M  V30 21 C -3.429812 0.240066 -2.192983 0
M  V30 22 N -4.189084 -0.952989 -1.999417 0
M  V30 23 C -3.943072 -1.972175 -0.998363 0 CFG=1
M  V30 24 C -5.012132 -3.010125 -1.138915 0
M  V30 25 C -4.654679 -4.329816 -0.490683 0
M  V30 26 C -3.370668 -4.892524 -1.060211 0 CFG=2
M  V30 27 C -2.783423 -5.990243 -0.269346 0
M  V30 28 S -2.316373 -5.773262 1.363781 0
M  V30 29 C -1.071584 -4.535754 1.599342 0
M  V30 30 O -1.687179 -7.073819 1.853615 0
M  V30 31 O -3.401265 -5.484371 2.341962 0
M  V30 32 C -2.427226 -3.848749 -1.580053 0
M  V30 33 C -2.557667 -2.490062 -0.992473 0
M  V30 34 N -2.375087 0.482521 -1.376065 0
M  V30 35 C 4.955334 1.449747 1.154213 0
M  V30 36 C 4.807722 0.524814 2.345356 0
M  V30 37 H 2.233553 -0.344343 5.910046 0
M  V30 38 H 1.004520 0.001580 4.686148 0
M  V30 39 H 1.983212 1.366836 5.328267 0
M  V30 40 H 4.661143 2.671352 4.182426 0
M  V30 41 H 2.894085 2.726491 4.113367 0
M  V30 42 H 4.801726 3.772969 2.201540 0
M  V30 43 H 3.032836 3.989853 2.182171 0
M  V30 44 H 4.550560 2.690060 -1.388117 0
M  V30 45 H 3.076674 2.590191 -3.372248 0
M  V30 46 H 0.728743 2.135968 -3.089234 0
M  V30 47 H 1.161734 1.756759 2.258529 0
M  V30 48 H -1.375989 1.366082 1.394845 0
M  V30 49 H -1.232011 3.392066 -2.509074 0
M  V30 50 H -3.186881 2.967202 -4.041838 0
M  V30 51 H -4.987451 -1.030160 -2.686558 0
M  V30 52 H -4.101134 -1.447792 -0.011105 0
M  V30 53 H -5.922017 -2.635205 -0.616813 0
M  V30 54 H -5.294393 -3.145718 -2.203583 0
M  V30 55 H -4.638757 -4.200853 0.611038 0
M  V30 56 H -5.525670 -4.996140 -0.686131 0
M  V30 57 H -3.733000 -5.417716 -2.013198 0
M  V30 58 H -1.862693 -6.318370 -0.844595 0
M  V30 59 H -3.448154 -6.902080 -0.376347 0
M  V30 60 H -1.529351 -3.572364 1.971596 0
M  V30 61 H -0.482781 -4.325945 0.693482 0
M  V30 62 H -0.372831 -4.810924 2.437173 0
M  V30 63 H -2.589360 -3.711178 -2.693760 0
M  V30 64 H -1.394783 -4.245103 -1.503897 0
M  V30 65 H -1.961170 -1.818005 -1.685173 0
M  V30 66 H -2.023543 -2.357504 -0.024505 0
M  V30 67 H 5.892638 2.034657 1.212561 0
M  V30 68 H 5.030438 0.818697 0.249264 0
M  V30 69 H 5.814082 0.492189 2.853452 0
M  V30 70 H 4.538514 -0.495561 2.029325 0
M  V30 END ATOM
M  V30 BEGIN BOND
M  V30 1 1 1 2
M  V30 2 2 2 3
M  V30 3 1 2 4
M  V30 4 1 4 5
M  V30 5 1 5 6
M  V30 6 1 6 7
M  V30 7 1 7 8
M  V30 8 2 8 9
M  V30 9 1 9 10
M  V30 10 2 10 11
M  V30 11 1 11 12
M  V30 12 2 12 13
M  V30 13 1 13 14
M  V30 14 2 14 15
M  V30 15 1 15 16
M  V30 16 1 16 17
M  V30 17 2 17 18
M  V30 18 1 18 19
M  V30 19 2 19 20
M  V30 20 1 20 21
M  V30 21 1 21 22
M  V30 22 1 22 23
M  V30 23 1 23 24
M  V30 24 1 24 25
M  V30 25 1 25 26
M  V30 26 1 26 27
M  V30 27 1 27 28
M  V30 28 1 28 29
M  V30 29 2 28 30
M  V30 30 2 28 31
M  V30 31 1 26 32
M  V30 32 1 32 33
M  V30 33 2 21 34
M  V30 34 1 7 35
M  V30 35 1 35 36
M  V30 36 1 36 4
M  V30 37 1 13 8
M  V30 38 1 34 17
M  V30 39 1 16 12
M  V30 40 1 33 23
M  V30 41 1 1 37
M  V30 42 1 1 38
M  V30 43 1 1 39
M  V30 44 1 5 40
M  V30 45 1 5 41
M  V30 46 1 6 42
M  V30 47 1 6 43
M  V30 48 1 9 44
M  V30 49 1 10 45
M  V30 50 1 11 46
M  V30 51 1 14 47
M  V30 52 1 15 48
M  V30 53 1 18 49
M  V30 54 1 19 50
M  V30 55 1 22 51
M  V30 56 1 23 52 CFG=1
M  V30 57 1 24 53
M  V30 58 1 24 54
M  V30 59 1 25 55
M  V30 60 1 25 56
M  V30 61 1 26 57 CFG=3
M  V30 62 1 27 58
M  V30 63 1 27 59
M  V30 64 1 29 60
M  V30 65 1 29 61
M  V30 66 1 29 62
M  V30 67 1 32 63
M  V30 68 1 32 64
M  V30 69 1 33 65
M  V30 70 1 33 66
M  V30 71 1 35 67
M  V30 72 1 35 68
M  V30 73 1 36 69
M  V30 74 1 36 70
M  V30 END BOND
M  V30 END CTAB
M  END
>  <Dataset>  (943) 
ChEMBL_Kinases

>  <Ligand_Instance>  (943) 
nan

>  <PDB_ID>  (943) 
nan

>  <Standardized_SMILES>  (943) 
CC(=O)N1CCN(c2cccc3c2ccn3-c2ccnc(N[C@H]3CC[C@H](CS(C)(=O)=O)CC3)n2)CC1

>  <Name>  (943) 
nan

>  <Pocket>  (943) 
nan

>  <ATP_Site>  (943) 
nan

>  <Peripheral>  (943) 
nan

>  <Num_H_Atoms_ProtBoundConf>  (943) 
nan

>  <Num_Resolved_Atoms>  (943) 
nan

>  <Num_Not_Resolved_Atoms>  (943) 
nan

$$$$
CHEMBL3674715
     RDKit          3D

  0  0  0  0  0  0  0  0  0  0999 V3000
M  V30 BEGIN CTAB
M  V30 COUNTS 71 75 0 0 0
M  V30 BEGIN ATOM
M  V30 1 C 6.253168 -1.700698 1.252911 0
M  V30 2 S 6.859647 -2.905263 0.141647 0
M  V30 3 O 7.728136 -3.919771 0.859176 0
M  V30 4 O 7.829876 -2.179042 -0.796197 0
M  V30 5 C 5.679606 -3.689499 -0.889894 0
M  V30 6 C 4.989461 -2.722547 -1.782541 0 CFG=1
M  V30 7 C 3.997942 -3.436756 -2.708980 0
M  V30 8 C 3.474646 -2.325935 -3.626267 0
M  V30 9 C 2.490048 -1.465034 -2.856273 0 CFG=2
M  V30 10 N 2.632894 -0.058819 -3.126531 0
M  V30 11 C 1.819883 0.991554 -2.583498 0
M  V30 12 N 2.061610 2.286078 -2.919462 0
M  V30 13 C 1.306788 3.282206 -2.425046 0
M  V30 14 C 0.271352 2.997423 -1.564747 0
M  V30 15 C 0.007475 1.695126 -1.209740 0
M  V30 16 N -1.002998 1.200537 -0.345296 0
M  V30 17 C -1.771383 0.101661 -0.624997 0
M  V30 18 C -2.641192 -0.080143 0.435502 0
M  V30 19 C -2.357707 0.925367 1.317599 0
M  V30 20 C -2.984212 1.138290 2.524490 0
M  V30 21 N -4.017037 0.426754 3.159027 0
M  V30 22 C -3.921106 -0.950188 3.587910 0
M  V30 23 C -4.998432 -1.748641 2.928745 0
M  V30 24 N -6.121024 -0.941206 2.500849 0
M  V30 25 C -7.039482 -1.460873 1.517356 0
M  V30 26 O -8.055062 -0.814684 1.086195 0
M  V30 27 C -7.032224 -2.770552 0.819509 0
M  V30 28 C -8.108836 -3.640236 1.296701 0
M  V30 29 N -8.955894 -4.306650 1.673853 0
M  V30 30 C -6.436817 0.387479 2.977245 0
M  V30 31 C -5.222316 1.164088 3.377437 0
M  V30 32 C -2.560008 2.218201 3.288723 0
M  V30 33 C -1.532589 3.051980 2.837944 0
M  V30 34 C -0.947985 2.775677 1.611925 0
M  V30 35 C -1.344611 1.715956 0.832708 0
M  V30 36 N 0.801847 0.743846 -1.740903 0
M  V30 37 C 2.695971 -1.725366 -1.402219 0
M  V30 38 C 4.156975 -1.762625 -0.983863 0
M  V30 39 H 5.504631 -2.066344 1.986837 0
M  V30 40 H 5.986867 -0.732718 0.806289 0
M  V30 41 H 7.138946 -1.438114 1.933743 0
M  V30 42 H 6.186201 -4.515335 -1.452638 0
M  V30 43 H 4.927863 -4.223751 -0.233192 0
M  V30 44 H 5.727691 -2.236298 -2.440619 0
M  V30 45 H 3.209161 -3.952540 -2.168955 0
M  V30 46 H 4.539892 -4.153390 -3.372964 0
M  V30 47 H 3.059611 -2.754553 -4.541553 0
M  V30 48 H 4.363579 -1.706991 -3.888647 0
M  V30 49 H 1.469995 -1.801860 -3.124570 0
M  V30 50 H 3.393682 0.194526 -3.771179 0
M  V30 51 H 1.503605 4.311274 -2.695647 0
M  V30 52 H -0.387077 3.726935 -1.118581 0
M  V30 53 H -1.729015 -0.531851 -1.510797 0
M  V30 54 H -3.368307 -0.860682 0.506099 0
M  V30 55 H -4.084781 -1.016454 4.700878 0
M  V30 56 H -2.947277 -1.404872 3.305733 0
M  V30 57 H -4.593474 -2.245302 2.000904 0
M  V30 58 H -5.328845 -2.539161 3.638489 0
M  V30 59 H -6.040548 -3.233179 0.997050 0
M  V30 60 H -7.130137 -2.659425 -0.280674 0
M  V30 61 H -7.196786 0.279161 3.805787 0
M  V30 62 H -6.956887 0.970966 2.201710 0
M  V30 63 H -5.231526 2.187927 2.981010 0
M  V30 64 H -5.298621 1.297740 4.497637 0
M  V30 65 H -2.956465 2.514410 4.260681 0
M  V30 66 H -1.182674 3.893991 3.405423 0
M  V30 67 H -0.152019 3.407151 1.245588 0
M  V30 68 H 2.234607 -0.894000 -0.821892 0
M  V30 69 H 2.201060 -2.641386 -1.019144 0
M  V30 70 H 4.628166 -0.769002 -1.092350 0
M  V30 71 H 4.139743 -2.033997 0.088149 0
M  V30 END ATOM
M  V30 BEGIN BOND
M  V30 1 1 1 2
M  V30 2 2 2 3
M  V30 3 2 2 4
M  V30 4 1 2 5
M  V30 5 1 5 6
M  V30 6 1 6 7
M  V30 7 1 7 8
M  V30 8 1 8 9
M  V30 9 1 9 10
M  V30 10 1 10 11
M  V30 11 2 11 12
M  V30 12 1 12 13
M  V30 13 2 13 14
M  V30 14 1 14 15
M  V30 15 1 15 16
M  V30 16 1 16 17
M  V30 17 2 17 18
M  V30 18 1 18 19
M  V30 19 2 19 20
M  V30 20 1 20 21
M  V30 21 1 21 22
M  V30 22 1 22 23
M  V30 23 1 23 24
M  V30 24 1 24 25
M  V30 25 2 25 26
M  V30 26 1 25 27
M  V30 27 1 27 28
M  V30 28 3 28 29
M  V30 29 1 24 30
M  V30 30 1 30 31
M  V30 31 1 20 32
M  V30 32 2 32 33
M  V30 33 1 33 34
M  V30 34 2 34 35
M  V30 35 2 15 36
M  V30 36 1 9 37
M  V30 37 1 37 38
M  V30 38 1 38 6
M  V30 39 1 36 11
M  V30 40 1 35 16
M  V30 41 1 35 19
M  V30 42 1 31 21
M  V30 43 1 1 39
M  V30 44 1 1 40
M  V30 45 1 1 41
M  V30 46 1 5 42
M  V30 47 1 5 43
M  V30 48 1 6 44 CFG=3
M  V30 49 1 7 45
M  V30 50 1 7 46
M  V30 51 1 8 47
M  V30 52 1 8 48
M  V30 53 1 9 49 CFG=3
M  V30 54 1 10 50
M  V30 55 1 13 51
M  V30 56 1 14 52
M  V30 57 1 17 53
M  V30 58 1 18 54
M  V30 59 1 22 55
M  V30 60 1 22 56
M  V30 61 1 23 57
M  V30 62 1 23 58
M  V30 63 1 27 59
M  V30 64 1 27 60
M  V30 65 1 30 61
M  V30 66 1 30 62
M  V30 67 1 31 63
M  V30 68 1 31 64
M  V30 69 1 32 65
M  V30 70 1 33 66
M  V30 71 1 34 67
M  V30 72 1 37 68
M  V30 73 1 37 69
M  V30 74 1 38 70
M  V30 75 1 38 71
M  V30 END BOND
M  V30 END CTAB
M  END
>  <Dataset>  (944) 
ChEMBL_Kinases

>  <Ligand_Instance>  (944) 
nan

>  <PDB_ID>  (944) 
nan

>  <Standardized_SMILES>  (944) 
CS(=O)(=O)C[C@H]1CC[C@H](Nc2nccc(-n3ccc4c(N5CCN(C(=O)CC#N)CC5)cccc43)n2)CC1

>  <Name>  (944) 
nan

>  <Pocket>  (944) 
nan

>  <ATP_Site>  (944) 
nan

>  <Peripheral>  (944) 
nan

>  <Num_H_Atoms_ProtBoundConf>  (944) 
nan

>  <Num_Resolved_Atoms>  (944) 
nan

>  <Num_Not_Resolved_Atoms>  (944) 
nan

$$$$
CHEMBL3674716
     RDKit          3D

  0  0  0  0  0  0  0  0  0  0999 V3000
M  V30 BEGIN CTAB
M  V30 COUNTS 71 75 0 0 0
M  V30 BEGIN ATOM
M  V30 1 C 4.871476 -0.540968 4.095383 0
M  V30 2 C 4.892801 0.452371 2.991044 0
M  V30 3 O 5.554444 0.188905 1.954141 0
M  V30 4 N 4.283101 1.710069 2.861681 0
M  V30 5 C 4.571757 2.367189 1.584296 0
M  V30 6 C 3.440265 3.321562 1.258399 0
M  V30 7 N 2.142863 2.761351 1.588857 0
M  V30 8 C 1.191707 2.473670 0.613927 0
M  V30 9 C 1.522800 2.441490 -0.727591 0
M  V30 10 C 0.631397 2.137204 -1.737056 0
M  V30 11 C -0.671944 1.842121 -1.441845 0
M  V30 12 C -1.070635 1.856253 -0.122226 0
M  V30 13 C -0.133636 2.167893 0.840386 0
M  V30 14 C -0.856398 2.098381 2.013744 0
M  V30 15 C -2.172323 1.759457 1.780208 0
M  V30 16 N -2.265147 1.618038 0.445997 0
M  V30 17 C -3.475632 1.264089 -0.238821 0
M  V30 18 C -4.540593 2.089899 -0.532898 0
M  V30 19 C -5.608140 1.535971 -1.202526 0
M  V30 20 N -5.644827 0.245190 -1.570541 0
M  V30 21 C -4.603908 -0.556530 -1.281622 0
M  V30 22 N -4.531200 -1.956894 -1.626152 0
M  V30 23 C -3.411936 -2.830552 -1.318555 0 CFG=1
M  V30 24 C -3.738592 -4.202906 -1.849728 0
M  V30 25 C -2.642134 -5.120868 -1.397152 0
M  V30 26 C -1.270974 -4.674304 -1.717145 0 CFG=2
M  V30 27 C -0.335887 -4.801695 -0.512863 0
M  V30 28 C -0.230855 -6.216069 -0.027344 0
M  V30 29 C -0.746279 -3.920857 0.619077 0
M  V30 30 O 0.957922 -4.407404 -0.882370 0
M  V30 31 C -1.144520 -3.322953 -2.333013 0
M  V30 32 C -2.216340 -2.335254 -2.054631 0
M  V30 33 N -3.544151 -0.036608 -0.625010 0
M  V30 34 C 2.048929 2.553227 2.994798 0
M  V30 35 C 3.412876 2.541528 3.707161 0
M  V30 36 H 4.852596 -1.575747 3.666182 0
M  V30 37 H 5.807293 -0.508231 4.695745 0
M  V30 38 H 4.048142 -0.370000 4.810187 0
M  V30 39 H 5.472617 2.991565 1.761971 0
M  V30 40 H 4.797077 1.676472 0.773245 0
M  V30 41 H 3.550649 4.270589 1.842315 0
M  V30 42 H 3.575489 3.607258 0.207160 0
M  V30 43 H 2.502435 2.643116 -1.137381 0
M  V30 44 H 0.864115 2.105110 -2.792094 0
M  V30 45 H -1.401313 1.598644 -2.198294 0
M  V30 46 H -0.518734 2.275976 3.022032 0
M  V30 47 H -2.972463 1.630046 2.498197 0
M  V30 48 H -4.433432 3.102051 -0.206198 0
M  V30 49 H -6.438804 2.188232 -1.429711 0
M  V30 50 H -5.393083 -2.308973 -2.141083 0
M  V30 51 H -3.330851 -2.811419 -0.214090 0
M  V30 52 H -3.855835 -4.122883 -2.928776 0
M  V30 53 H -4.682194 -4.546287 -1.377086 0
M  V30 54 H -2.892154 -6.136312 -1.821993 0
M  V30 55 H -2.735786 -5.258131 -0.300054 0
M  V30 56 H -0.839140 -5.408096 -2.434161 0
M  V30 57 H -0.320128 -6.973042 -0.833992 0
M  V30 58 H 0.786554 -6.364483 0.436360 0
M  V30 59 H -0.939267 -6.416845 0.826198 0
M  V30 60 H -0.989858 -2.885542 0.307710 0
M  V30 61 H -1.594932 -4.394690 1.153579 0
M  V30 62 H 0.065415 -3.839241 1.343739 0
M  V30 63 H 1.242485 -4.774538 -1.740540 0
M  V30 64 H -0.174101 -2.891297 -2.004181 0
M  V30 65 H -1.018051 -3.405044 -3.453020 0
M  V30 66 H -2.575427 -1.843060 -2.991565 0
M  V30 67 H -1.826913 -1.461958 -1.452019 0
M  V30 68 H 1.671688 1.523358 3.254523 0
M  V30 69 H 1.523882 3.367624 3.529648 0
M  V30 70 H 3.289903 2.122305 4.704778 0
M  V30 71 H 3.853112 3.562043 3.742256 0
M  V30 END ATOM
M  V30 BEGIN BOND
M  V30 1 1 1 2
M  V30 2 2 2 3
M  V30 3 1 2 4
M  V30 4 1 4 5
M  V30 5 1 5 6
M  V30 6 1 6 7
M  V30 7 1 7 8
M  V30 8 2 8 9
M  V30 9 1 9 10
M  V30 10 2 10 11
M  V30 11 1 11 12
M  V30 12 2 12 13
M  V30 13 1 13 14
M  V30 14 2 14 15
M  V30 15 1 15 16
M  V30 16 1 16 17
M  V30 17 2 17 18
M  V30 18 1 18 19
M  V30 19 2 19 20
M  V30 20 1 20 21
M  V30 21 1 21 22
M  V30 22 1 22 23
M  V30 23 1 23 24
M  V30 24 1 24 25
M  V30 25 1 25 26
M  V30 26 1 26 27
M  V30 27 1 27 28
M  V30 28 1 27 29
M  V30 29 1 27 30
M  V30 30 1 26 31
M  V30 31 1 31 32
M  V30 32 2 21 33
M  V30 33 1 7 34
M  V30 34 1 34 35
M  V30 35 1 35 4
M  V30 36 1 13 8
M  V30 37 1 33 17
M  V30 38 1 16 12
M  V30 39 1 32 23
M  V30 40 1 1 36
M  V30 41 1 1 37
M  V30 42 1 1 38
M  V30 43 1 5 39
M  V30 44 1 5 40
M  V30 45 1 6 41
M  V30 46 1 6 42
M  V30 47 1 9 43
M  V30 48 1 10 44
M  V30 49 1 11 45
M  V30 50 1 14 46
M  V30 51 1 15 47
M  V30 52 1 18 48
M  V30 53 1 19 49
M  V30 54 1 22 50
M  V30 55 1 23 51 CFG=1
M  V30 56 1 24 52
M  V30 57 1 24 53
M  V30 58 1 25 54
M  V30 59 1 25 55
M  V30 60 1 26 56 CFG=3
M  V30 61 1 28 57
M  V30 62 1 28 58
M  V30 63 1 28 59
M  V30 64 1 29 60
M  V30 65 1 29 61
M  V30 66 1 29 62
M  V30 67 1 30 63
M  V30 68 1 31 64
M  V30 69 1 31 65
M  V30 70 1 32 66
M  V30 71 1 32 67
M  V30 72 1 34 68
M  V30 73 1 34 69
M  V30 74 1 35 70
M  V30 75 1 35 71
M  V30 END BOND
M  V30 END CTAB
M  END
>  <Dataset>  (945) 
ChEMBL_Kinases

>  <Ligand_Instance>  (945) 
nan

>  <PDB_ID>  (945) 
nan

>  <Standardized_SMILES>  (945) 
CC(=O)N1CCN(c2cccc3c2ccn3-c2ccnc(N[C@H]3CC[C@H](C(C)(C)O)CC3)n2)CC1

>  <Name>  (945) 
nan

>  <Pocket>  (945) 
nan

>  <ATP_Site>  (945) 
nan

>  <Peripheral>  (945) 
nan

>  <Num_H_Atoms_ProtBoundConf>  (945) 
nan

>  <Num_Resolved_Atoms>  (945) 
nan

>  <Num_Not_Resolved_Atoms>  (945) 
nan

$$$$
CHEMBL3674717
     RDKit          3D

  0  0  0  0  0  0  0  0  0  0999 V3000
M  V30 BEGIN CTAB
M  V30 COUNTS 77 81 0 0 0
M  V30 BEGIN ATOM
M  V30 1 C 7.503647 -4.541043 4.243959 0
M  V30 2 S 7.693063 -3.619424 2.765837 0
M  V30 3 O 8.487632 -4.496786 1.804467 0
M  V30 4 O 8.534451 -2.389860 2.952481 0
M  V30 5 N 6.167259 -3.274357 2.080668 0
M  V30 6 C 5.479861 -4.454194 1.735857 0
M  V30 7 C 4.459345 -4.929773 2.756241 0
M  V30 8 O 3.828847 -6.102996 2.328513 0
M  V30 9 C 6.258679 -2.221732 1.131909 0 CFG=1
M  V30 10 C 5.933275 -2.525111 -0.277833 0
M  V30 11 C 4.520404 -2.384120 -0.710445 0
M  V30 12 C 3.668134 -1.754413 0.372895 0 CFG=2
M  V30 13 N 2.401160 -1.430016 -0.250784 0
M  V30 14 C 1.391949 -0.818907 0.554695 0
M  V30 15 N 1.593909 -0.545427 1.855836 0
M  V30 16 C 0.685151 0.027616 2.664889 0
M  V30 17 C -0.523927 0.340492 2.080207 0
M  V30 18 C -0.786850 0.083091 0.750367 0
M  V30 19 N -2.061837 0.430569 0.199894 0
M  V30 20 C -2.956477 1.253259 0.773012 0
M  V30 21 C -4.074288 1.358374 -0.038959 0
M  V30 22 C -3.802946 0.567590 -1.109041 0
M  V30 23 C -4.600019 0.326828 -2.209297 0
M  V30 24 N -5.887720 0.848356 -2.482189 0
M  V30 25 C -6.907314 0.561193 -1.534450 0
M  V30 26 C -7.734867 1.793072 -1.298846 0
M  V30 27 N -7.005765 3.018248 -1.637844 0
M  V30 28 C -6.486285 4.144974 -0.929533 0
M  V30 29 O -5.890676 5.046364 -1.605256 0
M  V30 30 C -6.404897 4.650020 0.436429 0
M  V30 31 C -7.076791 3.775914 1.405620 0
M  V30 32 N -7.600818 3.094290 2.188579 0
M  V30 33 C -6.805854 2.987424 -3.082756 0
M  V30 34 C -6.368221 1.646369 -3.591870 0
M  V30 35 C -4.125056 -0.530660 -3.208829 0
M  V30 36 C -2.874875 -1.093759 -3.038465 0
M  V30 37 C -2.061997 -0.861052 -1.937454 0
M  V30 38 C -2.563192 -0.012257 -0.975621 0
M  V30 39 N 0.183605 -0.486732 0.042260 0
M  V30 40 C 4.446663 -0.493764 0.773992 0
M  V30 41 C 5.561291 -1.003955 1.659854 0
M  V30 42 H 8.439459 -4.573721 4.854346 0
M  V30 43 H 7.201217 -5.583476 4.012762 0
M  V30 44 H 6.679724 -4.101852 4.861255 0
M  V30 45 H 6.208176 -5.324909 1.669427 0
M  V30 46 H 5.023033 -4.469102 0.702913 0
M  V30 47 H 4.890161 -5.168048 3.738658 0
M  V30 48 H 3.655581 -4.172165 2.832330 0
M  V30 49 H 3.456934 -5.929866 1.405638 0
M  V30 50 H 7.364745 -1.930338 1.128872 0
M  V30 51 H 6.558795 -1.840615 -0.933259 0
M  V30 52 H 6.279257 -3.535998 -0.571518 0
M  V30 53 H 4.049455 -3.307137 -1.123655 0
M  V30 54 H 4.430030 -1.654909 -1.576679 0
M  V30 55 H 3.553078 -2.351440 1.274002 0
M  V30 56 H 2.172319 -1.612437 -1.252896 0
M  V30 57 H 0.883567 0.232757 3.708664 0
M  V30 58 H -1.272310 0.800392 2.701200 0
M  V30 59 H -2.805331 1.753371 1.734670 0
M  V30 60 H -4.951674 1.939339 0.149796 0
M  V30 61 H -7.588585 -0.208444 -1.987386 0
M  V30 62 H -6.546350 0.096641 -0.596988 0
M  V30 63 H -8.037696 1.851238 -0.235659 0
M  V30 64 H -8.680449 1.820924 -1.892202 0
M  V30 65 H -6.901120 5.640668 0.553001 0
M  V30 66 H -5.346276 4.834337 0.740771 0
M  V30 67 H -7.791014 3.243848 -3.525370 0
M  V30 68 H -6.080459 3.770422 -3.389420 0
M  V30 69 H -7.239871 1.134229 -4.095665 0
M  V30 70 H -5.595432 1.792526 -4.376059 0
M  V30 71 H -4.674013 -0.785177 -4.113037 0
M  V30 72 H -2.492299 -1.758668 -3.801123 0
M  V30 73 H -1.102769 -1.318355 -1.848196 0
M  V30 74 H 4.838975 -0.002147 -0.136625 0
M  V30 75 H 3.787287 0.194661 1.314796 0
M  V30 76 H 6.244824 -0.160471 1.890446 0
M  V30 77 H 5.053116 -1.212773 2.648875 0
M  V30 END ATOM
M  V30 BEGIN BOND
M  V30 1 1 1 2
M  V30 2 2 2 3
M  V30 3 2 2 4
M  V30 4 1 2 5
M  V30 5 1 5 6
M  V30 6 1 6 7
M  V30 7 1 7 8
M  V30 8 1 5 9
M  V30 9 1 9 10
M  V30 10 1 10 11
M  V30 11 1 11 12
M  V30 12 1 12 13
M  V30 13 1 13 14
M  V30 14 2 14 15
M  V30 15 1 15 16
M  V30 16 2 16 17
M  V30 17 1 17 18
M  V30 18 1 18 19
M  V30 19 1 19 20
M  V30 20 2 20 21
M  V30 21 1 21 22
M  V30 22 2 22 23
M  V30 23 1 23 24
M  V30 24 1 24 25
M  V30 25 1 25 26
M  V30 26 1 26 27
M  V30 27 1 27 28
M  V30 28 2 28 29
M  V30 29 1 28 30
M  V30 30 1 30 31
M  V30 31 3 31 32
M  V30 32 1 27 33
M  V30 33 1 33 34
M  V30 34 1 23 35
M  V30 35 2 35 36
M  V30 36 1 36 37
M  V30 37 2 37 38
M  V30 38 2 18 39
M  V30 39 1 12 40
M  V30 40 1 40 41
M  V30 41 1 41 9
M  V30 42 1 39 14
M  V30 43 1 38 19
M  V30 44 1 38 22
M  V30 45 1 34 24
M  V30 46 1 1 42
M  V30 47 1 1 43
M  V30 48 1 1 44
M  V30 49 1 6 45
M  V30 50 1 6 46
M  V30 51 1 7 47
M  V30 52 1 7 48
M  V30 53 1 8 49
M  V30 54 1 9 50 CFG=3
M  V30 55 1 10 51
M  V30 56 1 10 52
M  V30 57 1 11 53
M  V30 58 1 11 54
M  V30 59 1 12 55 CFG=1
M  V30 60 1 13 56
M  V30 61 1 16 57
M  V30 62 1 17 58
M  V30 63 1 20 59
M  V30 64 1 21 60
M  V30 65 1 25 61
M  V30 66 1 25 62
M  V30 67 1 26 63
M  V30 68 1 26 64
M  V30 69 1 30 65
M  V30 70 1 30 66
M  V30 71 1 33 67
M  V30 72 1 33 68
M  V30 73 1 34 69
M  V30 74 1 34 70
M  V30 75 1 35 71
M  V30 76 1 36 72
M  V30 77 1 37 73
M  V30 78 1 40 74
M  V30 79 1 40 75
M  V30 80 1 41 76
M  V30 81 1 41 77
M  V30 END BOND
M  V30 END CTAB
M  END
>  <Dataset>  (946) 
ChEMBL_Kinases

>  <Ligand_Instance>  (946) 
nan

>  <PDB_ID>  (946) 
nan

>  <Standardized_SMILES>  (946) 
CS(=O)(=O)N(CCO)[C@H]1CC[C@H](Nc2nccc(-n3ccc4c(N5CCN(C(=O)CC#N)CC5)cccc43)n2)CC1

>  <Name>  (946) 
nan

>  <Pocket>  (946) 
nan

>  <ATP_Site>  (946) 
nan

>  <Peripheral>  (946) 
nan

>  <Num_H_Atoms_ProtBoundConf>  (946) 
nan

>  <Num_Resolved_Atoms>  (946) 
nan

>  <Num_Not_Resolved_Atoms>  (946) 
nan

$$$$
CHEMBL3674718
     RDKit          3D

  0  0  0  0  0  0  0  0  0  0999 V3000
M  V30 BEGIN CTAB
M  V30 COUNTS 72 76 0 0 0
M  V30 BEGIN ATOM
M  V30 1 C 2.814993 -0.320056 1.549410 0
M  V30 2 C 3.544593 -1.584023 1.313301 0
M  V30 3 C 2.819629 -2.707766 2.030538 0
M  V30 4 O 4.780066 -1.468866 1.995277 0
M  V30 5 C 3.894405 -1.933991 -0.095498 0 CFG=1
M  V30 6 C 2.746226 -2.083715 -1.038472 0
M  V30 7 C 2.290056 -0.817673 -1.685458 0
M  V30 8 C 3.338375 0.226680 -1.842033 0 CFG=2
M  V30 9 N 3.159602 1.080980 -3.007834 0
M  V30 10 C 1.943551 1.827146 -3.044416 0
M  V30 11 N 1.668286 2.650387 -4.071527 0
M  V30 12 C 0.533862 3.372971 -4.147020 0
M  V30 13 C -0.412120 3.291617 -3.145155 0
M  V30 14 C -0.135424 2.459412 -2.105649 0
M  V30 15 N -0.912537 2.164492 -0.931046 0
M  V30 16 C -1.023658 2.767400 0.263680 0
M  V30 17 C -1.914970 2.071393 1.055426 0
M  V30 18 C -2.321087 1.026369 0.259624 0
M  V30 19 C -3.211296 0.012925 0.546910 0
M  V30 20 N -3.916073 -0.169259 1.767877 0
M  V30 21 C -3.156621 -0.354923 3.006670 0
M  V30 22 C -3.294540 -1.817969 3.444024 0
M  V30 23 N -4.442918 -2.388595 2.725206 0
M  V30 24 C -4.534139 -3.593033 1.997150 0
M  V30 25 O -5.614215 -3.953360 1.424775 0
M  V30 26 C -3.419308 -4.554819 1.815352 0
M  V30 27 C -3.581389 -5.701754 2.684907 0
M  V30 28 N -3.725296 -6.613493 3.395004 0
M  V30 29 C -5.620287 -1.546702 2.813907 0
M  V30 30 C -5.338774 -0.221312 2.097882 0
M  V30 31 C -3.502152 -0.961001 -0.380513 0
M  V30 32 C -2.900880 -0.940161 -1.628692 0
M  V30 33 C -2.013102 0.073888 -1.908616 0
M  V30 34 C -1.708519 1.062192 -0.987653 0
M  V30 35 N 1.014317 1.770178 -2.095855 0
M  V30 36 C 4.659490 -0.481176 -1.999108 0
M  V30 37 C 4.996309 -1.076355 -0.654585 0
M  V30 38 H 2.597256 -0.294733 2.661016 0
M  V30 39 H 1.841696 -0.195382 1.084238 0
M  V30 40 H 3.394447 0.598462 1.381307 0
M  V30 41 H 3.147301 -2.792966 3.089165 0
M  V30 42 H 1.708727 -2.588972 2.008062 0
M  V30 43 H 3.094327 -3.671435 1.550937 0
M  V30 44 H 5.089016 -2.366203 2.221540 0
M  V30 45 H 4.357113 -2.965986 -0.003624 0
M  V30 46 H 3.054075 -2.839495 -1.820377 0
M  V30 47 H 1.937541 -2.614697 -0.492428 0
M  V30 48 H 1.979930 -1.090984 -2.736426 0
M  V30 49 H 1.330442 -0.429148 -1.245433 0
M  V30 50 H 3.445253 0.929034 -0.991367 0
M  V30 51 H 3.832707 1.187772 -3.798036 0
M  V30 52 H 0.275342 4.050332 -4.964214 0
M  V30 53 H -1.361745 3.798574 -3.055280 0
M  V30 54 H -0.471743 3.659259 0.504460 0
M  V30 55 H -2.223983 2.288479 2.057742 0
M  V30 56 H -2.064721 -0.179203 2.817229 0
M  V30 57 H -3.531926 0.266482 3.830674 0
M  V30 58 H -3.521350 -1.878890 4.516856 0
M  V30 59 H -2.375152 -2.384123 3.216809 0
M  V30 60 H -3.422420 -4.913674 0.761708 0
M  V30 61 H -2.442285 -4.046063 2.037640 0
M  V30 62 H -5.755208 -1.304888 3.891230 0
M  V30 63 H -6.508865 -2.016139 2.375758 0
M  V30 64 H -5.946730 -0.192306 1.178741 0
M  V30 65 H -5.615830 0.636322 2.760571 0
M  V30 66 H -4.185891 -1.804521 -0.262010 0
M  V30 67 H -3.082316 -1.683145 -2.421073 0
M  V30 68 H -1.524945 0.120310 -2.873804 0
M  V30 69 H 4.658970 -1.221767 -2.815679 0
M  V30 70 H 5.434990 0.282143 -2.215538 0
M  V30 71 H 5.962574 -1.615878 -0.808400 0
M  V30 72 H 5.271214 -0.212730 0.010846 0
M  V30 END ATOM
M  V30 BEGIN BOND
M  V30 1 1 1 2
M  V30 2 1 2 3
M  V30 3 1 2 4
M  V30 4 1 2 5
M  V30 5 1 5 6
M  V30 6 1 6 7
M  V30 7 1 7 8
M  V30 8 1 8 9
M  V30 9 1 9 10
M  V30 10 2 10 11
M  V30 11 1 11 12
M  V30 12 2 12 13
M  V30 13 1 13 14
M  V30 14 1 14 15
M  V30 15 1 15 16
M  V30 16 2 16 17
M  V30 17 1 17 18
M  V30 18 2 18 19
M  V30 19 1 19 20
M  V30 20 1 20 21
M  V30 21 1 21 22
M  V30 22 1 22 23
M  V30 23 1 23 24
M  V30 24 2 24 25
M  V30 25 1 24 26
M  V30 26 1 26 27
M  V30 27 3 27 28
M  V30 28 1 23 29
M  V30 29 1 29 30
M  V30 30 1 19 31
M  V30 31 2 31 32
M  V30 32 1 32 33
M  V30 33 2 33 34
M  V30 34 2 14 35
M  V30 35 1 8 36
M  V30 36 1 36 37
M  V30 37 1 37 5
M  V30 38 1 35 10
M  V30 39 1 34 15
M  V30 40 1 34 18
M  V30 41 1 30 20
M  V30 42 1 1 38
M  V30 43 1 1 39
M  V30 44 1 1 40
M  V30 45 1 3 41
M  V30 46 1 3 42
M  V30 47 1 3 43
M  V30 48 1 4 44
M  V30 49 1 5 45 CFG=1
M  V30 50 1 6 46
M  V30 51 1 6 47
M  V30 52 1 7 48
M  V30 53 1 7 49
M  V30 54 1 8 50 CFG=1
M  V30 55 1 9 51
M  V30 56 1 12 52
M  V30 57 1 13 53
M  V30 58 1 16 54
M  V30 59 1 17 55
M  V30 60 1 21 56
M  V30 61 1 21 57
M  V30 62 1 22 58
M  V30 63 1 22 59
M  V30 64 1 26 60
M  V30 65 1 26 61
M  V30 66 1 29 62
M  V30 67 1 29 63
M  V30 68 1 30 64
M  V30 69 1 30 65
M  V30 70 1 31 66
M  V30 71 1 32 67
M  V30 72 1 33 68
M  V30 73 1 36 69
M  V30 74 1 36 70
M  V30 75 1 37 71
M  V30 76 1 37 72
M  V30 END BOND
M  V30 END CTAB
M  END
>  <Dataset>  (947) 
ChEMBL_Kinases

>  <Ligand_Instance>  (947) 
nan

>  <PDB_ID>  (947) 
nan

>  <Standardized_SMILES>  (947) 
CC(C)(O)[C@H]1CC[C@H](Nc2nccc(-n3ccc4c(N5CCN(C(=O)CC#N)CC5)cccc43)n2)CC1

>  <Name>  (947) 
nan

>  <Pocket>  (947) 
nan

>  <ATP_Site>  (947) 
nan

>  <Peripheral>  (947) 
nan

>  <Num_H_Atoms_ProtBoundConf>  (947) 
nan

>  <Num_Resolved_Atoms>  (947) 
nan

>  <Num_Not_Resolved_Atoms>  (947) 
nan

$$$$
CHEMBL3674719
     RDKit          3D

  0  0  0  0  0  0  0  0  0  0999 V3000
M  V30 BEGIN CTAB
M  V30 COUNTS 85 90 0 0 0
M  V30 BEGIN ATOM
M  V30 1 C 1.291688 -5.431298 1.569469 0
M  V30 2 C 2.019326 -5.300318 0.253210 0
M  V30 3 N 1.722829 -4.040961 -0.398204 0
M  V30 4 C 2.291559 -2.932237 0.349965 0
M  V30 5 C 2.213386 -1.741904 -0.614972 0
M  V30 6 N 3.314876 -1.808522 -1.554177 0
M  V30 7 C 4.190062 -0.852837 -2.195701 0
M  V30 8 O 5.085921 -1.286183 -3.005285 0
M  V30 9 C 4.062976 0.605913 -1.930196 0 CFG=1
M  V30 10 C 2.713743 1.135332 -2.250831 0
M  V30 11 C 2.214538 2.296257 -1.488468 0
M  V30 12 C 3.077203 2.841723 -0.407315 0 CFG=2
M  V30 13 N 2.834387 4.235874 -0.114248 0
M  V30 14 C 1.538579 4.617349 0.334359 0
M  V30 15 N 1.228798 5.914637 0.631220 0
M  V30 16 C 0.000435 6.251632 1.054587 0
M  V30 17 C -1.005303 5.322389 1.211988 0
M  V30 18 C -0.691168 4.014082 0.911776 0
M  V30 19 N -1.562256 2.879680 0.996133 0
M  V30 20 C -2.853037 2.802177 0.604483 0
M  V30 21 C -3.272961 1.506038 0.885220 0
M  V30 22 C -2.228283 0.802931 1.448130 0
M  V30 23 C -2.166992 -0.513840 1.889749 0
M  V30 24 N -3.292730 -1.379602 1.806249 0
M  V30 25 C -4.618633 -1.360023 2.366746 0
M  V30 26 C -5.675060 -1.543140 1.306964 0
M  V30 27 C -5.353643 -2.672059 0.366092 0
M  V30 28 S -5.381550 -2.126059 -1.334761 0
M  V30 29 C -5.135929 -3.483042 -2.433455 0
M  V30 30 O -4.303252 -1.100858 -1.515394 0
M  V30 31 O -6.700205 -1.486037 -1.661284 0
M  V30 32 C -4.089364 -3.389493 0.698579 0
M  V30 33 C -2.918993 -2.475496 0.952756 0
M  V30 34 C -0.948066 -0.928465 2.415347 0
M  V30 35 C 0.144582 -0.076778 2.494520 0
M  V30 36 C 0.018318 1.219796 2.038456 0
M  V30 37 C -1.179239 1.678655 1.505430 0
M  V30 38 N 0.558321 3.745176 0.492957 0
M  V30 39 C 4.546409 2.554894 -0.629177 0
M  V30 40 C 4.608927 1.019324 -0.584002 0
M  V30 41 C 3.509234 -3.214714 -1.862829 0
M  V30 42 C 2.258836 -4.042254 -1.743790 0
M  V30 43 H 1.208144 -6.518438 1.838915 0
M  V30 44 H 1.777320 -4.936183 2.415262 0
M  V30 45 H 0.224510 -5.074527 1.480778 0
M  V30 46 H 3.113053 -5.399599 0.479902 0
M  V30 47 H 1.748319 -6.167976 -0.362408 0
M  V30 48 H 3.315876 -3.166110 0.640184 0
M  V30 49 H 1.618206 -2.714178 1.198585 0
M  V30 50 H 2.207838 -0.856700 0.029365 0
M  V30 51 H 1.230752 -1.813923 -1.126006 0
M  V30 52 H 4.764425 1.110727 -2.668024 0
M  V30 53 H 2.003970 0.270232 -2.070171 0
M  V30 54 H 2.584603 1.304563 -3.364767 0
M  V30 55 H 1.159380 2.110570 -1.124562 0
M  V30 56 H 2.060530 3.150646 -2.215551 0
M  V30 57 H 2.823287 2.246033 0.519610 0
M  V30 58 H 3.553504 5.004313 -0.208413 0
M  V30 59 H -0.271550 7.277102 1.297807 0
M  V30 60 H -2.016147 5.488135 1.542669 0
M  V30 61 H -3.380595 3.626585 0.169375 0
M  V30 62 H -4.271907 1.194369 0.662791 0
M  V30 63 H -4.849208 -0.374473 2.863837 0
M  V30 64 H -4.747034 -2.162276 3.115997 0
M  V30 65 H -5.851099 -0.613303 0.726886 0
M  V30 66 H -6.631567 -1.719350 1.867633 0
M  V30 67 H -6.190006 -3.415259 0.455289 0
M  V30 68 H -5.675437 -4.365918 -2.022673 0
M  V30 69 H -5.648320 -3.236332 -3.401855 0
M  V30 70 H -4.080002 -3.702444 -2.654396 0
M  V30 71 H -3.813085 -4.015243 -0.175247 0
M  V30 72 H -4.254488 -4.094007 1.547741 0
M  V30 73 H -2.148359 -3.088501 1.462700 0
M  V30 74 H -2.508050 -2.144863 -0.021702 0
M  V30 75 H -0.879490 -1.960055 2.768267 0
M  V30 76 H 1.075471 -0.474500 2.921959 0
M  V30 77 H 0.864324 1.893665 2.095314 0
M  V30 78 H 4.790813 2.901254 -1.669747 0
M  V30 79 H 5.166670 3.026264 0.129288 0
M  V30 80 H 5.685895 0.785435 -0.506516 0
M  V30 81 H 4.016694 0.662852 0.276876 0
M  V30 82 H 3.887073 -3.363945 -2.896690 0
M  V30 83 H 4.316223 -3.572574 -1.193042 0
M  V30 84 H 1.465854 -3.731788 -2.427292 0
M  V30 85 H 2.541746 -5.081364 -1.995520 0
M  V30 END ATOM
M  V30 BEGIN BOND
M  V30 1 1 1 2
M  V30 2 1 2 3
M  V30 3 1 3 4
M  V30 4 1 4 5
M  V30 5 1 5 6
M  V30 6 1 6 7
M  V30 7 2 7 8
M  V30 8 1 7 9
M  V30 9 1 9 10
M  V30 10 1 10 11
M  V30 11 1 11 12
M  V30 12 1 12 13
M  V30 13 1 13 14
M  V30 14 2 14 15
M  V30 15 1 15 16
M  V30 16 2 16 17
M  V30 17 1 17 18
M  V30 18 1 18 19
M  V30 19 1 19 20
M  V30 20 2 20 21
M  V30 21 1 21 22
M  V30 22 2 22 23
M  V30 23 1 23 24
M  V30 24 1 24 25
M  V30 25 1 25 26
M  V30 26 1 26 27
M  V30 27 1 27 28
M  V30 28 1 28 29
M  V30 29 2 28 30
M  V30 30 2 28 31
M  V30 31 1 27 32
M  V30 32 1 32 33
M  V30 33 1 23 34
M  V30 34 2 34 35
M  V30 35 1 35 36
M  V30 36 2 36 37
M  V30 37 2 18 38
M  V30 38 1 12 39
M  V30 39 1 39 40
M  V30 40 1 6 41
M  V30 41 1 41 42
M  V30 42 1 42 3
M  V30 43 1 40 9
M  V30 44 1 38 14
M  V30 45 1 37 19
M  V30 46 1 37 22
M  V30 47 1 33 24
M  V30 48 1 1 43
M  V30 49 1 1 44
M  V30 50 1 1 45
M  V30 51 1 2 46
M  V30 52 1 2 47
M  V30 53 1 4 48
M  V30 54 1 4 49
M  V30 55 1 5 50
M  V30 56 1 5 51
M  V30 57 1 9 52 CFG=3
M  V30 58 1 10 53
M  V30 59 1 10 54
M  V30 60 1 11 55
M  V30 61 1 11 56
M  V30 62 1 12 57 CFG=1
M  V30 63 1 13 58
M  V30 64 1 16 59
M  V30 65 1 17 60
M  V30 66 1 20 61
M  V30 67 1 21 62
M  V30 68 1 25 63
M  V30 69 1 25 64
M  V30 70 1 26 65
M  V30 71 1 26 66
M  V30 72 1 27 67
M  V30 73 1 29 68
M  V30 74 1 29 69
M  V30 75 1 29 70
M  V30 76 1 32 71
M  V30 77 1 32 72
M  V30 78 1 33 73
M  V30 79 1 33 74
M  V30 80 1 34 75
M  V30 81 1 35 76
M  V30 82 1 36 77
M  V30 83 1 39 78
M  V30 84 1 39 79
M  V30 85 1 40 80
M  V30 86 1 40 81
M  V30 87 1 41 82
M  V30 88 1 41 83
M  V30 89 1 42 84
M  V30 90 1 42 85
M  V30 END BOND
M  V30 END CTAB
M  END
>  <Dataset>  (948) 
ChEMBL_Kinases

>  <Ligand_Instance>  (948) 
nan

>  <PDB_ID>  (948) 
nan

>  <Standardized_SMILES>  (948) 
CCN1CCN(C(=O)[C@H]2CC[C@H](Nc3nccc(-n4ccc5c(N6CCC(S(C)(=O)=O)CC6)cccc54)n3)CC2)CC1

>  <Name>  (948) 
nan

>  <Pocket>  (948) 
nan

>  <ATP_Site>  (948) 
nan

>  <Peripheral>  (948) 
nan

>  <Num_H_Atoms_ProtBoundConf>  (948) 
nan

>  <Num_Resolved_Atoms>  (948) 
nan

>  <Num_Not_Resolved_Atoms>  (948) 
nan

$$$$
CHEMBL3674720
     RDKit          3D

  0  0  0  0  0  0  0  0  0  0999 V3000
M  V30 BEGIN CTAB
M  V30 COUNTS 86 92 0 0 0
M  V30 BEGIN ATOM
M  V30 1 C -3.711792 -7.641121 -3.256681 0
M  V30 2 S -2.560912 -6.293772 -3.283687 0
M  V30 3 O -2.488312 -5.709580 -1.904096 0
M  V30 4 O -1.211701 -6.840949 -3.621276 0
M  V30 5 C -3.061000 -5.040400 -4.443794 0
M  V30 6 C -2.010485 -3.996919 -4.602929 0
M  V30 7 C -2.114562 -2.807009 -3.714776 0
M  V30 8 N -3.512928 -2.529101 -3.329886 0
M  V30 9 C -3.746432 -1.838493 -2.096822 0
M  V30 10 C -4.405712 -2.457284 -1.055424 0
M  V30 11 C -4.660263 -1.870242 0.178879 0
M  V30 12 C -4.230232 -0.579517 0.393331 0
M  V30 13 C -3.580035 0.051275 -0.616193 0
M  V30 14 C -3.326566 -0.544745 -1.858807 0
M  V30 15 C -2.668651 0.364646 -2.619379 0
M  V30 16 C -2.505230 1.523904 -1.870277 0
M  V30 17 N -3.074115 1.297500 -0.650492 0
M  V30 18 C -3.021557 2.360421 0.300293 0
M  V30 19 C -3.556382 3.646203 0.218943 0
M  V30 20 C -3.349851 4.487490 1.290620 0
M  V30 21 N -2.661714 4.091843 2.375283 0
M  V30 22 C -2.138488 2.845272 2.464074 0
M  V30 23 N -1.404458 2.436029 3.615142 0
M  V30 24 C -0.861039 1.095505 3.699847 0 CFG=1
M  V30 25 C 0.086888 0.759408 2.576824 0
M  V30 26 C 1.091531 1.879748 2.469727 0
M  V30 27 C 1.761066 2.059303 3.817245 0 CFG=2
M  V30 28 C 3.185700 2.284311 3.602306 0
M  V30 29 O 3.683044 3.386281 4.015077 0
M  V30 30 N 4.075152 1.378843 2.969860 0
M  V30 31 C 3.900490 0.064355 2.382813 0
M  V30 32 C 4.295826 0.200337 0.907943 0
M  V30 33 N 5.743765 0.265654 0.865333 0
M  V30 34 C 6.273118 0.910693 -0.290294 0
M  V30 35 C 5.889948 0.253420 -1.601794 0
M  V30 36 C 7.333921 0.215922 -1.115188 0
M  V30 37 C 6.302391 0.707891 2.121947 0
M  V30 38 C 5.479635 1.730394 2.820556 0
M  V30 39 C 1.424543 0.932286 4.758061 0
M  V30 40 C -0.075040 0.943176 4.983728 0
M  V30 41 N -2.347594 2.054452 1.425955 0
M  V30 42 C -4.452521 -3.039378 -4.337416 0
M  V30 43 C -4.448484 -4.536620 -4.188486 0
M  V30 44 H -4.585465 -7.333888 -2.676112 0
M  V30 45 H -3.233088 -8.498470 -2.728303 0
M  V30 46 H -3.927808 -8.032992 -4.273988 0
M  V30 47 H -3.097228 -5.583173 -5.439013 0
M  V30 48 H -1.025761 -4.509100 -4.378208 0
M  V30 49 H -1.882989 -3.675727 -5.665665 0
M  V30 50 H -1.542256 -3.040888 -2.768280 0
M  V30 51 H -1.679361 -1.947462 -4.249933 0
M  V30 52 H -4.779138 -3.465444 -1.121299 0
M  V30 53 H -5.182594 -2.385041 0.979657 0
M  V30 54 H -4.404352 -0.081034 1.334596 0
M  V30 55 H -2.326594 0.239386 -3.622951 0
M  V30 56 H -1.996236 2.413685 -2.266377 0
M  V30 57 H -4.082512 3.817980 -0.710513 0
M  V30 58 H -3.792606 5.469580 1.159827 0
M  V30 59 H -1.270983 3.122646 4.391359 0
M  V30 60 H -1.698942 0.344713 3.704669 0
M  V30 61 H 0.523843 -0.224438 2.814656 0
M  V30 62 H -0.460426 0.614874 1.620082 0
M  V30 63 H 0.478503 2.796741 2.238522 0
M  V30 64 H 1.820266 1.734112 1.643404 0
M  V30 65 H 1.304685 2.979764 4.292011 0
M  V30 66 H 4.617572 -0.676878 2.788701 0
M  V30 67 H 2.865418 -0.291418 2.369220 0
M  V30 68 H 3.999766 -0.716184 0.380788 0
M  V30 69 H 3.898992 1.132419 0.455722 0
M  V30 70 H 6.253400 2.033601 -0.306966 0
M  V30 71 H 5.646376 0.909673 -2.475576 0
M  V30 72 H 5.401423 -0.742120 -1.601391 0
M  V30 73 H 7.712027 -0.718921 -0.677953 0
M  V30 74 H 8.011836 0.875049 -1.712710 0
M  V30 75 H 7.270960 1.205816 1.853741 0
M  V30 76 H 6.588439 -0.162162 2.731084 0
M  V30 77 H 5.871231 1.787861 3.876446 0
M  V30 78 H 5.629157 2.735186 2.381311 0
M  V30 79 H 1.845960 -0.036543 4.509228 0
M  V30 80 H 1.868763 1.208395 5.753156 0
M  V30 81 H -0.291403 1.817377 5.633950 0
M  V30 82 H -0.402004 0.050348 5.557052 0
M  V30 83 H -4.054279 -2.804917 -5.351254 0
M  V30 84 H -5.457451 -2.593915 -4.233505 0
M  V30 85 H -5.199799 -5.029269 -4.840873 0
M  V30 86 H -4.688824 -4.768650 -3.117032 0
M  V30 END ATOM
M  V30 BEGIN BOND
M  V30 1 1 1 2
M  V30 2 2 2 3
M  V30 3 2 2 4
M  V30 4 1 2 5
M  V30 5 1 5 6
M  V30 6 1 6 7
M  V30 7 1 7 8
M  V30 8 1 8 9
M  V30 9 2 9 10
M  V30 10 1 10 11
M  V30 11 2 11 12
M  V30 12 1 12 13
M  V30 13 2 13 14
M  V30 14 1 14 15
M  V30 15 2 15 16
M  V30 16 1 16 17
M  V30 17 1 17 18
M  V30 18 2 18 19
M  V30 19 1 19 20
M  V30 20 2 20 21
M  V30 21 1 21 22
M  V30 22 1 22 23
M  V30 23 1 23 24
M  V30 24 1 24 25
M  V30 25 1 25 26
M  V30 26 1 26 27
M  V30 27 1 27 28
M  V30 28 2 28 29
M  V30 29 1 28 30
M  V30 30 1 30 31
M  V30 31 1 31 32
M  V30 32 1 32 33
M  V30 33 1 33 34
M  V30 34 1 34 35
M  V30 35 1 35 36
M  V30 36 1 33 37
M  V30 37 1 37 38
M  V30 38 1 27 39
M  V30 39 1 39 40
M  V30 40 2 22 41
M  V30 41 1 8 42
M  V30 42 1 42 43
M  V30 43 1 43 5
M  V30 44 1 14 9
M  V30 45 1 41 18
M  V30 46 1 17 13
M  V30 47 1 40 24
M  V30 48 1 38 30
M  V30 49 1 36 34
M  V30 50 1 1 44
M  V30 51 1 1 45
M  V30 52 1 1 46
M  V30 53 1 5 47
M  V30 54 1 6 48
M  V30 55 1 6 49
M  V30 56 1 7 50
M  V30 57 1 7 51
M  V30 58 1 10 52
M  V30 59 1 11 53
M  V30 60 1 12 54
M  V30 61 1 15 55
M  V30 62 1 16 56
M  V30 63 1 19 57
M  V30 64 1 20 58
M  V30 65 1 23 59
M  V30 66 1 24 60 CFG=1
M  V30 67 1 25 61
M  V30 68 1 25 62
M  V30 69 1 26 63
M  V30 70 1 26 64
M  V30 71 1 27 65 CFG=1
M  V30 72 1 31 66
M  V30 73 1 31 67
M  V30 74 1 32 68
M  V30 75 1 32 69
M  V30 76 1 34 70
M  V30 77 1 35 71
M  V30 78 1 35 72
M  V30 79 1 36 73
M  V30 80 1 36 74
M  V30 81 1 37 75
M  V30 82 1 37 76
M  V30 83 1 38 77
M  V30 84 1 38 78
M  V30 85 1 39 79
M  V30 86 1 39 80
M  V30 87 1 40 81
M  V30 88 1 40 82
M  V30 89 1 42 83
M  V30 90 1 42 84
M  V30 91 1 43 85
M  V30 92 1 43 86
M  V30 END BOND
M  V30 END CTAB
M  END
>  <Dataset>  (949) 
ChEMBL_Kinases

>  <Ligand_Instance>  (949) 
nan

>  <PDB_ID>  (949) 
nan

>  <Standardized_SMILES>  (949) 
CS(=O)(=O)C1CCN(c2cccc3c2ccn3-c2ccnc(N[C@H]3CC[C@H](C(=O)N4CCN(C5CC5)CC4)CC3)n2)CC1

>  <Name>  (949) 
nan

>  <Pocket>  (949) 
nan

>  <ATP_Site>  (949) 
nan

>  <Peripheral>  (949) 
nan

>  <Num_H_Atoms_ProtBoundConf>  (949) 
nan

>  <Num_Resolved_Atoms>  (949) 
nan

>  <Num_Not_Resolved_Atoms>  (949) 
nan

$$$$
CHEMBL3674712
     RDKit          3D

  0  0  0  0  0  0  0  0  0  0999 V3000
M  V30 BEGIN CTAB
M  V30 COUNTS 72 76 0 0 0
M  V30 BEGIN ATOM
M  V30 1 C 4.933660 -2.484481 3.527220 0
M  V30 2 O 5.593482 -2.239219 2.322654 0
M  V30 3 C 4.796874 -1.314487 1.612669 0
M  V30 4 C 5.428060 -0.986628 0.292879 0
M  V30 5 O 4.737394 -0.093824 -0.483569 0
M  V30 6 C 3.467579 -0.540858 -0.829547 0 CFG=1
M  V30 7 C 2.506039 0.499642 -0.237558 0
M  V30 8 C 3.075797 1.854603 -0.599878 0
M  V30 9 C 3.131670 1.999712 -2.077991 0 CFG=2
M  V30 10 N 2.488049 3.156276 -2.617602 0
M  V30 11 C 1.119344 3.396845 -2.431401 0
M  V30 12 N 0.517929 4.494338 -2.946682 0
M  V30 13 C -0.794462 4.731306 -2.771737 0
M  V30 14 C -1.611697 3.877691 -2.059909 0
M  V30 15 C -0.996295 2.759595 -1.535621 0
M  V30 16 N -1.581882 1.702524 -0.757555 0
M  V30 17 C -1.291140 1.550735 0.547976 0
M  V30 18 C -2.019129 0.455443 0.959807 0
M  V30 19 C -2.745227 -0.052035 -0.086620 0
M  V30 20 C -3.594290 -1.136331 -0.111869 0
M  V30 21 N -3.950511 -1.974486 0.972242 0
M  V30 22 C -4.633386 -3.248786 0.698869 0
M  V30 23 C -4.192152 -4.340680 1.648412 0
M  V30 24 N -4.250288 -3.957614 3.029808 0
M  V30 25 C -3.911284 -4.889291 4.044373 0
M  V30 26 C -3.497632 -6.254444 3.694616 0
M  V30 27 O -3.972746 -4.519802 5.254364 0
M  V30 28 C -4.667640 -2.600217 3.250020 0
M  V30 29 C -3.749277 -1.729508 2.375880 0
M  V30 30 C -4.160376 -1.374178 -1.353795 0
M  V30 31 C -3.893777 -0.594366 -2.453548 0
M  V30 32 C -3.032938 0.478947 -2.359969 0
M  V30 33 C -2.448532 0.750143 -1.143918 0
M  V30 34 N 0.317050 2.569011 -1.738719 0
M  V30 35 C 2.540696 0.769025 -2.776824 0
M  V30 36 C 3.255161 -0.486905 -2.337017 0
M  V30 37 H 3.912713 -2.909928 3.354437 0
M  V30 38 H 5.507436 -3.244274 4.104668 0
M  V30 39 H 4.793981 -1.568302 4.129537 0
M  V30 40 H 4.754449 -0.423073 2.291396 0
M  V30 41 H 3.762305 -1.693053 1.520797 0
M  V30 42 H 5.479372 -1.944583 -0.300001 0
M  V30 43 H 6.459519 -0.599280 0.429241 0
M  V30 44 H 3.255197 -1.536820 -0.421425 0
M  V30 45 H 2.409572 0.365702 0.855102 0
M  V30 46 H 1.526381 0.286310 -0.670279 0
M  V30 47 H 4.094756 1.873898 -0.113259 0
M  V30 48 H 2.502384 2.636343 -0.074555 0
M  V30 49 H 4.218877 1.966944 -2.362205 0
M  V30 50 H 3.054099 3.838931 -3.164823 0
M  V30 51 H -1.309919 5.613287 -3.178132 0
M  V30 52 H -2.650949 3.942826 -1.847645 0
M  V30 53 H -0.624691 2.163542 1.143368 0
M  V30 54 H -1.963899 0.108944 1.975623 0
M  V30 55 H -5.711296 -3.068833 0.877142 0
M  V30 56 H -4.423644 -3.627858 -0.320372 0
M  V30 57 H -4.910794 -5.173539 1.521960 0
M  V30 58 H -3.170743 -4.693707 1.329579 0
M  V30 59 H -2.692237 -6.290479 2.946644 0
M  V30 60 H -4.343237 -6.869446 3.286371 0
M  V30 61 H -3.112994 -6.780565 4.598484 0
M  V30 62 H -4.460668 -2.265866 4.301104 0
M  V30 63 H -5.709937 -2.391541 2.987953 0
M  V30 64 H -2.729473 -2.028368 2.678252 0
M  V30 65 H -4.035670 -0.694641 2.666978 0
M  V30 66 H -4.853670 -2.162075 -1.604531 0
M  V30 67 H -4.304684 -0.731580 -3.444335 0
M  V30 68 H -2.796495 1.118252 -3.201963 0
M  V30 69 H 1.456941 0.705500 -2.679087 0
M  V30 70 H 2.758483 0.880801 -3.864445 0
M  V30 71 H 2.593782 -1.348522 -2.575173 0
M  V30 72 H 4.232904 -0.600774 -2.826229 0
M  V30 END ATOM
M  V30 BEGIN BOND
M  V30 1 1 1 2
M  V30 2 1 2 3
M  V30 3 1 3 4
M  V30 4 1 4 5
M  V30 5 1 5 6
M  V30 6 1 6 7
M  V30 7 1 7 8
M  V30 8 1 8 9
M  V30 9 1 9 10
M  V30 10 1 10 11
M  V30 11 2 11 12
M  V30 12 1 12 13
M  V30 13 2 13 14
M  V30 14 1 14 15
M  V30 15 1 15 16
M  V30 16 1 16 17
M  V30 17 2 17 18
M  V30 18 1 18 19
M  V30 19 2 19 20
M  V30 20 1 20 21
M  V30 21 1 21 22
M  V30 22 1 22 23
M  V30 23 1 23 24
M  V30 24 1 24 25
M  V30 25 1 25 26
M  V30 26 2 25 27
M  V30 27 1 24 28
M  V30 28 1 28 29
M  V30 29 1 20 30
M  V30 30 2 30 31
M  V30 31 1 31 32
M  V30 32 2 32 33
M  V30 33 2 15 34
M  V30 34 1 9 35
M  V30 35 1 35 36
M  V30 36 1 36 6
M  V30 37 1 34 11
M  V30 38 1 33 16
M  V30 39 1 33 19
M  V30 40 1 29 21
M  V30 41 1 1 37
M  V30 42 1 1 38
M  V30 43 1 1 39
M  V30 44 1 3 40
M  V30 45 1 3 41
M  V30 46 1 4 42
M  V30 47 1 4 43
M  V30 48 1 6 44 CFG=1
M  V30 49 1 7 45
M  V30 50 1 7 46
M  V30 51 1 8 47
M  V30 52 1 8 48
M  V30 53 1 9 49 CFG=3
M  V30 54 1 10 50
M  V30 55 1 13 51
M  V30 56 1 14 52
M  V30 57 1 17 53
M  V30 58 1 18 54
M  V30 59 1 22 55
M  V30 60 1 22 56
M  V30 61 1 23 57
M  V30 62 1 23 58
M  V30 63 1 26 59
M  V30 64 1 26 60
M  V30 65 1 26 61
M  V30 66 1 28 62
M  V30 67 1 28 63
M  V30 68 1 29 64
M  V30 69 1 29 65
M  V30 70 1 30 66
M  V30 71 1 31 67
M  V30 72 1 32 68
M  V30 73 1 35 69
M  V30 74 1 35 70
M  V30 75 1 36 71
M  V30 76 1 36 72
M  V30 END BOND
M  V30 END CTAB
M  END
>  <Dataset>  (950) 
ChEMBL_Kinases

>  <Ligand_Instance>  (950) 
nan

>  <PDB_ID>  (950) 
nan

>  <Standardized_SMILES>  (950) 
COCCO[C@H]1CC[C@H](Nc2nccc(-n3ccc4c(N5CCN(C(C)=O)CC5)cccc43)n2)CC1

>  <Name>  (950) 
nan

>  <Pocket>  (950) 
nan

>  <ATP_Site>  (950) 
nan

>  <Peripheral>  (950) 
nan

>  <Num_H_Atoms_ProtBoundConf>  (950) 
nan

>  <Num_Resolved_Atoms>  (950) 
nan

>  <Num_Not_Resolved_Atoms>  (950) 
nan

$$$$
CHEMBL3673649
     RDKit          3D

  0  0  0  0  0  0  0  0  0  0999 V3000
M  V30 BEGIN CTAB
M  V30 COUNTS 42 45 0 0 0
M  V30 BEGIN ATOM
M  V30 1 C 1.726100 -7.690060 0.777876 0
M  V30 2 C 2.290293 -6.310256 0.973383 0
M  V30 3 C 1.809719 -5.041291 0.647836 0
M  V30 4 C 2.753819 -4.074337 1.062635 0
M  V30 5 N 2.167634 -2.799994 0.685960 0
M  V30 6 C 2.414490 -2.219109 -0.594576 0
M  V30 7 O 3.151080 -2.806392 -1.427984 0
M  V30 8 C 1.777924 -0.919543 -0.898879 0
M  V30 9 C 1.981808 -0.340042 -2.138399 0
M  V30 10 C 1.381336 0.881087 -2.440467 0
M  V30 11 C 0.580588 1.513488 -1.497682 0
M  V30 12 C -0.133662 2.682902 -1.479908 0
M  V30 13 C -0.753101 2.788936 -0.236269 0
M  V30 14 N -0.407058 1.708094 0.449045 0
M  V30 15 C 0.401313 0.905322 -0.274193 0
M  V30 16 N 0.988272 -0.290586 0.024017 0
M  V30 17 C -0.882841 1.497566 1.798890 0 CFG=1
M  V30 18 C 0.298267 0.980201 2.607919 0
M  V30 19 C -1.513029 2.657401 2.448237 0 CFG=2
M  V30 20 C -2.600082 2.242251 3.437549 0
M  V30 21 N -2.096574 3.635684 1.595116 0
M  V30 22 C -1.627580 3.842420 0.282774 0
M  V30 23 O -1.887885 4.832322 -0.471088 0
M  V30 24 N 3.716907 -4.829716 1.598972 0
M  V30 25 O 3.463110 -6.089568 1.552577 0
M  V30 26 H 2.385958 -8.447109 1.247503 0
M  V30 27 H 0.717046 -7.666453 1.241518 0
M  V30 28 H 1.679494 -7.911120 -0.301380 0
M  V30 29 H 0.826719 -5.116105 0.157324 0
M  V30 30 H 1.552241 -2.317879 1.383915 0
M  V30 31 H 2.601126 -0.811150 -2.897236 0
M  V30 32 H 1.529105 1.355576 -3.416804 0
M  V30 33 H -0.168748 3.364163 -2.322811 0
M  V30 34 H -1.611668 0.648633 1.798683 0
M  V30 35 H 1.135229 1.690085 2.566354 0
M  V30 36 H 0.551317 -0.074490 2.370703 0
M  V30 37 H -0.058973 0.948722 3.673082 0
M  V30 38 H -0.758871 3.194949 3.073368 0
M  V30 39 H -3.391708 3.007791 3.499416 0
M  V30 40 H -2.160195 2.076242 4.448653 0
M  V30 41 H -3.065337 1.267597 3.122992 0
M  V30 42 H -2.898694 4.241220 1.903088 0
M  V30 END ATOM
M  V30 BEGIN BOND
M  V30 1 1 1 2
M  V30 2 2 2 3
M  V30 3 1 3 4
M  V30 4 1 4 5
M  V30 5 1 5 6
M  V30 6 2 6 7
M  V30 7 1 6 8
M  V30 8 2 8 9
M  V30 9 1 9 10
M  V30 10 2 10 11
M  V30 11 1 11 12
M  V30 12 2 12 13
M  V30 13 1 13 14
M  V30 14 1 14 15
M  V30 15 2 15 16
M  V30 16 1 14 17
M  V30 17 1 17 18
M  V30 18 1 17 19
M  V30 19 1 19 20
M  V30 20 1 19 21
M  V30 21 1 21 22
M  V30 22 2 22 23
M  V30 23 2 4 24
M  V30 24 1 24 25
M  V30 25 1 25 2
M  V30 26 1 16 8
M  V30 27 1 15 11
M  V30 28 1 22 13
M  V30 29 1 1 26
M  V30 30 1 1 27
M  V30 31 1 1 28
M  V30 32 1 3 29
M  V30 33 1 5 30
M  V30 34 1 9 31
M  V30 35 1 10 32
M  V30 36 1 12 33
M  V30 37 1 17 34 CFG=3
M  V30 38 1 18 35
M  V30 39 1 18 36
M  V30 40 1 18 37
M  V30 41 1 19 38 CFG=1
M  V30 42 1 20 39
M  V30 43 1 20 40
M  V30 44 1 20 41
M  V30 45 1 21 42
M  V30 END BOND
M  V30 END CTAB
M  END
>  <Dataset>  (951) 
ChEMBL_Kinases

>  <Ligand_Instance>  (951) 
nan

>  <PDB_ID>  (951) 
nan

>  <Standardized_SMILES>  (951) 
Cc1cc(NC(=O)c2ccc3cc4n(c3n2)[C@@H](C)[C@H](C)NC4=O)no1

>  <Name>  (951) 
nan

>  <Pocket>  (951) 
nan

>  <ATP_Site>  (951) 
nan

>  <Peripheral>  (951) 
nan

>  <Num_H_Atoms_ProtBoundConf>  (951) 
nan

>  <Num_Resolved_Atoms>  (951) 
nan

>  <Num_Not_Resolved_Atoms>  (951) 
nan

$$$$
CHEMBL3673648
     RDKit          3D

  0  0  0  0  0  0  0  0  0  0999 V3000
M  V30 BEGIN CTAB
M  V30 COUNTS 42 45 0 0 0
M  V30 BEGIN ATOM
M  V30 1 C 2.220243 -7.807915 1.219331 0
M  V30 2 C 2.441789 -6.397682 0.797569 0
M  V30 3 C 1.361067 -5.557843 0.508932 0
M  V30 4 C 1.904571 -4.337312 0.154781 0
M  V30 5 N 1.375991 -3.075052 -0.245127 0
M  V30 6 C 1.047887 -2.519708 -1.506772 0
M  V30 7 O 1.219202 -3.194301 -2.556089 0
M  V30 8 C 0.517790 -1.160106 -1.492000 0
M  V30 9 C 0.197333 -0.616263 -2.718266 0
M  V30 10 C -0.310993 0.682986 -2.724782 0
M  V30 11 C -0.497688 1.420178 -1.572600 0
M  V30 12 C -0.952634 2.657550 -1.247715 0
M  V30 13 C -0.896667 2.824313 0.128490 0
M  V30 14 N -0.406620 1.680734 0.618853 0
M  V30 15 C -0.157812 0.817522 -0.386828 0
M  V30 16 N 0.332930 -0.434366 -0.369753 0
M  V30 17 C -0.228059 1.541886 2.031779 0 CFG=1
M  V30 18 C 1.248641 1.639368 2.408388 0
M  V30 19 C -1.068232 2.471729 2.849536 0 CFG=1
M  V30 20 C -0.551212 2.489043 4.273353 0
M  V30 21 N -1.089825 3.826152 2.379620 0
M  V30 22 C -1.272673 3.977197 0.974022 0
M  V30 23 O -1.719509 4.991156 0.399304 0
M  V30 24 N 3.241618 -4.481527 0.239919 0
M  V30 25 O 3.535809 -5.694238 0.617576 0
M  V30 26 H 1.330395 -8.221928 0.712375 0
M  V30 27 H 3.133405 -8.382317 0.933709 0
M  V30 28 H 2.084586 -7.885729 2.324011 0
M  V30 29 H 0.294889 -5.680229 0.513176 0
M  V30 30 H 1.243627 -2.536568 0.642567 0
M  V30 31 H 0.336967 -1.181727 -3.642543 0
M  V30 32 H -0.574061 1.143583 -3.668532 0
M  V30 33 H -1.292279 3.353270 -2.017626 0
M  V30 34 H -0.533645 0.513166 2.320016 0
M  V30 35 H 1.553988 2.679965 2.625529 0
M  V30 36 H 1.821727 1.240692 1.544114 0
M  V30 37 H 1.475598 0.966353 3.268856 0
M  V30 38 H -2.117947 2.119031 2.917515 0
M  V30 39 H -1.369182 2.973670 4.882896 0
M  V30 40 H 0.306317 3.165049 4.318845 0
M  V30 41 H -0.332241 1.471439 4.653328 0
M  V30 42 H -0.990200 4.726234 2.921957 0
M  V30 END ATOM
M  V30 BEGIN BOND
M  V30 1 1 1 2
M  V30 2 2 2 3
M  V30 3 1 3 4
M  V30 4 1 4 5
M  V30 5 1 5 6
M  V30 6 2 6 7
M  V30 7 1 6 8
M  V30 8 2 8 9
M  V30 9 1 9 10
M  V30 10 2 10 11
M  V30 11 1 11 12
M  V30 12 2 12 13
M  V30 13 1 13 14
M  V30 14 1 14 15
M  V30 15 2 15 16
M  V30 16 1 14 17
M  V30 17 1 17 18
M  V30 18 1 17 19
M  V30 19 1 19 20
M  V30 20 1 19 21
M  V30 21 1 21 22
M  V30 22 2 22 23
M  V30 23 2 4 24
M  V30 24 1 24 25
M  V30 25 1 25 2
M  V30 26 1 16 8
M  V30 27 1 15 11
M  V30 28 1 22 13
M  V30 29 1 1 26
M  V30 30 1 1 27
M  V30 31 1 1 28
M  V30 32 1 3 29
M  V30 33 1 5 30
M  V30 34 1 9 31
M  V30 35 1 10 32
M  V30 36 1 12 33
M  V30 37 1 17 34 CFG=1
M  V30 38 1 18 35
M  V30 39 1 18 36
M  V30 40 1 18 37
M  V30 41 1 19 38 CFG=1
M  V30 42 1 20 39
M  V30 43 1 20 40
M  V30 44 1 20 41
M  V30 45 1 21 42
M  V30 END BOND
M  V30 END CTAB
M  END
>  <Dataset>  (952) 
ChEMBL_Kinases

>  <Ligand_Instance>  (952) 
nan

>  <PDB_ID>  (952) 
nan

>  <Standardized_SMILES>  (952) 
Cc1cc(NC(=O)c2ccc3cc4n(c3n2)[C@@H](C)[C@@H](C)NC4=O)no1

>  <Name>  (952) 
nan

>  <Pocket>  (952) 
nan

>  <ATP_Site>  (952) 
nan

>  <Peripheral>  (952) 
nan

>  <Num_H_Atoms_ProtBoundConf>  (952) 
nan

>  <Num_Resolved_Atoms>  (952) 
nan

>  <Num_Not_Resolved_Atoms>  (952) 
nan

$$$$
CHEMBL3673647
     RDKit          3D

  0  0  0  0  0  0  0  0  0  0999 V3000
M  V30 BEGIN CTAB
M  V30 COUNTS 39 42 0 0 0
M  V30 BEGIN ATOM
M  V30 1 C 1.186415 -6.666391 4.533831 0
M  V30 2 C 1.270854 -5.762062 3.351504 0
M  V30 3 C 0.846271 -4.427790 3.301316 0
M  V30 4 C 1.130367 -4.007377 1.995820 0
M  V30 5 N 0.851520 -2.685532 1.507694 0
M  V30 6 C 1.897908 -1.746706 1.679856 0
M  V30 7 O 2.978647 -2.121009 2.235436 0
M  V30 8 C 1.748112 -0.364740 1.228912 0
M  V30 9 C 2.786465 0.525604 1.409020 0
M  V30 10 C 2.643849 1.850788 0.977247 0
M  V30 11 C 1.431601 2.156878 0.388650 0
M  V30 12 C 1.083624 3.414569 -0.109070 0
M  V30 13 C -0.198172 3.257831 -0.596260 0
M  V30 14 N -0.587112 1.985201 -0.399742 0
M  V30 15 C 0.392911 1.282120 0.204021 0
M  V30 16 N 0.581556 0.005810 0.641083 0
M  V30 17 C -1.866189 1.410625 -0.768130 0 CFG=2
M  V30 18 C -1.717505 0.039247 -1.382209 0
M  V30 19 C -2.672992 2.249601 -1.698034 0
M  V30 20 N -2.403256 3.669115 -1.626271 0
M  V30 21 C -1.116225 4.198544 -1.241428 0
M  V30 22 O -0.841785 5.386746 -1.461716 0
M  V30 23 N 1.683043 -5.061091 1.364642 0
M  V30 24 O 1.758522 -6.079149 2.169719 0
M  V30 25 H 1.373564 -6.122109 5.489458 0
M  V30 26 H 0.176987 -7.120987 4.610812 0
M  V30 27 H 1.951415 -7.466917 4.450510 0
M  V30 28 H 0.396884 -3.843094 4.092224 0
M  V30 29 H -0.024207 -2.329868 1.042551 0
M  V30 30 H 3.721166 0.218200 1.882912 0
M  V30 31 H 3.443170 2.566674 1.107107 0
M  V30 32 H 1.631511 4.336865 -0.141087 0
M  V30 33 H -2.417734 1.291496 0.211048 0
M  V30 34 H -2.131032 -0.752965 -0.716486 0
M  V30 35 H -0.678619 -0.232989 -1.639922 0
M  V30 36 H -2.304940 -0.066078 -2.341985 0
M  V30 37 H -3.749501 2.130149 -1.408433 0
M  V30 38 H -2.511939 1.878154 -2.739578 0
M  V30 39 H -3.158190 4.361832 -1.858908 0
M  V30 END ATOM
M  V30 BEGIN BOND
M  V30 1 1 1 2
M  V30 2 2 2 3
M  V30 3 1 3 4
M  V30 4 1 4 5
M  V30 5 1 5 6
M  V30 6 2 6 7
M  V30 7 1 6 8
M  V30 8 2 8 9
M  V30 9 1 9 10
M  V30 10 2 10 11
M  V30 11 1 11 12
M  V30 12 2 12 13
M  V30 13 1 13 14
M  V30 14 1 14 15
M  V30 15 2 15 16
M  V30 16 1 14 17
M  V30 17 1 17 18
M  V30 18 1 17 19
M  V30 19 1 19 20
M  V30 20 1 20 21
M  V30 21 2 21 22
M  V30 22 2 4 23
M  V30 23 1 23 24
M  V30 24 1 24 2
M  V30 25 1 16 8
M  V30 26 1 15 11
M  V30 27 1 21 13
M  V30 28 1 1 25
M  V30 29 1 1 26
M  V30 30 1 1 27
M  V30 31 1 3 28
M  V30 32 1 5 29
M  V30 33 1 9 30
M  V30 34 1 10 31
M  V30 35 1 12 32
M  V30 36 1 17 33 CFG=1
M  V30 37 1 18 34
M  V30 38 1 18 35
M  V30 39 1 18 36
M  V30 40 1 19 37
M  V30 41 1 19 38
M  V30 42 1 20 39
M  V30 END BOND
M  V30 END CTAB
M  END
>  <Dataset>  (953) 
ChEMBL_Kinases

>  <Ligand_Instance>  (953) 
nan

>  <PDB_ID>  (953) 
nan

>  <Standardized_SMILES>  (953) 
Cc1cc(NC(=O)c2ccc3cc4n(c3n2)[C@H](C)CNC4=O)no1

>  <Name>  (953) 
nan

>  <Pocket>  (953) 
nan

>  <ATP_Site>  (953) 
nan

>  <Peripheral>  (953) 
nan

>  <Num_H_Atoms_ProtBoundConf>  (953) 
nan

>  <Num_Resolved_Atoms>  (953) 
nan

>  <Num_Not_Resolved_Atoms>  (953) 
nan

$$$$
CHEMBL3673646
     RDKit          3D

  0  0  0  0  0  0  0  0  0  0999 V3000
M  V30 BEGIN CTAB
M  V30 COUNTS 39 42 0 0 0
M  V30 BEGIN ATOM
M  V30 1 C 0.949784 -7.489738 1.958492 0
M  V30 2 C 1.276802 -6.136028 1.421876 0
M  V30 3 C 0.602156 -4.947983 1.206475 0
M  V30 4 C 1.520313 -4.049676 0.664099 0
M  V30 5 N 1.006997 -2.753202 0.370121 0
M  V30 6 C 0.419367 -2.305796 -0.840086 0
M  V30 7 O 0.320378 -3.132619 -1.804296 0
M  V30 8 C -0.054802 -0.929673 -0.961032 0
M  V30 9 C -0.621237 -0.514966 -2.138416 0
M  V30 10 C -1.081932 0.784082 -2.286638 0
M  V30 11 C -0.931061 1.608357 -1.186501 0
M  V30 12 C -1.288951 2.933489 -1.036022 0
M  V30 13 C -0.914815 3.278775 0.262450 0
M  V30 14 N -0.359503 2.242745 0.887126 0
M  V30 15 C -0.357251 1.210637 0.024947 0
M  V30 16 N 0.052850 -0.060112 0.060733 0
M  V30 17 C 0.142881 2.238633 2.237828 0 CFG=1
M  V30 18 C 1.159772 1.178889 2.481069 0
M  V30 19 C 0.595386 3.613890 2.600873 0
M  V30 20 N -0.522395 4.527663 2.367082 0
M  V30 21 C -1.024862 4.539823 1.025149 0
M  V30 22 O -1.538413 5.562768 0.502121 0
M  V30 23 N 2.691557 -4.741832 0.582806 0
M  V30 24 O 2.517798 -5.942213 1.027732 0
M  V30 25 H 1.435293 -7.611502 2.954782 0
M  V30 26 H -0.152307 -7.551896 2.175166 0
M  V30 27 H 1.290984 -8.293432 1.293304 0
M  V30 28 H -0.452942 -4.919686 1.477438 0
M  V30 29 H 1.083808 -2.058365 1.163088 0
M  V30 30 H -0.745409 -1.152455 -3.009468 0
M  V30 31 H -1.537769 1.178525 -3.183044 0
M  V30 32 H -1.753651 3.603743 -1.724165 0
M  V30 33 H -0.742241 1.996745 2.887708 0
M  V30 34 H 1.560575 1.310269 3.508621 0
M  V30 35 H 0.672274 0.185148 2.446404 0
M  V30 36 H 1.944498 1.193131 1.701598 0
M  V30 37 H 0.965191 3.712216 3.630177 0
M  V30 38 H 1.459666 3.876097 1.938311 0
M  V30 39 H -1.001824 5.174748 3.058205 0
M  V30 END ATOM
M  V30 BEGIN BOND
M  V30 1 1 1 2
M  V30 2 2 2 3
M  V30 3 1 3 4
M  V30 4 1 4 5
M  V30 5 1 5 6
M  V30 6 2 6 7
M  V30 7 1 6 8
M  V30 8 2 8 9
M  V30 9 1 9 10
M  V30 10 2 10 11
M  V30 11 1 11 12
M  V30 12 2 12 13
M  V30 13 1 13 14
M  V30 14 1 14 15
M  V30 15 2 15 16
M  V30 16 1 14 17
M  V30 17 1 17 18
M  V30 18 1 17 19
M  V30 19 1 19 20
M  V30 20 1 20 21
M  V30 21 2 21 22
M  V30 22 2 4 23
M  V30 23 1 23 24
M  V30 24 1 24 2
M  V30 25 1 16 8
M  V30 26 1 15 11
M  V30 27 1 21 13
M  V30 28 1 1 25
M  V30 29 1 1 26
M  V30 30 1 1 27
M  V30 31 1 3 28
M  V30 32 1 5 29
M  V30 33 1 9 30
M  V30 34 1 10 31
M  V30 35 1 12 32
M  V30 36 1 17 33 CFG=1
M  V30 37 1 18 34
M  V30 38 1 18 35
M  V30 39 1 18 36
M  V30 40 1 19 37
M  V30 41 1 19 38
M  V30 42 1 20 39
M  V30 END BOND
M  V30 END CTAB
M  END
>  <Dataset>  (954) 
ChEMBL_Kinases

>  <Ligand_Instance>  (954) 
nan

>  <PDB_ID>  (954) 
nan

>  <Standardized_SMILES>  (954) 
Cc1cc(NC(=O)c2ccc3cc4n(c3n2)[C@@H](C)CNC4=O)no1

>  <Name>  (954) 
nan

>  <Pocket>  (954) 
nan

>  <ATP_Site>  (954) 
nan

>  <Peripheral>  (954) 
nan

>  <Num_H_Atoms_ProtBoundConf>  (954) 
nan

>  <Num_Resolved_Atoms>  (954) 
nan

>  <Num_Not_Resolved_Atoms>  (954) 
nan

$$$$
CHEMBL3673645
     RDKit          3D

  0  0  0  0  0  0  0  0  0  0999 V3000
M  V30 BEGIN CTAB
M  V30 COUNTS 42 45 0 0 0
M  V30 BEGIN ATOM
M  V30 1 C 4.461341 -6.574387 3.432035 0
M  V30 2 C 3.547697 -5.820817 2.549568 0
M  V30 3 C 3.399054 -4.443723 2.611054 0
M  V30 4 C 2.471142 -4.058632 1.652646 0
M  V30 5 N 1.902722 -2.837979 1.226504 0
M  V30 6 C 2.547370 -2.112173 0.185809 0
M  V30 7 O 3.599200 -2.587574 -0.313617 0
M  V30 8 C 1.983919 -0.842629 -0.279600 0
M  V30 9 C 2.645456 -0.169679 -1.295677 0
M  V30 10 C 2.135850 1.028101 -1.752379 0
M  V30 11 C 0.966306 1.509607 -1.162998 0
M  V30 12 C 0.303337 2.680395 -1.477312 0
M  V30 13 C -0.772291 2.678422 -0.614019 0
M  V30 14 N -0.771624 1.570728 0.185413 0
M  V30 15 C 0.312747 0.833895 -0.151319 0
M  V30 16 N 0.851972 -0.345777 0.268573 0
M  V30 17 C -1.609785 1.061796 1.224551 0
M  V30 18 C -2.148399 -0.309283 0.910102 0
M  V30 19 C -2.706599 1.980130 1.665704 0
M  V30 20 C -3.697662 2.368398 0.624219 0
M  V30 21 N -3.150980 3.587851 -0.000010 0
M  V30 22 C -1.825817 3.716692 -0.519644 0
M  V30 23 O -1.451828 4.832144 -0.967829 0
M  V30 24 N 2.104802 -5.215319 1.060347 0
M  V30 25 O 2.726376 -6.212355 1.581539 0
M  V30 26 H 4.138147 -6.654117 4.473757 0
M  V30 27 H 4.588273 -7.629374 3.068283 0
M  V30 28 H 5.488073 -6.151074 3.429393 0
M  V30 29 H 3.853614 -3.676949 3.236728 0
M  V30 30 H 1.023597 -2.405590 1.618595 0
M  V30 31 H 3.559123 -0.590070 -1.724169 0
M  V30 32 H 2.629432 1.592903 -2.555752 0
M  V30 33 H 0.463432 3.473887 -2.178655 0
M  V30 34 H -0.946491 0.945250 2.120673 0
M  V30 35 H -1.445257 -1.084766 1.277568 0
M  V30 36 H -2.329313 -0.389468 -0.179288 0
M  V30 37 H -3.137741 -0.442870 1.389427 0
M  V30 38 H -2.332597 2.878259 2.192500 0
M  V30 39 H -3.277864 1.416088 2.449286 0
M  V30 40 H -3.820071 1.576255 -0.160662 0
M  V30 41 H -4.691823 2.556658 1.037592 0
M  V30 42 H -3.721949 4.474599 -0.107221 0
M  V30 END ATOM
M  V30 BEGIN BOND
M  V30 1 1 1 2
M  V30 2 2 2 3
M  V30 3 1 3 4
M  V30 4 1 4 5
M  V30 5 1 5 6
M  V30 6 2 6 7
M  V30 7 1 6 8
M  V30 8 2 8 9
M  V30 9 1 9 10
M  V30 10 2 10 11
M  V30 11 1 11 12
M  V30 12 2 12 13
M  V30 13 1 13 14
M  V30 14 1 14 15
M  V30 15 2 15 16
M  V30 16 1 14 17
M  V30 17 1 17 18
M  V30 18 1 17 19
M  V30 19 1 19 20
M  V30 20 1 20 21
M  V30 21 1 21 22
M  V30 22 2 22 23
M  V30 23 2 4 24
M  V30 24 1 24 25
M  V30 25 1 25 2
M  V30 26 1 16 8
M  V30 27 1 15 11
M  V30 28 1 22 13
M  V30 29 1 1 26
M  V30 30 1 1 27
M  V30 31 1 1 28
M  V30 32 1 3 29
M  V30 33 1 5 30
M  V30 34 1 9 31
M  V30 35 1 10 32
M  V30 36 1 12 33
M  V30 37 1 17 34
M  V30 38 1 18 35
M  V30 39 1 18 36
M  V30 40 1 18 37
M  V30 41 1 19 38
M  V30 42 1 19 39
M  V30 43 1 20 40
M  V30 44 1 20 41
M  V30 45 1 21 42
M  V30 END BOND
M  V30 END CTAB
M  END
>  <Dataset>  (955) 
ChEMBL_Kinases

>  <Ligand_Instance>  (955) 
nan

>  <PDB_ID>  (955) 
nan

>  <Standardized_SMILES>  (955) 
Cc1cc(NC(=O)c2ccc3cc4n(c3n2)C(C)CCNC4=O)no1

>  <Name>  (955) 
nan

>  <Pocket>  (955) 
nan

>  <ATP_Site>  (955) 
nan

>  <Peripheral>  (955) 
nan

>  <Num_H_Atoms_ProtBoundConf>  (955) 
nan

>  <Num_Resolved_Atoms>  (955) 
nan

>  <Num_Not_Resolved_Atoms>  (955) 
nan

$$$$
CHEMBL3673644
     RDKit          3D

  0  0  0  0  0  0  0  0  0  0999 V3000
M  V30 BEGIN CTAB
M  V30 COUNTS 46 50 0 0 0
M  V30 BEGIN ATOM
M  V30 1 O 2.623016 -0.010316 3.207082 0
M  V30 2 C 1.606837 -0.329562 2.542605 0
M  V30 3 N 1.576432 0.058642 1.164544 0
M  V30 4 C 2.650192 0.777633 0.563098 0
M  V30 5 C 2.861619 1.258577 -0.715459 0
M  V30 6 C 4.087012 1.897200 -0.779976 0
M  V30 7 C 4.661622 2.534370 -1.965826 0
M  V30 8 C 4.032542 2.575709 -3.193759 0
M  V30 9 C 4.648501 3.201387 -4.269401 0
M  V30 10 C 5.896687 3.773606 -4.070345 0
M  V30 11 C 6.518140 3.729415 -2.845790 0
M  V30 12 C 5.906342 3.109289 -1.781881 0
M  V30 13 N 4.569029 1.775209 0.470417 0
M  V30 14 O 3.746390 1.138082 1.226232 0
M  V30 15 C 0.466280 -1.063832 3.080154 0
M  V30 16 C 0.476937 -1.444396 4.398343 0
M  V30 17 C -0.591814 -2.148746 4.957106 0
M  V30 18 C -1.671126 -2.450076 4.121157 0
M  V30 19 C -2.856881 -3.128511 4.389282 0
M  V30 20 C -3.556611 -3.133806 3.198416 0
M  V30 21 N -2.819848 -2.488180 2.266501 0
M  V30 22 C -1.658603 -2.056914 2.800177 0
M  V30 23 N -0.600360 -1.379823 2.316294 0
M  V30 24 C -3.140412 -2.249834 0.898982 0
M  V30 25 C -4.188509 -3.073063 0.279668 0
M  V30 26 C -5.585683 -2.916168 0.712205 0
M  V30 27 N -5.882831 -3.531628 2.003360 0
M  V30 28 C -4.888710 -3.750427 3.002165 0
M  V30 29 O -5.190886 -4.614478 3.866619 0
M  V30 30 H 0.748184 -0.182301 0.557551 0
M  V30 31 H 2.125704 1.117426 -1.505505 0
M  V30 32 H 3.062685 2.097454 -3.233348 0
M  V30 33 H 4.133078 3.219168 -5.220824 0
M  V30 34 H 6.377687 4.261707 -4.908989 0
M  V30 35 H 7.500322 4.188658 -2.719316 0
M  V30 36 H 6.442524 3.106811 -0.847342 0
M  V30 37 H 1.286527 -1.232020 5.071881 0
M  V30 38 H -0.579093 -2.444419 5.989027 0
M  V30 39 H -3.196041 -3.570951 5.314268 0
M  V30 40 H -2.207160 -2.322533 0.300907 0
M  V30 41 H -3.425696 -1.163661 0.778197 0
M  V30 42 H -4.160163 -2.950084 -0.823941 0
M  V30 43 H -3.921617 -4.154169 0.432266 0
M  V30 44 H -6.240102 -3.422299 -0.027411 0
M  V30 45 H -5.892237 -1.832882 0.688053 0
M  V30 46 H -6.861614 -3.821734 2.200456 0
M  V30 END ATOM
M  V30 BEGIN BOND
M  V30 1 2 1 2
M  V30 2 1 2 3
M  V30 3 1 3 4
M  V30 4 2 4 5
M  V30 5 1 5 6
M  V30 6 1 6 7
M  V30 7 2 7 8
M  V30 8 1 8 9
M  V30 9 2 9 10
M  V30 10 1 10 11
M  V30 11 2 11 12
M  V30 12 2 6 13
M  V30 13 1 13 14
M  V30 14 1 2 15
M  V30 15 2 15 16
M  V30 16 1 16 17
M  V30 17 2 17 18
M  V30 18 1 18 19
M  V30 19 2 19 20
M  V30 20 1 20 21
M  V30 21 1 21 22
M  V30 22 2 22 23
M  V30 23 1 21 24
M  V30 24 1 24 25
M  V30 25 1 25 26
M  V30 26 1 26 27
M  V30 27 1 27 28
M  V30 28 2 28 29
M  V30 29 1 14 4
M  V30 30 1 23 15
M  V30 31 1 12 7
M  V30 32 1 22 18
M  V30 33 1 28 20
M  V30 34 1 3 30
M  V30 35 1 5 31
M  V30 36 1 8 32
M  V30 37 1 9 33
M  V30 38 1 10 34
M  V30 39 1 11 35
M  V30 40 1 12 36
M  V30 41 1 16 37
M  V30 42 1 17 38
M  V30 43 1 19 39
M  V30 44 1 24 40
M  V30 45 1 24 41
M  V30 46 1 25 42
M  V30 47 1 25 43
M  V30 48 1 26 44
M  V30 49 1 26 45
M  V30 50 1 27 46
M  V30 END BOND
M  V30 END CTAB
M  END
>  <Dataset>  (956) 
ChEMBL_Kinases

>  <Ligand_Instance>  (956) 
nan

>  <PDB_ID>  (956) 
nan

>  <Standardized_SMILES>  (956) 
O=C(Nc1cc(-c2ccccc2)no1)c1ccc2cc3n(c2n1)CCCNC3=O

>  <Name>  (956) 
nan

>  <Pocket>  (956) 
nan

>  <ATP_Site>  (956) 
nan

>  <Peripheral>  (956) 
nan

>  <Num_H_Atoms_ProtBoundConf>  (956) 
nan

>  <Num_Resolved_Atoms>  (956) 
nan

>  <Num_Not_Resolved_Atoms>  (956) 
nan

$$$$
CHEMBL3673643
     RDKit          3D

  0  0  0  0  0  0  0  0  0  0999 V3000
M  V30 BEGIN CTAB
M  V30 COUNTS 39 42 0 0 0
M  V30 BEGIN ATOM
M  V30 1 C 3.229550 -7.439161 0.145695 0
M  V30 2 C 3.196291 -6.003238 0.532085 0
M  V30 3 C 2.196444 -5.042363 0.451057 0
M  V30 4 C 2.742663 -3.869219 0.965891 0
M  V30 5 N 1.952506 -2.683460 1.019797 0
M  V30 6 C 2.056888 -1.893683 -0.143148 0
M  V30 7 O 2.834162 -2.382527 -1.023604 0
M  V30 8 C 1.349759 -0.630749 -0.341356 0
M  V30 9 C 1.554670 0.030365 -1.536699 0
M  V30 10 C 0.909659 1.232191 -1.777964 0
M  V30 11 C 0.062003 1.756491 -0.808188 0
M  V30 12 C -0.720938 2.892923 -0.707946 0
M  V30 13 C -1.350241 2.868021 0.517071 0
M  V30 14 N -0.977294 1.749095 1.173759 0
M  V30 15 C -0.123944 1.073963 0.377261 0
M  V30 16 N 0.526562 -0.099093 0.573026 0
M  V30 17 C -1.420696 1.340198 2.513768 0
M  V30 18 C -2.875151 1.703890 2.672005 0
M  V30 19 C -3.082358 3.109112 3.166716 0
M  V30 20 N -3.013654 4.094504 2.112715 0
M  V30 21 C -2.252304 3.947044 0.913606 0
M  V30 22 O -2.396621 4.889626 0.105017 0
M  V30 23 N 4.022198 -4.177565 1.324899 0
M  V30 24 O 4.260247 -5.419942 1.063301 0
M  V30 25 H 3.400100 -8.031417 1.087165 0
M  V30 26 H 2.226110 -7.715553 -0.215887 0
M  V30 27 H 4.025174 -7.604001 -0.605853 0
M  V30 28 H 1.223546 -5.265359 0.051308 0
M  V30 29 H 1.322049 -2.343480 1.803029 0
M  V30 30 H 2.196978 -0.306369 -2.345390 0
M  V30 31 H 1.050028 1.780849 -2.713617 0
M  V30 32 H -0.765077 3.630095 -1.523215 0
M  V30 33 H -0.775464 1.903062 3.216278 0
M  V30 34 H -1.236067 0.263029 2.678638 0
M  V30 35 H -3.303034 1.018768 3.433038 0
M  V30 36 H -3.400641 1.519542 1.722257 0
M  V30 37 H -2.375110 3.337789 3.988757 0
M  V30 38 H -4.103531 3.161505 3.598615 0
M  V30 39 H -3.578501 4.964312 2.282223 0
M  V30 END ATOM
M  V30 BEGIN BOND
M  V30 1 1 1 2
M  V30 2 2 2 3
M  V30 3 1 3 4
M  V30 4 1 4 5
M  V30 5 1 5 6
M  V30 6 2 6 7
M  V30 7 1 6 8
M  V30 8 2 8 9
M  V30 9 1 9 10
M  V30 10 2 10 11
M  V30 11 1 11 12
M  V30 12 2 12 13
M  V30 13 1 13 14
M  V30 14 1 14 15
M  V30 15 2 15 16
M  V30 16 1 14 17
M  V30 17 1 17 18
M  V30 18 1 18 19
M  V30 19 1 19 20
M  V30 20 1 20 21
M  V30 21 2 21 22
M  V30 22 2 4 23
M  V30 23 1 23 24
M  V30 24 1 24 2
M  V30 25 1 16 8
M  V30 26 1 15 11
M  V30 27 1 21 13
M  V30 28 1 1 25
M  V30 29 1 1 26
M  V30 30 1 1 27
M  V30 31 1 3 28
M  V30 32 1 5 29
M  V30 33 1 9 30
M  V30 34 1 10 31
M  V30 35 1 12 32
M  V30 36 1 17 33
M  V30 37 1 17 34
M  V30 38 1 18 35
M  V30 39 1 18 36
M  V30 40 1 19 37
M  V30 41 1 19 38
M  V30 42 1 20 39
M  V30 END BOND
M  V30 END CTAB
M  END
>  <Dataset>  (957) 
ChEMBL_Kinases

>  <Ligand_Instance>  (957) 
nan

>  <PDB_ID>  (957) 
nan

>  <Standardized_SMILES>  (957) 
Cc1cc(NC(=O)c2ccc3cc4n(c3n2)CCCNC4=O)no1

>  <Name>  (957) 
nan

>  <Pocket>  (957) 
nan

>  <ATP_Site>  (957) 
nan

>  <Peripheral>  (957) 
nan

>  <Num_H_Atoms_ProtBoundConf>  (957) 
nan

>  <Num_Resolved_Atoms>  (957) 
nan

>  <Num_Not_Resolved_Atoms>  (957) 
nan

$$$$
CHEMBL3673642
     RDKit          3D

  0  0  0  0  0  0  0  0  0  0999 V3000
M  V30 BEGIN CTAB
M  V30 COUNTS 48 51 0 0 0
M  V30 BEGIN ATOM
M  V30 1 C 3.458888 -5.843990 -0.797219 0
M  V30 2 C 2.864539 -4.968344 -1.850133 0
M  V30 3 C 1.405849 -5.406107 -2.040052 0
M  V30 4 C 3.662502 -5.160592 -3.129331 0
M  V30 5 C 2.904185 -3.534299 -1.471681 0
M  V30 6 C 1.867265 -2.928915 -0.775101 0
M  V30 7 C 2.218805 -1.605464 -0.586309 0
M  V30 8 N 1.489678 -0.571698 0.072528 0
M  V30 9 C 1.923330 0.768215 0.223923 0
M  V30 10 O 3.049917 1.084191 -0.262343 0
M  V30 11 C 1.094536 1.751734 0.919583 0
M  V30 12 C 1.557684 3.048932 1.044021 0
M  V30 13 C 0.723089 3.935557 1.715740 0
M  V30 14 C -0.501771 3.575871 2.240021 0
M  V30 15 C -1.505452 4.222553 2.931264 0
M  V30 16 C -2.496161 3.280156 3.174294 0
M  V30 17 N -2.115080 2.093665 2.650352 0
M  V30 18 C -0.903634 2.255212 2.077829 0
M  V30 19 N -0.108286 1.383518 1.430259 0
M  V30 20 C -2.856691 0.840911 2.680177 0
M  V30 21 C -4.257236 1.148291 2.179886 0
M  V30 22 C -5.202129 1.437014 3.322126 0
M  V30 23 N -4.879598 2.692301 3.982066 0
M  V30 24 C -3.744681 3.553271 3.886532 0
M  V30 25 O -3.775083 4.668068 4.455230 0
M  V30 26 N 3.428627 -1.475370 -1.166528 0
M  V30 27 O 3.821805 -2.606593 -1.681304 0
M  V30 28 H 4.541921 -6.059573 -0.945578 0
M  V30 29 H 3.285284 -5.458703 0.235043 0
M  V30 30 H 2.955857 -6.832884 -0.847933 0
M  V30 31 H 0.940800 -4.647867 -2.715557 0
M  V30 32 H 0.929953 -5.266027 -1.047734 0
M  V30 33 H 1.337610 -6.420383 -2.428312 0
M  V30 34 H 3.163693 -5.983193 -3.676352 0
M  V30 35 H 3.617862 -4.191297 -3.677002 0
M  V30 36 H 4.675240 -5.453848 -2.855173 0
M  V30 37 H 0.909547 -3.316400 -0.394872 0
M  V30 38 H 0.560127 -0.824867 0.475864 0
M  V30 39 H 2.514786 3.369719 0.645391 0
M  V30 40 H 1.056512 4.967054 1.832448 0
M  V30 41 H -1.507216 5.259376 3.220294 0
M  V30 42 H -2.381081 0.119129 1.995808 0
M  V30 43 H -2.961717 0.451926 3.713304 0
M  V30 44 H -4.268124 2.051142 1.535280 0
M  V30 45 H -4.671902 0.299503 1.611651 0
M  V30 46 H -6.210957 1.531566 2.898436 0
M  V30 47 H -5.252080 0.588259 4.052042 0
M  V30 48 H -5.616989 3.012070 4.641848 0
M  V30 END ATOM
M  V30 BEGIN BOND
M  V30 1 1 1 2
M  V30 2 1 2 3
M  V30 3 1 2 4
M  V30 4 1 2 5
M  V30 5 2 5 6
M  V30 6 1 6 7
M  V30 7 1 7 8
M  V30 8 1 8 9
M  V30 9 2 9 10
M  V30 10 1 9 11
M  V30 11 2 11 12
M  V30 12 1 12 13
M  V30 13 2 13 14
M  V30 14 1 14 15
M  V30 15 2 15 16
M  V30 16 1 16 17
M  V30 17 1 17 18
M  V30 18 2 18 19
M  V30 19 1 17 20
M  V30 20 1 20 21
M  V30 21 1 21 22
M  V30 22 1 22 23
M  V30 23 1 23 24
M  V30 24 2 24 25
M  V30 25 2 7 26
M  V30 26 1 26 27
M  V30 27 1 27 5
M  V30 28 1 19 11
M  V30 29 1 18 14
M  V30 30 1 24 16
M  V30 31 1 1 28
M  V30 32 1 1 29
M  V30 33 1 1 30
M  V30 34 1 3 31
M  V30 35 1 3 32
M  V30 36 1 3 33
M  V30 37 1 4 34
M  V30 38 1 4 35
M  V30 39 1 4 36
M  V30 40 1 6 37
M  V30 41 1 8 38
M  V30 42 1 12 39
M  V30 43 1 13 40
M  V30 44 1 15 41
M  V30 45 1 20 42
M  V30 46 1 20 43
M  V30 47 1 21 44
M  V30 48 1 21 45
M  V30 49 1 22 46
M  V30 50 1 22 47
M  V30 51 1 23 48
M  V30 END BOND
M  V30 END CTAB
M  END
>  <Dataset>  (958) 
ChEMBL_Kinases

>  <Ligand_Instance>  (958) 
nan

>  <PDB_ID>  (958) 
nan

>  <Standardized_SMILES>  (958) 
CC(C)(C)c1cc(NC(=O)c2ccc3cc4n(c3n2)CCCNC4=O)no1

>  <Name>  (958) 
nan

>  <Pocket>  (958) 
nan

>  <ATP_Site>  (958) 
nan

>  <Peripheral>  (958) 
nan

>  <Num_H_Atoms_ProtBoundConf>  (958) 
nan

>  <Num_Resolved_Atoms>  (958) 
nan

>  <Num_Not_Resolved_Atoms>  (958) 
nan

$$$$
CHEMBL3673641
     RDKit          3D

  0  0  0  0  0  0  0  0  0  0999 V3000
M  V30 BEGIN CTAB
M  V30 COUNTS 63 67 0 0 0
M  V30 BEGIN ATOM
M  V30 1 C 2.573454 3.023266 4.344496 0
M  V30 2 C 2.525169 1.584386 4.828545 0 CFG=2
M  V30 3 N 3.838204 1.086323 5.170511 0
M  V30 4 C 4.805395 1.106231 4.107385 0
M  V30 5 O 6.037335 1.265670 4.325107 0
M  V30 6 C 4.314137 0.932363 2.726157 0
M  V30 7 C 4.972920 0.897912 1.516462 0
M  V30 8 C 4.013229 0.701665 0.552529 0
M  V30 9 C 3.985958 0.569926 -0.820313 0
M  V30 10 C 2.813441 0.365893 -1.557175 0
M  V30 11 C 1.667364 0.305546 -0.795603 0
M  V30 12 C 0.428538 0.096962 -1.533318 0
M  V30 13 O 0.371386 -0.053879 -2.792031 0
M  V30 14 N -0.821157 0.049334 -0.866131 0
M  V30 15 C -2.193199 -0.117012 -1.088383 0
M  V30 16 N -2.743199 1.045882 -1.540760 0
M  V30 17 C -4.089339 0.864447 -1.694590 0
M  V30 18 C -5.096251 1.704534 -2.116993 0
M  V30 19 C -6.378283 1.212615 -2.163247 0
M  V30 20 C -6.623879 -0.080872 -1.794612 0
M  V30 21 C -5.583734 -0.856151 -1.387304 0
M  V30 22 C -4.242360 -0.447677 -1.305239 0
M  V30 23 N -3.092660 -1.076044 -0.927357 0
M  V30 24 C -3.164498 -2.409090 -0.433075 0
M  V30 25 C -3.243524 -3.524042 -1.377589 0
M  V30 26 C -2.185227 -3.899890 -2.309980 0
M  V30 27 N -0.948865 -4.379296 -1.844335 0
M  V30 28 C -0.052658 -3.505768 -1.183248 0
M  V30 29 C -0.999982 -5.707692 -1.264489 0
M  V30 30 N 1.688319 0.432731 0.536047 0
M  V30 31 C 2.812109 0.628385 1.249048 0
M  V30 32 N 2.990482 0.769161 2.580650 0
M  V30 33 C 2.016660 0.753401 3.654641 0 CFG=1
M  V30 34 C 1.728457 -0.663384 4.115315 0
M  V30 35 H 1.506243 3.380688 4.369206 0
M  V30 36 H 2.912199 3.079501 3.288697 0
M  V30 37 H 3.241420 3.642725 4.948589 0
M  V30 38 H 1.845276 1.467338 5.688139 0
M  V30 39 H 4.150231 0.721199 6.091432 0
M  V30 40 H 6.016253 0.997332 1.302858 0
M  V30 41 H 4.938698 0.630444 -1.350031 0
M  V30 42 H 2.796888 0.264336 -2.626815 0
M  V30 43 H -0.713094 0.184924 0.190057 0
M  V30 44 H -4.776688 2.714706 -2.384817 0
M  V30 45 H -7.123830 1.908248 -2.499309 0
M  V30 46 H -7.640180 -0.446710 -1.838518 0
M  V30 47 H -5.857783 -1.871674 -1.109910 0
M  V30 48 H -4.088789 -2.472598 0.229876 0
M  V30 49 H -2.331298 -2.615941 0.303754 0
M  V30 50 H -4.159268 -3.275661 -2.045163 0
M  V30 51 H -3.671929 -4.427219 -0.824610 0
M  V30 52 H -2.586642 -4.673465 -3.031045 0
M  V30 53 H -1.959237 -2.991069 -2.959782 0
M  V30 54 H -0.181437 -3.449586 -0.086537 0
M  V30 55 H -0.116960 -2.531186 -1.703396 0
M  V30 56 H 1.029028 -3.815189 -1.370208 0
M  V30 57 H -0.373174 -6.363250 -1.902240 0
M  V30 58 H -0.552168 -5.735761 -0.248600 0
M  V30 59 H -2.028233 -6.111242 -1.318659 0
M  V30 60 H 1.069358 1.167085 3.250957 0
M  V30 61 H 0.834227 -0.616872 4.765912 0
M  V30 62 H 2.560003 -1.083588 4.728312 0
M  V30 63 H 1.481678 -1.285920 3.251023 0
M  V30 END ATOM
M  V30 BEGIN BOND
M  V30 1 1 1 2
M  V30 2 1 2 3
M  V30 3 1 3 4
M  V30 4 2 4 5
M  V30 5 1 4 6
M  V30 6 2 6 7
M  V30 7 1 7 8
M  V30 8 2 8 9
M  V30 9 1 9 10
M  V30 10 2 10 11
M  V30 11 1 11 12
M  V30 12 2 12 13
M  V30 13 1 12 14
M  V30 14 1 14 15
M  V30 15 2 15 16
M  V30 16 1 16 17
M  V30 17 2 17 18
M  V30 18 1 18 19
M  V30 19 2 19 20
M  V30 20 1 20 21
M  V30 21 2 21 22
M  V30 22 1 22 23
M  V30 23 1 23 24
M  V30 24 1 24 25
M  V30 25 1 25 26
M  V30 26 1 26 27
M  V30 27 1 27 28
M  V30 28 1 27 29
M  V30 29 1 11 30
M  V30 30 2 30 31
M  V30 31 1 31 32
M  V30 32 1 32 33
M  V30 33 1 33 34
M  V30 34 1 33 2
M  V30 35 1 32 6
M  V30 36 1 31 8
M  V30 37 1 23 15
M  V30 38 1 22 17
M  V30 39 1 1 35
M  V30 40 1 1 36
M  V30 41 1 1 37
M  V30 42 1 2 38 CFG=1
M  V30 43 1 3 39
M  V30 44 1 7 40
M  V30 45 1 9 41
M  V30 46 1 10 42
M  V30 47 1 14 43
M  V30 48 1 18 44
M  V30 49 1 19 45
M  V30 50 1 20 46
M  V30 51 1 21 47
M  V30 52 1 24 48
M  V30 53 1 24 49
M  V30 54 1 25 50
M  V30 55 1 25 51
M  V30 56 1 26 52
M  V30 57 1 26 53
M  V30 58 1 28 54
M  V30 59 1 28 55
M  V30 60 1 28 56
M  V30 61 1 29 57
M  V30 62 1 29 58
M  V30 63 1 29 59
M  V30 64 1 33 60 CFG=3
M  V30 65 1 34 61
M  V30 66 1 34 62
M  V30 67 1 34 63
M  V30 END BOND
M  V30 END CTAB
M  END
>  <Dataset>  (959) 
ChEMBL_Kinases

>  <Ligand_Instance>  (959) 
nan

>  <PDB_ID>  (959) 
nan

>  <Standardized_SMILES>  (959) 
C[C@@H]1NC(=O)c2cc3ccc(C(=O)Nc4nc5ccccc5n4CCCN(C)C)nc3n2[C@H]1C

>  <Name>  (959) 
nan

>  <Pocket>  (959) 
nan

>  <ATP_Site>  (959) 
nan

>  <Peripheral>  (959) 
nan

>  <Num_H_Atoms_ProtBoundConf>  (959) 
nan

>  <Num_Resolved_Atoms>  (959) 
nan

>  <Num_Not_Resolved_Atoms>  (959) 
nan

$$$$
CHEMBL3673640
     RDKit          3D

  0  0  0  0  0  0  0  0  0  0999 V3000
M  V30 BEGIN CTAB
M  V30 COUNTS 63 67 0 0 0
M  V30 BEGIN ATOM
M  V30 1 C 0.853165 3.263557 5.966480 0
M  V30 2 C 1.903501 2.911897 4.943876 0 CFG=1
M  V30 3 N 3.145209 2.498381 5.555778 0
M  V30 4 C 4.233480 2.188631 4.690591 0
M  V30 5 O 5.425514 2.355313 5.060020 0
M  V30 6 C 3.887824 1.673847 3.369750 0
M  V30 7 C 4.647612 1.276193 2.289770 0
M  V30 8 C 3.775178 0.878659 1.301753 0
M  V30 9 C 3.987618 0.398842 0.039119 0
M  V30 10 C 2.902750 0.071760 -0.752289 0
M  V30 11 C 1.643268 0.250221 -0.215922 0
M  V30 12 C 0.475075 -0.089387 -1.035427 0
M  V30 13 O 0.591308 -0.538427 -2.208683 0
M  V30 14 N -0.827376 0.095520 -0.484447 0
M  V30 15 C -2.075050 -0.174492 -1.117866 0
M  V30 16 N -2.817022 0.670671 -1.872217 0
M  V30 17 C -3.938825 0.067834 -2.305967 0
M  V30 18 C -4.996906 0.496209 -3.089853 0
M  V30 19 C -5.992206 -0.445361 -3.321937 0
M  V30 20 C -5.956424 -1.734920 -2.816131 0
M  V30 21 C -4.875749 -2.110159 -2.038895 0
M  V30 22 C -3.854479 -1.202756 -1.778667 0
M  V30 23 N -2.725159 -1.352685 -1.057484 0
M  V30 24 C -2.271367 -2.514319 -0.352758 0
M  V30 25 C -1.419210 -3.447360 -1.147188 0
M  V30 26 C -2.097226 -4.007262 -2.365089 0
M  V30 27 N -1.142405 -4.889402 -3.022147 0
M  V30 28 C -0.069350 -4.076400 -3.552151 0
M  V30 29 C -0.562502 -5.846826 -2.102393 0
M  V30 30 N 1.489944 0.727476 1.036600 0
M  V30 31 C 2.517412 1.057384 1.838582 0
M  V30 32 N 2.574581 1.545154 3.107630 0
M  V30 33 C 1.464751 1.856337 3.985538 0 CFG=1
M  V30 34 C 0.967114 0.604084 4.667458 0
M  V30 35 H 0.749367 2.489194 6.750796 0
M  V30 36 H 1.147013 4.236975 6.417886 0
M  V30 37 H -0.095542 3.410383 5.451474 0
M  V30 38 H 2.097834 3.839646 4.365422 0
M  V30 39 H 3.270357 2.421128 6.593032 0
M  V30 40 H 5.726000 1.284234 2.249165 0
M  V30 41 H 5.002242 0.278468 -0.332195 0
M  V30 42 H 3.100499 -0.302580 -1.739321 0
M  V30 43 H -0.930145 0.467677 0.488816 0
M  V30 44 H -5.045711 1.497830 -3.494872 0
M  V30 45 H -6.820460 -0.109483 -3.935795 0
M  V30 46 H -6.745838 -2.443152 -3.014296 0
M  V30 47 H -4.811006 -3.122364 -1.620438 0
M  V30 48 H -3.096458 -3.110624 0.086652 0
M  V30 49 H -1.645516 -2.171922 0.509290 0
M  V30 50 H -1.162916 -4.301367 -0.487836 0
M  V30 51 H -0.463955 -3.001413 -1.487141 0
M  V30 52 H -2.433106 -3.266111 -3.092654 0
M  V30 53 H -2.958340 -4.641650 -2.025601 0
M  V30 54 H 0.842160 -4.131758 -2.919209 0
M  V30 55 H 0.247511 -4.382488 -4.566396 0
M  V30 56 H -0.344221 -2.998765 -3.621435 0
M  V30 57 H 0.317694 -5.469451 -1.556050 0
M  V30 58 H -0.235812 -6.721512 -2.699075 0
M  V30 59 H -1.333769 -6.162873 -1.359532 0
M  V30 60 H 0.624529 2.262352 3.365593 0
M  V30 61 H 1.210092 -0.305636 4.065993 0
M  V30 62 H 1.415736 0.434063 5.669748 0
M  V30 63 H -0.147752 0.630421 4.742837 0
M  V30 END ATOM
M  V30 BEGIN BOND
M  V30 1 1 1 2
M  V30 2 1 2 3
M  V30 3 1 3 4
M  V30 4 2 4 5
M  V30 5 1 4 6
M  V30 6 2 6 7
M  V30 7 1 7 8
M  V30 8 2 8 9
M  V30 9 1 9 10
M  V30 10 2 10 11
M  V30 11 1 11 12
M  V30 12 2 12 13
M  V30 13 1 12 14
M  V30 14 1 14 15
M  V30 15 2 15 16
M  V30 16 1 16 17
M  V30 17 2 17 18
M  V30 18 1 18 19
M  V30 19 2 19 20
M  V30 20 1 20 21
M  V30 21 2 21 22
M  V30 22 1 22 23
M  V30 23 1 23 24
M  V30 24 1 24 25
M  V30 25 1 25 26
M  V30 26 1 26 27
M  V30 27 1 27 28
M  V30 28 1 27 29
M  V30 29 1 11 30
M  V30 30 2 30 31
M  V30 31 1 31 32
M  V30 32 1 32 33
M  V30 33 1 33 34
M  V30 34 1 33 2
M  V30 35 1 32 6
M  V30 36 1 31 8
M  V30 37 1 23 15
M  V30 38 1 22 17
M  V30 39 1 1 35
M  V30 40 1 1 36
M  V30 41 1 1 37
M  V30 42 1 2 38 CFG=3
M  V30 43 1 3 39
M  V30 44 1 7 40
M  V30 45 1 9 41
M  V30 46 1 10 42
M  V30 47 1 14 43
M  V30 48 1 18 44
M  V30 49 1 19 45
M  V30 50 1 20 46
M  V30 51 1 21 47
M  V30 52 1 24 48
M  V30 53 1 24 49
M  V30 54 1 25 50
M  V30 55 1 25 51
M  V30 56 1 26 52
M  V30 57 1 26 53
M  V30 58 1 28 54
M  V30 59 1 28 55
M  V30 60 1 28 56
M  V30 61 1 29 57
M  V30 62 1 29 58
M  V30 63 1 29 59
M  V30 64 1 33 60 CFG=3
M  V30 65 1 34 61
M  V30 66 1 34 62
M  V30 67 1 34 63
M  V30 END BOND
M  V30 END CTAB
M  END
>  <Dataset>  (960) 
ChEMBL_Kinases

>  <Ligand_Instance>  (960) 
nan

>  <PDB_ID>  (960) 
nan

>  <Standardized_SMILES>  (960) 
C[C@H]1NC(=O)c2cc3ccc(C(=O)Nc4nc5ccccc5n4CCCN(C)C)nc3n2[C@H]1C

>  <Name>  (960) 
nan

>  <Pocket>  (960) 
nan

>  <ATP_Site>  (960) 
nan

>  <Peripheral>  (960) 
nan

>  <Num_H_Atoms_ProtBoundConf>  (960) 
nan

>  <Num_Resolved_Atoms>  (960) 
nan

>  <Num_Not_Resolved_Atoms>  (960) 
nan

$$$$
CHEMBL3673639
     RDKit          3D

  0  0  0  0  0  0  0  0  0  0999 V3000
M  V30 BEGIN CTAB
M  V30 COUNTS 60 64 0 0 0
M  V30 BEGIN ATOM
M  V30 1 C 1.663591 -0.641929 4.527323 0
M  V30 2 C 2.611140 -1.367322 3.609115 0 CFG=2
M  V30 3 C 3.534075 -2.322718 4.353660 0
M  V30 4 N 4.519502 -1.563865 5.101814 0
M  V30 5 C 5.319847 -0.622896 4.380261 0
M  V30 6 O 6.485517 -0.356654 4.784165 0
M  V30 7 C 4.678886 -0.043476 3.201943 0
M  V30 8 C 5.167574 0.880035 2.300830 0
M  V30 9 C 4.183948 1.110112 1.360350 0
M  V30 10 C 4.063508 1.904206 0.235093 0
M  V30 11 C 2.893097 1.886263 -0.499519 0
M  V30 12 C 1.843803 1.076078 -0.110953 0
M  V30 13 C 0.595553 1.042275 -0.877046 0
M  V30 14 O 0.439259 1.749710 -1.908506 0
M  V30 15 N -0.448626 0.184703 -0.427821 0
M  V30 16 C -1.673261 0.155457 -1.184663 0
M  V30 17 N -2.581672 1.058044 -0.768977 0
M  V30 18 C -3.647243 0.898113 -1.599388 0
M  V30 19 C -4.885017 1.484287 -1.729459 0
M  V30 20 C -5.774871 1.073704 -2.722427 0
M  V30 21 C -5.425117 0.056193 -3.606646 0
M  V30 22 C -4.186759 -0.538374 -3.485345 0
M  V30 23 C -3.330869 -0.106056 -2.489866 0
M  V30 24 N -2.089042 -0.593877 -2.250571 0
M  V30 25 C -1.249510 -1.590948 -2.858796 0
M  V30 26 C -1.517274 -2.953442 -2.320045 0
M  V30 27 C -1.345419 -3.150040 -0.863922 0
M  V30 28 N -2.207748 -2.367389 -0.015192 0
M  V30 29 C -1.878663 -2.645935 1.397230 0
M  V30 30 C -3.608355 -2.738243 -0.190515 0
M  V30 31 N 2.000658 0.305754 1.006586 0
M  V30 32 C 3.131892 0.303460 1.742533 0
M  V30 33 N 3.410513 -0.412298 2.866779 0
M  V30 34 H 0.621687 -0.609538 4.134889 0
M  V30 35 H 1.966057 0.412144 4.649281 0
M  V30 36 H 1.677247 -1.125194 5.532384 0
M  V30 37 H 1.977257 -1.923176 2.896599 0
M  V30 38 H 2.970291 -2.998089 5.008474 0
M  V30 39 H 4.005684 -2.963687 3.554032 0
M  V30 40 H 4.657484 -1.688296 6.149821 0
M  V30 41 H 6.137492 1.346013 2.314538 0
M  V30 42 H 4.890918 2.537189 -0.063760 0
M  V30 43 H 2.755169 2.498410 -1.396014 0
M  V30 44 H -0.277031 -0.391976 0.441906 0
M  V30 45 H -5.150522 2.269642 -1.044308 0
M  V30 46 H -6.741001 1.557421 -2.795851 0
M  V30 47 H -6.097480 -0.275640 -4.380310 0
M  V30 48 H -3.931923 -1.322747 -4.176193 0
M  V30 49 H -0.184163 -1.298115 -2.739657 0
M  V30 50 H -1.466774 -1.601847 -3.961742 0
M  V30 51 H -2.579495 -3.253131 -2.564743 0
M  V30 52 H -0.887510 -3.721421 -2.830983 0
M  V30 53 H -1.602512 -4.228593 -0.648939 0
M  V30 54 H -0.283516 -3.009698 -0.518916 0
M  V30 55 H -0.799736 -2.457632 1.564201 0
M  V30 56 H -2.091461 -3.693032 1.653146 0
M  V30 57 H -2.489004 -1.981875 2.044659 0
M  V30 58 H -4.197760 -2.154347 0.555302 0
M  V30 59 H -3.662504 -3.801799 0.149396 0
M  V30 60 H -3.953138 -2.618881 -1.220368 0
M  V30 END ATOM
M  V30 BEGIN BOND
M  V30 1 1 1 2
M  V30 2 1 2 3
M  V30 3 1 3 4
M  V30 4 1 4 5
M  V30 5 2 5 6
M  V30 6 1 5 7
M  V30 7 2 7 8
M  V30 8 1 8 9
M  V30 9 2 9 10
M  V30 10 1 10 11
M  V30 11 2 11 12
M  V30 12 1 12 13
M  V30 13 2 13 14
M  V30 14 1 13 15
M  V30 15 1 15 16
M  V30 16 2 16 17
M  V30 17 1 17 18
M  V30 18 2 18 19
M  V30 19 1 19 20
M  V30 20 2 20 21
M  V30 21 1 21 22
M  V30 22 2 22 23
M  V30 23 1 23 24
M  V30 24 1 24 25
M  V30 25 1 25 26
M  V30 26 1 26 27
M  V30 27 1 27 28
M  V30 28 1 28 29
M  V30 29 1 28 30
M  V30 30 1 12 31
M  V30 31 2 31 32
M  V30 32 1 32 33
M  V30 33 1 33 2
M  V30 34 1 33 7
M  V30 35 1 32 9
M  V30 36 1 24 16
M  V30 37 1 23 18
M  V30 38 1 1 34
M  V30 39 1 1 35
M  V30 40 1 1 36
M  V30 41 1 2 37 CFG=3
M  V30 42 1 3 38
M  V30 43 1 3 39
M  V30 44 1 4 40
M  V30 45 1 8 41
M  V30 46 1 10 42
M  V30 47 1 11 43
M  V30 48 1 15 44
M  V30 49 1 19 45
M  V30 50 1 20 46
M  V30 51 1 21 47
M  V30 52 1 22 48
M  V30 53 1 25 49
M  V30 54 1 25 50
M  V30 55 1 26 51
M  V30 56 1 26 52
M  V30 57 1 27 53
M  V30 58 1 27 54
M  V30 59 1 29 55
M  V30 60 1 29 56
M  V30 61 1 29 57
M  V30 62 1 30 58
M  V30 63 1 30 59
M  V30 64 1 30 60
M  V30 END BOND
M  V30 END CTAB
M  END
>  <Dataset>  (961) 
ChEMBL_Kinases

>  <Ligand_Instance>  (961) 
nan

>  <PDB_ID>  (961) 
nan

>  <Standardized_SMILES>  (961) 
C[C@@H]1CNC(=O)c2cc3ccc(C(=O)Nc4nc5ccccc5n4CCCN(C)C)nc3n21

>  <Name>  (961) 
nan

>  <Pocket>  (961) 
nan

>  <ATP_Site>  (961) 
nan

>  <Peripheral>  (961) 
nan

>  <Num_H_Atoms_ProtBoundConf>  (961) 
nan

>  <Num_Resolved_Atoms>  (961) 
nan

>  <Num_Not_Resolved_Atoms>  (961) 
nan

$$$$
CHEMBL3673638
     RDKit          3D

  0  0  0  0  0  0  0  0  0  0999 V3000
M  V30 BEGIN CTAB
M  V30 COUNTS 60 64 0 0 0
M  V30 BEGIN ATOM
M  V30 1 C 2.683644 -2.174810 2.526507 0
M  V30 2 C 2.914013 -0.847509 3.190628 0 CFG=1
M  V30 3 C 3.858989 -0.970685 4.342163 0
M  V30 4 N 5.247560 -1.040948 3.936822 0
M  V30 5 C 5.710042 -0.058456 3.022782 0
M  V30 6 O 6.937018 0.246934 2.991678 0
M  V30 7 C 4.707281 0.549373 2.156257 0
M  V30 8 C 4.816992 1.514672 1.177661 0
M  V30 9 C 3.553463 1.742464 0.645542 0
M  V30 10 C 3.046042 2.570540 -0.334460 0
M  V30 11 C 1.689845 2.543054 -0.622658 0
M  V30 12 C 0.875342 1.681820 0.083045 0
M  V30 13 C -0.545267 1.694650 -0.262182 0
M  V30 14 O -1.036277 2.436769 -1.148867 0
M  V30 15 N -1.370580 0.806731 0.468649 0
M  V30 16 C -2.751739 0.512151 0.452415 0
M  V30 17 N -3.747196 1.101055 1.177727 0
M  V30 18 C -4.882816 0.461259 0.798683 0
M  V30 19 C -6.178921 0.676346 1.235613 0
M  V30 20 C -7.234247 -0.065101 0.748267 0
M  V30 21 C -6.980057 -1.043766 -0.198840 0
M  V30 22 C -5.673392 -1.261003 -0.639695 0
M  V30 23 C -4.598837 -0.519989 -0.156291 0
M  V30 24 N -3.277334 -0.462768 -0.347409 0
M  V30 25 C -2.615305 -1.331652 -1.268735 0
M  V30 26 C -2.139578 -2.636420 -0.669152 0
M  V30 27 C -1.448589 -3.480966 -1.747673 0
M  V30 28 N -0.316812 -2.810867 -2.306551 0
M  V30 29 C 0.285377 -3.674152 -3.321287 0
M  V30 30 C 0.685427 -2.610604 -1.280915 0
M  V30 31 N 1.414817 0.894904 1.027714 0
M  V30 32 C 2.719131 0.888863 1.338678 0
M  V30 33 N 3.419765 0.161172 2.259369 0
M  V30 34 H 1.795046 -2.661838 3.002358 0
M  V30 35 H 3.517996 -2.876896 2.585029 0
M  V30 36 H 2.408063 -2.002175 1.450052 0
M  V30 37 H 1.936490 -0.495651 3.631516 0
M  V30 38 H 3.781048 -0.075984 5.014351 0
M  V30 39 H 3.579449 -1.843515 4.977433 0
M  V30 40 H 5.878253 -1.784111 4.303558 0
M  V30 41 H 5.736817 2.019132 0.867706 0
M  V30 42 H 3.724631 3.231788 -0.863873 0
M  V30 43 H 1.297219 3.205637 -1.403667 0
M  V30 44 H -0.971533 0.178472 1.215414 0
M  V30 45 H -6.472445 1.409181 1.963852 0
M  V30 46 H -8.258599 0.071622 1.062991 0
M  V30 47 H -7.729550 -1.692778 -0.657578 0
M  V30 48 H -5.453413 -2.022776 -1.380997 0
M  V30 49 H -3.200021 -1.491627 -2.181839 0
M  V30 50 H -1.695613 -0.771699 -1.610518 0
M  V30 51 H -1.416504 -2.492580 0.131494 0
M  V30 52 H -3.034379 -3.222928 -0.374677 0
M  V30 53 H -1.152049 -4.440830 -1.243161 0
M  V30 54 H -2.201077 -3.739164 -2.517092 0
M  V30 55 H 1.208272 -3.185432 -3.669149 0
M  V30 56 H -0.441142 -3.797224 -4.169470 0
M  V30 57 H 0.467986 -4.680798 -2.915395 0
M  V30 58 H 0.900468 -3.565796 -0.797178 0
M  V30 59 H 0.368334 -1.792285 -0.597343 0
M  V30 60 H 1.615124 -2.317766 -1.834431 0
M  V30 END ATOM
M  V30 BEGIN BOND
M  V30 1 1 1 2
M  V30 2 1 2 3
M  V30 3 1 3 4
M  V30 4 1 4 5
M  V30 5 2 5 6
M  V30 6 1 5 7
M  V30 7 2 7 8
M  V30 8 1 8 9
M  V30 9 2 9 10
M  V30 10 1 10 11
M  V30 11 2 11 12
M  V30 12 1 12 13
M  V30 13 2 13 14
M  V30 14 1 13 15
M  V30 15 1 15 16
M  V30 16 2 16 17
M  V30 17 1 17 18
M  V30 18 2 18 19
M  V30 19 1 19 20
M  V30 20 2 20 21
M  V30 21 1 21 22
M  V30 22 2 22 23
M  V30 23 1 23 24
M  V30 24 1 24 25
M  V30 25 1 25 26
M  V30 26 1 26 27
M  V30 27 1 27 28
M  V30 28 1 28 29
M  V30 29 1 28 30
M  V30 30 1 12 31
M  V30 31 2 31 32
M  V30 32 1 32 33
M  V30 33 1 33 2
M  V30 34 1 33 7
M  V30 35 1 32 9
M  V30 36 1 24 16
M  V30 37 1 23 18
M  V30 38 1 1 34
M  V30 39 1 1 35
M  V30 40 1 1 36
M  V30 41 1 2 37 CFG=1
M  V30 42 1 3 38
M  V30 43 1 3 39
M  V30 44 1 4 40
M  V30 45 1 8 41
M  V30 46 1 10 42
M  V30 47 1 11 43
M  V30 48 1 15 44
M  V30 49 1 19 45
M  V30 50 1 20 46
M  V30 51 1 21 47
M  V30 52 1 22 48
M  V30 53 1 25 49
M  V30 54 1 25 50
M  V30 55 1 26 51
M  V30 56 1 26 52
M  V30 57 1 27 53
M  V30 58 1 27 54
M  V30 59 1 29 55
M  V30 60 1 29 56
M  V30 61 1 29 57
M  V30 62 1 30 58
M  V30 63 1 30 59
M  V30 64 1 30 60
M  V30 END BOND
M  V30 END CTAB
M  END
>  <Dataset>  (962) 
ChEMBL_Kinases

>  <Ligand_Instance>  (962) 
nan

>  <PDB_ID>  (962) 
nan

>  <Standardized_SMILES>  (962) 
C[C@H]1CNC(=O)c2cc3ccc(C(=O)Nc4nc5ccccc5n4CCCN(C)C)nc3n21

>  <Name>  (962) 
nan

>  <Pocket>  (962) 
nan

>  <ATP_Site>  (962) 
nan

>  <Peripheral>  (962) 
nan

>  <Num_H_Atoms_ProtBoundConf>  (962) 
nan

>  <Num_Resolved_Atoms>  (962) 
nan

>  <Num_Not_Resolved_Atoms>  (962) 
nan

$$$$
CHEMBL3673637
     RDKit          3D

  0  0  0  0  0  0  0  0  0  0999 V3000
M  V30 BEGIN CTAB
M  V30 COUNTS 52 56 0 0 0
M  V30 BEGIN ATOM
M  V30 1 C -1.313681 -4.044023 2.413369 0
M  V30 2 C 0.196834 -4.098259 2.465495 0
M  V30 3 N 0.785116 -4.339354 1.170637 0
M  V30 4 C 1.143319 -3.374101 0.302307 0
M  V30 5 N 1.048705 -1.943935 0.409624 0
M  V30 6 C 2.130667 -1.174918 0.971301 0
M  V30 7 O 3.182921 -1.730190 1.381581 0
M  V30 8 C 1.965099 0.296257 1.051230 0
M  V30 9 C 3.000067 1.032334 1.590894 0
M  V30 10 C 2.818417 2.399130 1.653756 0
M  V30 11 C 1.634680 2.921189 1.180137 0
M  V30 12 C 1.254327 4.256238 1.150776 0
M  V30 13 C -0.004384 4.242976 0.587234 0
M  V30 14 N -0.418816 3.014521 0.272750 0
M  V30 15 C 0.592144 2.198537 0.638499 0
M  V30 16 N 0.835584 0.882811 0.608615 0
M  V30 17 C -1.660304 2.640318 -0.324720 0 CFG=1
M  V30 18 C -2.143785 1.278157 0.037449 0
M  V30 19 C -2.711390 3.668287 0.023366 0 CFG=2
M  V30 20 C -4.031954 3.396394 -0.640763 0
M  V30 21 N -2.182960 4.971602 -0.303119 0
M  V30 22 C -0.939404 5.349033 0.288964 0
M  V30 23 O -0.666697 6.550997 0.536946 0
M  V30 24 N 1.645517 -3.959447 -0.775874 0
M  V30 25 C 1.641715 -5.310627 -0.670351 0
M  V30 26 C 2.022631 -6.388848 -1.443267 0
M  V30 27 C 1.828911 -7.656537 -0.921047 0
M  V30 28 C 1.279660 -7.899286 0.321477 0
M  V30 29 C 0.911559 -6.791442 1.063882 0
M  V30 30 C 1.096614 -5.509066 0.559770 0
M  V30 31 H -1.748479 -5.067213 2.343938 0
M  V30 32 H -1.697577 -3.488829 1.537341 0
M  V30 33 H -1.674576 -3.500316 3.309824 0
M  V30 34 H 0.480179 -4.901434 3.178057 0
M  V30 35 H 0.602897 -3.157446 2.883980 0
M  V30 36 H 0.166924 -1.526680 0.061102 0
M  V30 37 H 3.921582 0.627790 1.959796 0
M  V30 38 H 3.591003 3.008751 2.063131 0
M  V30 39 H 1.784805 5.125175 1.479125 0
M  V30 40 H -1.529498 2.660153 -1.427818 0
M  V30 41 H -1.529103 0.705667 0.730439 0
M  V30 42 H -3.153564 1.353509 0.538524 0
M  V30 43 H -2.370344 0.644163 -0.870185 0
M  V30 44 H -2.850770 3.622672 1.132954 0
M  V30 45 H -4.603668 2.680615 -0.002556 0
M  V30 46 H -4.620891 4.358164 -0.579974 0
M  V30 47 H -3.948536 3.053584 -1.673167 0
M  V30 48 H -2.661357 5.640335 -0.941808 0
M  V30 49 H 2.450296 -6.188520 -2.411241 0
M  V30 50 H 2.159586 -8.447906 -1.602814 0
M  V30 51 H 1.172256 -8.934499 0.634313 0
M  V30 52 H 0.482065 -7.043025 2.039810 0
M  V30 END ATOM
M  V30 BEGIN BOND
M  V30 1 1 1 2
M  V30 2 1 2 3
M  V30 3 1 3 4
M  V30 4 1 4 5
M  V30 5 1 5 6
M  V30 6 2 6 7
M  V30 7 1 6 8
M  V30 8 2 8 9
M  V30 9 1 9 10
M  V30 10 2 10 11
M  V30 11 1 11 12
M  V30 12 2 12 13
M  V30 13 1 13 14
M  V30 14 1 14 15
M  V30 15 2 15 16
M  V30 16 1 14 17
M  V30 17 1 17 18
M  V30 18 1 17 19
M  V30 19 1 19 20
M  V30 20 1 19 21
M  V30 21 1 21 22
M  V30 22 2 22 23
M  V30 23 2 4 24
M  V30 24 1 24 25
M  V30 25 2 25 26
M  V30 26 1 26 27
M  V30 27 2 27 28
M  V30 28 1 28 29
M  V30 29 2 29 30
M  V30 30 1 30 3
M  V30 31 1 16 8
M  V30 32 1 30 25
M  V30 33 1 15 11
M  V30 34 1 22 13
M  V30 35 1 1 31
M  V30 36 1 1 32
M  V30 37 1 1 33
M  V30 38 1 2 34
M  V30 39 1 2 35
M  V30 40 1 5 36
M  V30 41 1 9 37
M  V30 42 1 10 38
M  V30 43 1 12 39
M  V30 44 1 17 40 CFG=3
M  V30 45 1 18 41
M  V30 46 1 18 42
M  V30 47 1 18 43
M  V30 48 1 19 44 CFG=1
M  V30 49 1 20 45
M  V30 50 1 20 46
M  V30 51 1 20 47
M  V30 52 1 21 48
M  V30 53 1 26 49
M  V30 54 1 27 50
M  V30 55 1 28 51
M  V30 56 1 29 52
M  V30 END BOND
M  V30 END CTAB
M  END
>  <Dataset>  (963) 
ChEMBL_Kinases

>  <Ligand_Instance>  (963) 
nan

>  <PDB_ID>  (963) 
nan

>  <Standardized_SMILES>  (963) 
CCn1c(NC(=O)c2ccc3cc4n(c3n2)[C@@H](C)[C@H](C)NC4=O)nc2ccccc21

>  <Name>  (963) 
nan

>  <Pocket>  (963) 
nan

>  <ATP_Site>  (963) 
nan

>  <Peripheral>  (963) 
nan

>  <Num_H_Atoms_ProtBoundConf>  (963) 
nan

>  <Num_Resolved_Atoms>  (963) 
nan

>  <Num_Not_Resolved_Atoms>  (963) 
nan

$$$$
CHEMBL3673636
     RDKit          3D

  0  0  0  0  0  0  0  0  0  0999 V3000
M  V30 BEGIN CTAB
M  V30 COUNTS 52 56 0 0 0
M  V30 BEGIN ATOM
M  V30 1 C 0.125511 -3.052056 -3.175663 0
M  V30 2 C -0.533832 -3.675077 -1.955073 0
M  V30 3 N 0.530725 -4.185178 -1.091668 0
M  V30 4 C 1.151009 -3.483196 -0.101421 0
M  V30 5 N 0.828981 -2.119549 0.227066 0
M  V30 6 C 1.486807 -1.034072 -0.392233 0
M  V30 7 O 2.355425 -1.404489 -1.234105 0
M  V30 8 C 1.215216 0.359679 -0.111897 0
M  V30 9 C 1.944089 1.309405 -0.801390 0
M  V30 10 C 1.753927 2.661399 -0.599993 0
M  V30 11 C 0.779976 3.007702 0.343059 0
M  V30 12 C 0.396053 4.274880 0.730036 0
M  V30 13 C -0.601157 4.075839 1.688183 0
M  V30 14 N -0.795913 2.747754 1.857944 0
M  V30 15 C 0.055752 2.078772 1.028350 0
M  V30 16 N 0.296016 0.763393 0.779171 0
M  V30 17 C -1.735485 2.152517 2.755165 0 CFG=1
M  V30 18 C -1.048842 1.571454 3.992928 0
M  V30 19 C -2.821193 3.088473 3.201927 0 CFG=1
M  V30 20 C -3.438127 2.661461 4.519997 0
M  V30 21 N -2.378146 4.450068 3.405473 0
M  V30 22 C -1.428124 4.969980 2.497069 0
M  V30 23 O -1.200638 6.205985 2.294524 0
M  V30 24 N 2.069652 -4.304309 0.457881 0
M  V30 25 C 2.024822 -5.508185 -0.175931 0
M  V30 26 C 2.732553 -6.682503 -0.009150 0
M  V30 27 C 2.423944 -7.738973 -0.846626 0
M  V30 28 C 1.460272 -7.693735 -1.831263 0
M  V30 29 C 0.756602 -6.498787 -1.983741 0
M  V30 30 C 1.054531 -5.424312 -1.148645 0
M  V30 31 H -0.497628 -3.287160 -4.073642 0
M  V30 32 H 1.099742 -3.585389 -3.334216 0
M  V30 33 H 0.261049 -1.954019 -3.056665 0
M  V30 34 H -1.115769 -4.543105 -2.303312 0
M  V30 35 H -1.141902 -2.940323 -1.398009 0
M  V30 36 H 0.080850 -1.913052 0.950631 0
M  V30 37 H 2.694493 1.023820 -1.528236 0
M  V30 38 H 2.306828 3.437733 -1.122277 0
M  V30 39 H 0.753326 5.241383 0.398815 0
M  V30 40 H -2.249586 1.288409 2.281011 0
M  V30 41 H -1.720940 0.788187 4.435067 0
M  V30 42 H -0.141446 1.019249 3.673379 0
M  V30 43 H -0.838487 2.345805 4.756548 0
M  V30 44 H -3.664621 3.134831 2.469466 0
M  V30 45 H -3.816316 1.619909 4.479290 0
M  V30 46 H -4.368812 3.292444 4.631600 0
M  V30 47 H -2.817514 2.879338 5.395376 0
M  V30 48 H -2.681803 5.100153 4.153282 0
M  V30 49 H 3.505080 -6.763165 0.758539 0
M  V30 50 H 2.994871 -8.643448 -0.691190 0
M  V30 51 H 1.265068 -8.565875 -2.460400 0
M  V30 52 H -0.002549 -6.446606 -2.751343 0
M  V30 END ATOM
M  V30 BEGIN BOND
M  V30 1 1 1 2
M  V30 2 1 2 3
M  V30 3 1 3 4
M  V30 4 1 4 5
M  V30 5 1 5 6
M  V30 6 2 6 7
M  V30 7 1 6 8
M  V30 8 2 8 9
M  V30 9 1 9 10
M  V30 10 2 10 11
M  V30 11 1 11 12
M  V30 12 2 12 13
M  V30 13 1 13 14
M  V30 14 1 14 15
M  V30 15 2 15 16
M  V30 16 1 14 17
M  V30 17 1 17 18
M  V30 18 1 17 19
M  V30 19 1 19 20
M  V30 20 1 19 21
M  V30 21 1 21 22
M  V30 22 2 22 23
M  V30 23 2 4 24
M  V30 24 1 24 25
M  V30 25 2 25 26
M  V30 26 1 26 27
M  V30 27 2 27 28
M  V30 28 1 28 29
M  V30 29 2 29 30
M  V30 30 1 30 3
M  V30 31 1 16 8
M  V30 32 1 30 25
M  V30 33 1 15 11
M  V30 34 1 22 13
M  V30 35 1 1 31
M  V30 36 1 1 32
M  V30 37 1 1 33
M  V30 38 1 2 34
M  V30 39 1 2 35
M  V30 40 1 5 36
M  V30 41 1 9 37
M  V30 42 1 10 38
M  V30 43 1 12 39
M  V30 44 1 17 40 CFG=3
M  V30 45 1 18 41
M  V30 46 1 18 42
M  V30 47 1 18 43
M  V30 48 1 19 44 CFG=3
M  V30 49 1 20 45
M  V30 50 1 20 46
M  V30 51 1 20 47
M  V30 52 1 21 48
M  V30 53 1 26 49
M  V30 54 1 27 50
M  V30 55 1 28 51
M  V30 56 1 29 52
M  V30 END BOND
M  V30 END CTAB
M  END
>  <Dataset>  (964) 
ChEMBL_Kinases

>  <Ligand_Instance>  (964) 
nan

>  <PDB_ID>  (964) 
nan

>  <Standardized_SMILES>  (964) 
CCn1c(NC(=O)c2ccc3cc4n(c3n2)[C@@H](C)[C@@H](C)NC4=O)nc2ccccc21

>  <Name>  (964) 
nan

>  <Pocket>  (964) 
nan

>  <ATP_Site>  (964) 
nan

>  <Peripheral>  (964) 
nan

>  <Num_H_Atoms_ProtBoundConf>  (964) 
nan

>  <Num_Resolved_Atoms>  (964) 
nan

>  <Num_Not_Resolved_Atoms>  (964) 
nan

$$$$
CHEMBL3673635
     RDKit          3D

  0  0  0  0  0  0  0  0  0  0999 V3000
M  V30 BEGIN CTAB
M  V30 COUNTS 49 53 0 0 0
M  V30 BEGIN ATOM
M  V30 1 C -1.043749 -3.038345 -1.880738 0
M  V30 2 C 0.396461 -3.431916 -1.591847 0
M  V30 3 N 0.504228 -4.022665 -0.250562 0
M  V30 4 C 0.755132 -3.241382 0.839210 0
M  V30 5 N 0.949909 -1.829928 0.926398 0
M  V30 6 C 2.141439 -1.057570 0.836181 0
M  V30 7 O 3.247501 -1.627554 0.650369 0
M  V30 8 C 1.995845 0.388211 0.969356 0
M  V30 9 C 3.138031 1.154713 0.884940 0
M  V30 10 C 3.027895 2.536898 1.008568 0
M  V30 11 C 1.771409 3.115610 1.214207 0
M  V30 12 C 1.361610 4.428871 1.370448 0
M  V30 13 C -0.016937 4.394247 1.542953 0
M  V30 14 N -0.435765 3.100062 1.493568 0
M  V30 15 C 0.654763 2.313293 1.292537 0
M  V30 16 N 0.818430 0.999240 1.167507 0
M  V30 17 C -1.816629 2.672697 1.635226 0 CFG=2
M  V30 18 C -2.388657 2.249864 0.303099 0
M  V30 19 C -2.656831 3.709228 2.302709 0
M  V30 20 N -2.380798 5.064507 1.896603 0
M  V30 21 C -1.002011 5.443273 1.751365 0
M  V30 22 O -0.592627 6.616883 1.792393 0
M  V30 23 N 0.796016 -4.058285 1.906914 0
M  V30 24 C 0.575644 -5.343225 1.514240 0
M  V30 25 C 0.503824 -6.578734 2.156258 0
M  V30 26 C 0.252295 -7.713101 1.394824 0
M  V30 27 C 0.071345 -7.660130 0.027777 0
M  V30 28 C 0.139672 -6.442495 -0.622815 0
M  V30 29 C 0.391997 -5.306281 0.142653 0
M  V30 30 H -1.578924 -3.053358 -0.908760 0
M  V30 31 H -1.123121 -2.041777 -2.374479 0
M  V30 32 H -1.545933 -3.826518 -2.508538 0
M  V30 33 H 0.715924 -4.189381 -2.343432 0
M  V30 34 H 1.055091 -2.549207 -1.660885 0
M  V30 35 H 0.009587 -1.404339 1.079701 0
M  V30 36 H 4.112392 0.715861 0.726253 0
M  V30 37 H 3.918471 3.178930 0.946261 0
M  V30 38 H 1.988149 5.311756 1.360819 0
M  V30 39 H -1.815022 1.769004 2.297236 0
M  V30 40 H -2.982684 1.317465 0.422045 0
M  V30 41 H -1.541526 2.002030 -0.379731 0
M  V30 42 H -2.997780 3.086196 -0.092562 0
M  V30 43 H -2.701159 3.605669 3.425425 0
M  V30 44 H -3.719073 3.506050 1.978091 0
M  V30 45 H -3.091949 5.789994 1.700165 0
M  V30 46 H 0.651766 -6.569935 3.224825 0
M  V30 47 H 0.204661 -8.648196 1.929692 0
M  V30 48 H -0.126215 -8.577926 -0.545028 0
M  V30 49 H 0.000810 -6.365753 -1.705838 0
M  V30 END ATOM
M  V30 BEGIN BOND
M  V30 1 1 1 2
M  V30 2 1 2 3
M  V30 3 1 3 4
M  V30 4 1 4 5
M  V30 5 1 5 6
M  V30 6 2 6 7
M  V30 7 1 6 8
M  V30 8 2 8 9
M  V30 9 1 9 10
M  V30 10 2 10 11
M  V30 11 1 11 12
M  V30 12 2 12 13
M  V30 13 1 13 14
M  V30 14 1 14 15
M  V30 15 2 15 16
M  V30 16 1 14 17
M  V30 17 1 17 18
M  V30 18 1 17 19
M  V30 19 1 19 20
M  V30 20 1 20 21
M  V30 21 2 21 22
M  V30 22 2 4 23
M  V30 23 1 23 24
M  V30 24 2 24 25
M  V30 25 1 25 26
M  V30 26 2 26 27
M  V30 27 1 27 28
M  V30 28 2 28 29
M  V30 29 1 29 3
M  V30 30 1 16 8
M  V30 31 1 29 24
M  V30 32 1 15 11
M  V30 33 1 21 13
M  V30 34 1 1 30
M  V30 35 1 1 31
M  V30 36 1 1 32
M  V30 37 1 2 33
M  V30 38 1 2 34
M  V30 39 1 5 35
M  V30 40 1 9 36
M  V30 41 1 10 37
M  V30 42 1 12 38
M  V30 43 1 17 39 CFG=1
M  V30 44 1 18 40
M  V30 45 1 18 41
M  V30 46 1 18 42
M  V30 47 1 19 43
M  V30 48 1 19 44
M  V30 49 1 20 45
M  V30 50 1 25 46
M  V30 51 1 26 47
M  V30 52 1 27 48
M  V30 53 1 28 49
M  V30 END BOND
M  V30 END CTAB
M  END
>  <Dataset>  (965) 
ChEMBL_Kinases

>  <Ligand_Instance>  (965) 
nan

>  <PDB_ID>  (965) 
nan

>  <Standardized_SMILES>  (965) 
CCn1c(NC(=O)c2ccc3cc4n(c3n2)[C@H](C)CNC4=O)nc2ccccc21

>  <Name>  (965) 
nan

>  <Pocket>  (965) 
nan

>  <ATP_Site>  (965) 
nan

>  <Peripheral>  (965) 
nan

>  <Num_H_Atoms_ProtBoundConf>  (965) 
nan

>  <Num_Resolved_Atoms>  (965) 
nan

>  <Num_Not_Resolved_Atoms>  (965) 
nan

$$$$
CHEMBL3674601
     RDKit          3D

  0  0  0  0  0  0  0  0  0  0999 V3000
M  V30 BEGIN CTAB
M  V30 COUNTS 61 64 0 0 0
M  V30 BEGIN ATOM
M  V30 1 C 0.374695 -2.810473 4.337372 0
M  V30 2 C 1.613614 -2.039282 4.114857 0
M  V30 3 N 2.830369 -2.562225 4.285601 0
M  V30 4 C 3.946725 -1.843752 4.077963 0
M  V30 5 N 3.836127 -0.539066 3.680658 0
M  V30 6 C 2.611725 0.035907 3.494799 0
M  V30 7 N 2.780769 1.376925 3.089390 0
M  V30 8 C 2.772602 2.002764 1.810508 0
M  V30 9 N 2.992270 3.255808 1.407661 0
M  V30 10 N 2.841220 3.304161 0.098472 0
M  V30 11 C 2.521175 2.108217 -0.410701 0
M  V30 12 C 2.473571 1.259387 0.682461 0
M  V30 13 C 2.115531 -0.058703 0.119183 0
M  V30 14 N 1.205236 0.360862 -0.958090 0
M  V30 15 C -0.134814 0.175405 -1.435932 0
M  V30 16 O -0.861542 0.576542 -2.410012 0
M  V30 17 O -0.800098 -0.678595 -0.583872 0
M  V30 18 C -2.148245 -1.102664 -0.722834 0 CFG=2
M  V30 19 C -2.984965 -0.792950 0.467675 0
M  V30 20 N -4.365634 -1.158717 0.393556 0
M  V30 21 C -5.133088 -0.835511 1.572235 0
M  V30 22 C -5.047368 -0.629780 -0.756447 0
M  V30 23 C -2.062491 -2.576820 -0.884423 0
M  V30 24 C -2.725243 -3.616841 -0.268513 0
M  V30 25 C -2.465373 -4.925198 -0.609500 0
M  V30 26 C -1.541933 -5.277992 -1.571576 0
M  V30 27 C -0.863589 -4.271588 -2.204798 0
M  V30 28 C -1.128965 -2.960514 -1.858560 0
M  V30 29 C 2.181942 1.221916 -1.578086 0
M  V30 30 C 1.634583 2.047110 -2.710486 0
M  V30 31 C 3.430054 0.536860 -2.024379 0
M  V30 32 C 1.487594 -0.724060 3.714148 0
M  V30 33 F 0.354797 -0.058383 3.497684 0
M  V30 34 H -0.494507 -2.164287 4.441500 0
M  V30 35 H 0.255796 -3.484590 3.439617 0
M  V30 36 H 0.466166 -3.507196 5.208598 0
M  V30 37 H 4.922697 -2.310957 4.229534 0
M  V30 38 H 2.938592 1.990805 3.904471 0
M  V30 39 H 3.234770 3.964915 2.131568 0
M  V30 40 H 2.939002 -0.627421 -0.307829 0
M  V30 41 H 1.502749 -0.662986 0.816411 0
M  V30 42 H -2.509732 -0.617577 -1.650603 0
M  V30 43 H -2.572628 -1.292518 1.383677 0
M  V30 44 H -2.958841 0.302211 0.725361 0
M  V30 45 H -6.049590 -1.489660 1.614429 0
M  V30 46 H -4.599938 -1.004750 2.526626 0
M  V30 47 H -5.527393 0.206719 1.565832 0
M  V30 48 H -6.114566 -0.495473 -0.487530 0
M  V30 49 H -5.015551 -1.373063 -1.563437 0
M  V30 50 H -4.681140 0.370356 -1.066614 0
M  V30 51 H -3.428740 -3.282848 0.473926 0
M  V30 52 H -3.055128 -5.634065 -0.046289 0
M  V30 53 H -1.427886 -6.336867 -1.750755 0
M  V30 54 H -0.142221 -4.541869 -2.954436 0
M  V30 55 H -0.526203 -2.239002 -2.433469 0
M  V30 56 H 1.093003 1.380103 -3.402498 0
M  V30 57 H 1.080360 2.925183 -2.368418 0
M  V30 58 H 2.522219 2.424131 -3.291377 0
M  V30 59 H 3.265510 -0.537639 -2.316835 0
M  V30 60 H 3.859583 0.990293 -2.961682 0
M  V30 61 H 4.254552 0.588688 -1.280358 0
M  V30 END ATOM
M  V30 BEGIN BOND
M  V30 1 1 1 2
M  V30 2 2 2 3
M  V30 3 1 3 4
M  V30 4 2 4 5
M  V30 5 1 5 6
M  V30 6 1 6 7
M  V30 7 1 7 8
M  V30 8 1 8 9
M  V30 9 1 9 10
M  V30 10 2 10 11
M  V30 11 1 11 12
M  V30 12 1 12 13
M  V30 13 1 13 14
M  V30 14 1 14 15
M  V30 15 2 15 16
M  V30 16 1 15 17
M  V30 17 1 17 18
M  V30 18 1 18 19
M  V30 19 1 19 20
M  V30 20 1 20 21
M  V30 21 1 20 22
M  V30 22 1 18 23
M  V30 23 2 23 24
M  V30 24 1 24 25
M  V30 25 2 25 26
M  V30 26 1 26 27
M  V30 27 2 27 28
M  V30 28 1 14 29
M  V30 29 1 29 30
M  V30 30 1 29 31
M  V30 31 2 6 32
M  V30 32 1 32 33
M  V30 33 1 32 2
M  V30 34 2 12 8
M  V30 35 1 28 23
M  V30 36 1 29 11
M  V30 37 1 1 34
M  V30 38 1 1 35
M  V30 39 1 1 36
M  V30 40 1 4 37
M  V30 41 1 7 38
M  V30 42 1 9 39
M  V30 43 1 13 40
M  V30 44 1 13 41
M  V30 45 1 18 42 CFG=3
M  V30 46 1 19 43
M  V30 47 1 19 44
M  V30 48 1 21 45
M  V30 49 1 21 46
M  V30 50 1 21 47
M  V30 51 1 22 48
M  V30 52 1 22 49
M  V30 53 1 22 50
M  V30 54 1 24 51
M  V30 55 1 25 52
M  V30 56 1 26 53
M  V30 57 1 27 54
M  V30 58 1 28 55
M  V30 59 1 30 56
M  V30 60 1 30 57
M  V30 61 1 30 58
M  V30 62 1 31 59
M  V30 63 1 31 60
M  V30 64 1 31 61
M  V30 END BOND
M  V30 END CTAB
M  END
>  <Dataset>  (966) 
ChEMBL_Kinases

>  <Ligand_Instance>  (966) 
nan

>  <PDB_ID>  (966) 
nan

>  <Standardized_SMILES>  (966) 
Cc1ncnc(Nc2[nH]nc3c2CN(C(=O)O[C@H](CN(C)C)c2ccccc2)C3(C)C)c1F

>  <Name>  (966) 
nan

>  <Pocket>  (966) 
nan

>  <ATP_Site>  (966) 
nan

>  <Peripheral>  (966) 
nan

>  <Num_H_Atoms_ProtBoundConf>  (966) 
nan

>  <Num_Resolved_Atoms>  (966) 
nan

>  <Num_Not_Resolved_Atoms>  (966) 
nan

$$$$
CHEMBL3673618
     RDKit          3D

  0  0  0  0  0  0  0  0  0  0999 V3000
M  V30 BEGIN CTAB
M  V30 COUNTS 49 53 0 0 0
M  V30 BEGIN ATOM
M  V30 1 C -1.455684 -3.171609 -1.836906 0
M  V30 2 C 0.047164 -3.394454 -1.950271 0
M  V30 3 N 0.562418 -3.996895 -0.754416 0
M  V30 4 C 1.013408 -3.290682 0.299781 0
M  V30 5 N 1.100827 -1.889535 0.511574 0
M  V30 6 C 2.167364 -0.996722 0.212200 0
M  V30 7 O 3.232619 -1.394294 -0.316322 0
M  V30 8 C 1.955177 0.409445 0.553704 0
M  V30 9 C 2.961600 1.315018 0.282608 0
M  V30 10 C 2.782203 2.664763 0.600088 0
M  V30 11 C 1.616157 3.120849 1.182292 0
M  V30 12 C 1.088142 4.318711 1.622525 0
M  V30 13 C -0.176646 4.085255 2.124349 0
M  V30 14 N -0.439124 2.760050 2.001059 0
M  V30 15 C 0.636489 2.172182 1.434216 0
M  V30 16 N 0.835486 0.874839 1.117645 0
M  V30 17 C -1.685147 2.144866 2.426790 0
M  V30 18 C -2.808356 2.860255 1.757239 0
M  V30 19 C -3.375050 4.023628 2.496655 0
M  V30 20 N -2.418242 5.012274 2.884119 0
M  V30 21 C -1.016475 5.164173 2.677392 0
M  V30 22 O -0.440181 6.243732 2.965530 0
M  V30 23 N 1.420631 -4.184364 1.242429 0
M  V30 24 C 1.233388 -5.449311 0.798883 0
M  V30 25 C 1.491049 -6.673000 1.391273 0
M  V30 26 C 1.171056 -7.784765 0.639526 0
M  V30 27 C 0.627143 -7.714424 -0.626311 0
M  V30 28 C 0.402087 -6.453645 -1.142572 0
M  V30 29 C 0.692483 -5.280704 -0.459360 0
M  V30 30 H -1.715923 -2.088819 -1.742944 0
M  V30 31 H -1.973507 -3.529824 -2.763734 0
M  V30 32 H -1.873480 -3.662173 -0.929766 0
M  V30 33 H 0.202023 -4.150460 -2.765009 0
M  V30 34 H 0.480708 -2.416502 -2.209632 0
M  V30 35 H 0.210827 -1.554630 0.953571 0
M  V30 36 H 3.879143 0.989398 -0.169599 0
M  V30 37 H 3.530944 3.416550 0.412321 0
M  V30 38 H 1.615500 5.257373 1.563171 0
M  V30 39 H -1.669551 1.049951 2.231700 0
M  V30 40 H -1.830878 2.269984 3.539159 0
M  V30 41 H -3.645502 2.115123 1.662717 0
M  V30 42 H -2.551583 3.117244 0.690370 0
M  V30 43 H -4.023360 3.666073 3.295797 0
M  V30 44 H -4.065872 4.538218 1.767064 0
M  V30 45 H -2.840871 5.789231 3.437844 0
M  V30 46 H 1.921161 -6.734381 2.392221 0
M  V30 47 H 1.370519 -8.760011 1.097937 0
M  V30 48 H 0.379497 -8.584002 -1.208153 0
M  V30 49 H -0.028880 -6.331431 -2.145152 0
M  V30 END ATOM
M  V30 BEGIN BOND
M  V30 1 1 1 2
M  V30 2 1 2 3
M  V30 3 1 3 4
M  V30 4 1 4 5
M  V30 5 1 5 6
M  V30 6 2 6 7
M  V30 7 1 6 8
M  V30 8 2 8 9
M  V30 9 1 9 10
M  V30 10 2 10 11
M  V30 11 1 11 12
M  V30 12 2 12 13
M  V30 13 1 13 14
M  V30 14 1 14 15
M  V30 15 2 15 16
M  V30 16 1 14 17
M  V30 17 1 17 18
M  V30 18 1 18 19
M  V30 19 1 19 20
M  V30 20 1 20 21
M  V30 21 2 21 22
M  V30 22 2 4 23
M  V30 23 1 23 24
M  V30 24 2 24 25
M  V30 25 1 25 26
M  V30 26 2 26 27
M  V30 27 1 27 28
M  V30 28 2 28 29
M  V30 29 1 29 3
M  V30 30 1 16 8
M  V30 31 1 29 24
M  V30 32 1 15 11
M  V30 33 1 21 13
M  V30 34 1 1 30
M  V30 35 1 1 31
M  V30 36 1 1 32
M  V30 37 1 2 33
M  V30 38 1 2 34
M  V30 39 1 5 35
M  V30 40 1 9 36
M  V30 41 1 10 37
M  V30 42 1 12 38
M  V30 43 1 17 39
M  V30 44 1 17 40
M  V30 45 1 18 41
M  V30 46 1 18 42
M  V30 47 1 19 43
M  V30 48 1 19 44
M  V30 49 1 20 45
M  V30 50 1 25 46
M  V30 51 1 26 47
M  V30 52 1 27 48
M  V30 53 1 28 49
M  V30 END BOND
M  V30 END CTAB
M  END
>  <Dataset>  (967) 
ChEMBL_Kinases

>  <Ligand_Instance>  (967) 
nan

>  <PDB_ID>  (967) 
nan

>  <Standardized_SMILES>  (967) 
CCn1c(NC(=O)c2ccc3cc4n(c3n2)CCCNC4=O)nc2ccccc21

>  <Name>  (967) 
nan

>  <Pocket>  (967) 
nan

>  <ATP_Site>  (967) 
nan

>  <Peripheral>  (967) 
nan

>  <Num_H_Atoms_ProtBoundConf>  (967) 
nan

>  <Num_Resolved_Atoms>  (967) 
nan

>  <Num_Not_Resolved_Atoms>  (967) 
nan

$$$$
CHEMBL3673619
     RDKit          3D

  0  0  0  0  0  0  0  0  0  0999 V3000
M  V30 BEGIN CTAB
M  V30 COUNTS 55 59 0 0 0
M  V30 BEGIN ATOM
M  V30 1 C -0.242440 -4.020210 -1.888066 0
M  V30 2 C 0.960894 -4.282589 -1.017516 0
M  V30 3 N 0.535524 -4.753945 0.299860 0
M  V30 4 C 0.292411 -3.881016 1.322322 0
M  V30 5 N 0.388912 -2.457616 1.334003 0
M  V30 6 C 1.630208 -1.865005 1.695380 0
M  V30 7 O 2.662514 -2.549975 2.009932 0
M  V30 8 C 1.731975 -0.402841 1.708182 0
M  V30 9 C 2.915821 0.218302 2.052078 0
M  V30 10 C 3.073086 1.589386 2.082437 0
M  V30 11 C 1.992612 2.388638 1.752324 0
M  V30 12 C 1.731361 3.738741 1.658763 0
M  V30 13 C 0.403348 3.899597 1.262797 0
M  V30 14 N -0.150325 2.660743 1.113226 0
M  V30 15 C 0.809427 1.758393 1.408731 0
M  V30 16 N 0.703392 0.417007 1.393220 0
M  V30 17 C -1.512720 2.471792 0.711207 0
M  V30 18 C -1.898628 3.172615 -0.551159 0
M  V30 19 C -3.189084 2.473632 -1.009230 0
M  V30 20 C -0.900342 2.968087 -1.663685 0
M  V30 21 C -2.257993 4.609434 -0.432947 0
M  V30 22 N -1.386640 5.428927 0.345782 0
M  V30 23 C -0.160595 5.250634 1.079425 0
M  V30 24 O 0.429729 6.229525 1.561940 0
M  V30 25 N -0.075763 -4.598973 2.389475 0
M  V30 26 C -0.079997 -5.916700 2.092813 0
M  V30 27 C -0.379365 -7.041530 2.832936 0
M  V30 28 C -0.269281 -8.264993 2.174615 0
M  V30 29 C 0.119414 -8.330754 0.853640 0
M  V30 30 C 0.417761 -7.191249 0.120410 0
M  V30 31 C 0.307179 -5.980320 0.777443 0
M  V30 32 H -0.213833 -4.588219 -2.836673 0
M  V30 33 H -1.150221 -4.334704 -1.354464 0
M  V30 34 H -0.332602 -2.940144 -2.111330 0
M  V30 35 H 1.554316 -3.357102 -0.926853 0
M  V30 36 H 1.614321 -5.054782 -1.484460 0
M  V30 37 H -0.444209 -1.864934 1.079656 0
M  V30 38 H 3.791520 -0.354237 2.318734 0
M  V30 39 H 4.000247 2.070202 2.351833 0
M  V30 40 H 2.464069 4.518029 1.866916 0
M  V30 41 H -2.245782 2.738590 1.491125 0
M  V30 42 H -1.663496 1.373681 0.515464 0
M  V30 43 H -3.734662 2.016278 -0.176738 0
M  V30 44 H -2.978675 1.683318 -1.757732 0
M  V30 45 H -3.888574 3.174120 -1.503869 0
M  V30 46 H 0.105661 2.897698 -1.157629 0
M  V30 47 H -0.888730 3.772712 -2.409655 0
M  V30 48 H -1.084809 1.964057 -2.100611 0
M  V30 49 H -2.194508 5.022653 -1.482948 0
M  V30 50 H -3.345750 4.759080 -0.174124 0
M  V30 51 H -1.748899 6.409142 0.381263 0
M  V30 52 H -0.672962 -6.901213 3.852096 0
M  V30 53 H -0.505074 -9.129284 2.762684 0
M  V30 54 H 0.183864 -9.317474 0.404433 0
M  V30 55 H 0.721474 -7.236140 -0.910208 0
M  V30 END ATOM
M  V30 BEGIN BOND
M  V30 1 1 1 2
M  V30 2 1 2 3
M  V30 3 1 3 4
M  V30 4 1 4 5
M  V30 5 1 5 6
M  V30 6 2 6 7
M  V30 7 1 6 8
M  V30 8 2 8 9
M  V30 9 1 9 10
M  V30 10 2 10 11
M  V30 11 1 11 12
M  V30 12 2 12 13
M  V30 13 1 13 14
M  V30 14 1 14 15
M  V30 15 2 15 16
M  V30 16 1 14 17
M  V30 17 1 17 18
M  V30 18 1 18 19
M  V30 19 1 18 20
M  V30 20 1 18 21
M  V30 21 1 21 22
M  V30 22 1 22 23
M  V30 23 2 23 24
M  V30 24 2 4 25
M  V30 25 1 25 26
M  V30 26 2 26 27
M  V30 27 1 27 28
M  V30 28 2 28 29
M  V30 29 1 29 30
M  V30 30 2 30 31
M  V30 31 1 31 3
M  V30 32 1 16 8
M  V30 33 1 31 26
M  V30 34 1 15 11
M  V30 35 1 23 13
M  V30 36 1 1 32
M  V30 37 1 1 33
M  V30 38 1 1 34
M  V30 39 1 2 35
M  V30 40 1 2 36
M  V30 41 1 5 37
M  V30 42 1 9 38
M  V30 43 1 10 39
M  V30 44 1 12 40
M  V30 45 1 17 41
M  V30 46 1 17 42
M  V30 47 1 19 43
M  V30 48 1 19 44
M  V30 49 1 19 45
M  V30 50 1 20 46
M  V30 51 1 20 47
M  V30 52 1 20 48
M  V30 53 1 21 49
M  V30 54 1 21 50
M  V30 55 1 22 51
M  V30 56 1 27 52
M  V30 57 1 28 53
M  V30 58 1 29 54
M  V30 59 1 30 55
M  V30 END BOND
M  V30 END CTAB
M  END
>  <Dataset>  (968) 
ChEMBL_Kinases

>  <Ligand_Instance>  (968) 
nan

>  <PDB_ID>  (968) 
nan

>  <Standardized_SMILES>  (968) 
CCn1c(NC(=O)c2ccc3cc4n(c3n2)CC(C)(C)CNC4=O)nc2ccccc21

>  <Name>  (968) 
nan

>  <Pocket>  (968) 
nan

>  <ATP_Site>  (968) 
nan

>  <Peripheral>  (968) 
nan

>  <Num_H_Atoms_ProtBoundConf>  (968) 
nan

>  <Num_Resolved_Atoms>  (968) 
nan

>  <Num_Not_Resolved_Atoms>  (968) 
nan

$$$$
CHEMBL3673620
     RDKit          3D

  0  0  0  0  0  0  0  0  0  0999 V3000
M  V30 BEGIN CTAB
M  V30 COUNTS 60 64 0 0 0
M  V30 BEGIN ATOM
M  V30 1 C 3.537264 -1.417240 5.235604 0
M  V30 2 N 4.018030 -1.534891 3.893335 0
M  V30 3 C 5.463383 -1.626220 3.897344 0
M  V30 4 C 3.631028 -0.480300 3.011794 0
M  V30 5 C 2.174932 -0.455537 2.703008 0
M  V30 6 C 1.623833 -1.669160 2.023030 0
M  V30 7 N 2.204206 -1.957005 0.739147 0
M  V30 8 C 1.674343 -1.379351 -0.381812 0
M  V30 9 N 0.598484 -0.471038 -0.557852 0
M  V30 10 C 0.312649 0.911608 -0.624890 0
M  V30 11 O 1.325760 1.660484 -0.484713 0
M  V30 12 C -1.051790 1.370792 -0.839394 0
M  V30 13 C -1.179523 2.740479 -0.873897 0
M  V30 14 C -2.466000 3.254134 -1.077948 0
M  V30 15 C -3.525093 2.370869 -1.231902 0
M  V30 16 C -4.865197 2.620803 -1.443941 0
M  V30 17 C -5.476704 1.385507 -1.526225 0
M  V30 18 N -4.549308 0.395271 -1.370492 0
M  V30 19 C -3.353105 0.983444 -1.190087 0
M  V30 20 N -2.097647 0.533798 -0.991368 0
M  V30 21 C -4.606499 -1.047974 -1.362668 0
M  V30 22 C -5.815405 -1.570876 -2.104377 0
M  V30 23 C -7.027694 -1.365883 -1.221796 0
M  V30 24 N -7.646359 -0.095990 -1.547706 0
M  V30 25 C -6.892488 1.105898 -1.745763 0
M  V30 26 O -7.499979 2.138354 -2.184906 0
M  V30 27 N 2.354291 -1.786823 -1.472928 0
M  V30 28 C 3.337898 -2.632584 -1.108717 0
M  V30 29 C 4.347999 -3.376663 -1.718992 0
M  V30 30 C 5.205437 -4.174641 -0.990721 0
M  V30 31 C 5.043891 -4.224420 0.369682 0
M  V30 32 C 4.054565 -3.499849 1.001037 0
M  V30 33 C 3.205885 -2.706543 0.260801 0
M  V30 34 H 4.304231 -1.876216 5.898100 0
M  V30 35 H 3.356393 -0.394231 5.587924 0
M  V30 36 H 2.587098 -1.971848 5.410033 0
M  V30 37 H 5.873293 -1.633453 2.860505 0
M  V30 38 H 5.786934 -2.555069 4.451917 0
M  V30 39 H 5.879823 -0.745022 4.425257 0
M  V30 40 H 4.165507 -0.649851 2.046394 0
M  V30 41 H 3.968443 0.508767 3.358464 0
M  V30 42 H 1.648516 -0.264194 3.681775 0
M  V30 43 H 1.915946 0.445226 2.071097 0
M  V30 44 H 1.709064 -2.576913 2.669230 0
M  V30 45 H 0.515241 -1.500582 1.944695 0
M  V30 46 H -0.251093 -1.106188 -0.673086 0
M  V30 47 H -0.349793 3.431435 -0.754371 0
M  V30 48 H -2.620214 4.326519 -1.112537 0
M  V30 49 H -5.415917 3.565145 -1.539657 0
M  V30 50 H -4.692761 -1.363840 -0.316298 0
M  V30 51 H -3.711043 -1.504149 -1.805756 0
M  V30 52 H -5.964165 -1.034797 -3.064241 0
M  V30 53 H -5.708037 -2.647420 -2.337857 0
M  V30 54 H -7.743998 -2.208881 -1.302802 0
M  V30 55 H -6.677960 -1.379658 -0.147245 0
M  V30 56 H -8.653487 0.137692 -1.681099 0
M  V30 57 H 4.324315 -3.212178 -2.807937 0
M  V30 58 H 5.916183 -4.670993 -1.625188 0
M  V30 59 H 5.759169 -4.876070 0.872518 0
M  V30 60 H 3.973899 -3.586650 2.073349 0
M  V30 END ATOM
M  V30 BEGIN BOND
M  V30 1 1 1 2
M  V30 2 1 2 3
M  V30 3 1 2 4
M  V30 4 1 4 5
M  V30 5 1 5 6
M  V30 6 1 6 7
M  V30 7 1 7 8
M  V30 8 1 8 9
M  V30 9 1 9 10
M  V30 10 2 10 11
M  V30 11 1 10 12
M  V30 12 2 12 13
M  V30 13 1 13 14
M  V30 14 2 14 15
M  V30 15 1 15 16
M  V30 16 2 16 17
M  V30 17 1 17 18
M  V30 18 1 18 19
M  V30 19 2 19 20
M  V30 20 1 18 21
M  V30 21 1 21 22
M  V30 22 1 22 23
M  V30 23 1 23 24
M  V30 24 1 24 25
M  V30 25 2 25 26
M  V30 26 2 8 27
M  V30 27 1 27 28
M  V30 28 2 28 29
M  V30 29 1 29 30
M  V30 30 2 30 31
M  V30 31 1 31 32
M  V30 32 2 32 33
M  V30 33 1 33 7
M  V30 34 1 20 12
M  V30 35 1 33 28
M  V30 36 1 19 15
M  V30 37 1 25 17
M  V30 38 1 1 34
M  V30 39 1 1 35
M  V30 40 1 1 36
M  V30 41 1 3 37
M  V30 42 1 3 38
M  V30 43 1 3 39
M  V30 44 1 4 40
M  V30 45 1 4 41
M  V30 46 1 5 42
M  V30 47 1 5 43
M  V30 48 1 6 44
M  V30 49 1 6 45
M  V30 50 1 9 46
M  V30 51 1 13 47
M  V30 52 1 14 48
M  V30 53 1 16 49
M  V30 54 1 21 50
M  V30 55 1 21 51
M  V30 56 1 22 52
M  V30 57 1 22 53
M  V30 58 1 23 54
M  V30 59 1 23 55
M  V30 60 1 24 56
M  V30 61 1 29 57
M  V30 62 1 30 58
M  V30 63 1 31 59
M  V30 64 1 32 60
M  V30 END BOND
M  V30 END CTAB
M  END
>  <Dataset>  (969) 
ChEMBL_Kinases

>  <Ligand_Instance>  (969) 
nan

>  <PDB_ID>  (969) 
nan

>  <Standardized_SMILES>  (969) 
CN(C)CCCn1c(NC(=O)c2ccc3cc4n(c3n2)CCCNC4=O)nc2ccccc21

>  <Name>  (969) 
nan

>  <Pocket>  (969) 
nan

>  <ATP_Site>  (969) 
nan

>  <Peripheral>  (969) 
nan

>  <Num_H_Atoms_ProtBoundConf>  (969) 
nan

>  <Num_Resolved_Atoms>  (969) 
nan

>  <Num_Not_Resolved_Atoms>  (969) 
nan

$$$$
CHEMBL3673621
     RDKit          3D

  0  0  0  0  0  0  0  0  0  0999 V3000
M  V30 BEGIN CTAB
M  V30 COUNTS 66 70 0 0 0
M  V30 BEGIN ATOM
M  V30 1 C 4.335979 -0.628041 4.064031 0
M  V30 2 N 4.473330 -0.568612 2.623983 0
M  V30 3 C 3.922238 -1.721386 1.980638 0
M  V30 4 C 3.947645 0.686607 2.094971 0
M  V30 5 C 2.469589 0.735968 2.247819 0
M  V30 6 C 1.831334 1.989331 1.740229 0
M  V30 7 N 2.036855 2.246327 0.336910 0
M  V30 8 C 1.285474 1.867452 -0.714996 0
M  V30 9 N 0.086774 1.097958 -0.663009 0
M  V30 10 C -1.149724 1.793135 -0.502384 0
M  V30 11 O -1.213932 3.066886 -0.402373 0
M  V30 12 C -2.395444 0.995987 -0.451114 0
M  V30 13 C -3.601361 1.657349 -0.263281 0
M  V30 14 C -4.802622 0.958383 -0.201153 0
M  V30 15 C -4.735841 -0.412664 -0.333517 0
M  V30 16 C -5.739054 -1.375824 -0.317111 0
M  V30 17 C -5.076605 -2.590125 -0.498934 0
M  V30 18 N -3.746197 -2.412198 -0.622867 0
M  V30 19 C -3.526915 -1.081620 -0.522476 0
M  V30 20 N -2.399311 -0.350624 -0.574207 0
M  V30 21 C -2.724561 -3.400248 -0.829076 0
M  V30 22 C -2.804979 -4.595015 0.061236 0
M  V30 23 C -1.457195 -5.322707 -0.057405 0
M  V30 24 C -3.039040 -4.211814 1.483041 0
M  V30 25 C -3.830300 -5.627051 -0.417564 0
M  V30 26 N -5.187988 -5.151740 -0.259946 0
M  V30 27 C -5.796237 -3.877779 -0.537978 0
M  V30 28 O -7.005530 -3.856751 -0.829181 0
M  V30 29 N 1.825906 2.312608 -1.868834 0
M  V30 30 C 2.951295 2.996615 -1.579566 0
M  V30 31 C 3.916764 3.672382 -2.333694 0
M  V30 32 C 4.983084 4.292338 -1.760343 0
M  V30 33 C 5.079595 4.228015 -0.382978 0
M  V30 34 C 4.160224 3.576945 0.404591 0
M  V30 35 C 3.079866 2.951462 -0.189534 0
M  V30 36 H 4.095100 0.375565 4.459788 0
M  V30 37 H 3.588063 -1.355340 4.418055 0
M  V30 38 H 5.310616 -0.921128 4.484178 0
M  V30 39 H 3.013958 -2.062536 2.517486 0
M  V30 40 H 3.683943 -1.448494 0.937500 0
M  V30 41 H 4.661757 -2.544633 1.952905 0
M  V30 42 H 4.404874 1.490689 2.741742 0
M  V30 43 H 4.315893 0.754671 1.067883 0
M  V30 44 H 2.212388 0.552054 3.308905 0
M  V30 45 H 2.032081 -0.146588 1.703053 0
M  V30 46 H 0.740511 1.948493 1.996312 0
M  V30 47 H 2.215306 2.833674 2.377420 0
M  V30 48 H 0.044435 0.040213 -0.735209 0
M  V30 49 H -3.678957 2.724836 -0.155674 0
M  V30 50 H -5.766975 1.424995 -0.057172 0
M  V30 51 H -6.816287 -1.263425 -0.194467 0
M  V30 52 H -1.719573 -2.938426 -0.772646 0
M  V30 53 H -2.843230 -3.778177 -1.886667 0
M  V30 54 H -0.655035 -4.583432 0.124029 0
M  V30 55 H -1.361539 -5.769828 -1.083321 0
M  V30 56 H -1.387009 -6.130547 0.686211 0
M  V30 57 H -2.052763 -3.901903 1.910865 0
M  V30 58 H -3.708325 -3.329056 1.525390 0
M  V30 59 H -3.413674 -5.033075 2.114044 0
M  V30 60 H -3.670790 -5.851252 -1.486828 0
M  V30 61 H -3.710868 -6.555094 0.174595 0
M  V30 62 H -5.873880 -5.855002 0.130767 0
M  V30 63 H 3.813778 3.708510 -3.418338 0
M  V30 64 H 5.701169 4.802978 -2.394684 0
M  V30 65 H 5.926733 4.723958 0.086358 0
M  V30 66 H 4.301968 3.571449 1.460832 0
M  V30 END ATOM
M  V30 BEGIN BOND
M  V30 1 1 1 2
M  V30 2 1 2 3
M  V30 3 1 2 4
M  V30 4 1 4 5
M  V30 5 1 5 6
M  V30 6 1 6 7
M  V30 7 1 7 8
M  V30 8 1 8 9
M  V30 9 1 9 10
M  V30 10 2 10 11
M  V30 11 1 10 12
M  V30 12 2 12 13
M  V30 13 1 13 14
M  V30 14 2 14 15
M  V30 15 1 15 16
M  V30 16 2 16 17
M  V30 17 1 17 18
M  V30 18 1 18 19
M  V30 19 2 19 20
M  V30 20 1 18 21
M  V30 21 1 21 22
M  V30 22 1 22 23
M  V30 23 1 22 24
M  V30 24 1 22 25
M  V30 25 1 25 26
M  V30 26 1 26 27
M  V30 27 2 27 28
M  V30 28 2 8 29
M  V30 29 1 29 30
M  V30 30 2 30 31
M  V30 31 1 31 32
M  V30 32 2 32 33
M  V30 33 1 33 34
M  V30 34 2 34 35
M  V30 35 1 35 7
M  V30 36 1 20 12
M  V30 37 1 35 30
M  V30 38 1 19 15
M  V30 39 1 27 17
M  V30 40 1 1 36
M  V30 41 1 1 37
M  V30 42 1 1 38
M  V30 43 1 3 39
M  V30 44 1 3 40
M  V30 45 1 3 41
M  V30 46 1 4 42
M  V30 47 1 4 43
M  V30 48 1 5 44
M  V30 49 1 5 45
M  V30 50 1 6 46
M  V30 51 1 6 47
M  V30 52 1 9 48
M  V30 53 1 13 49
M  V30 54 1 14 50
M  V30 55 1 16 51
M  V30 56 1 21 52
M  V30 57 1 21 53
M  V30 58 1 23 54
M  V30 59 1 23 55
M  V30 60 1 23 56
M  V30 61 1 24 57
M  V30 62 1 24 58
M  V30 63 1 24 59
M  V30 64 1 25 60
M  V30 65 1 25 61
M  V30 66 1 26 62
M  V30 67 1 31 63
M  V30 68 1 32 64
M  V30 69 1 33 65
M  V30 70 1 34 66
M  V30 END BOND
M  V30 END CTAB
M  END
>  <Dataset>  (970) 
ChEMBL_Kinases

>  <Ligand_Instance>  (970) 
nan

>  <PDB_ID>  (970) 
nan

>  <Standardized_SMILES>  (970) 
CN(C)CCCn1c(NC(=O)c2ccc3cc4n(c3n2)CC(C)(C)CNC4=O)nc2ccccc21

>  <Name>  (970) 
nan

>  <Pocket>  (970) 
nan

>  <ATP_Site>  (970) 
nan

>  <Peripheral>  (970) 
nan

>  <Num_H_Atoms_ProtBoundConf>  (970) 
nan

>  <Num_Resolved_Atoms>  (970) 
nan

>  <Num_Not_Resolved_Atoms>  (970) 
nan

$$$$
CHEMBL3673622
     RDKit          3D

  0  0  0  0  0  0  0  0  0  0999 V3000
M  V30 BEGIN CTAB
M  V30 COUNTS 50 54 0 0 0
M  V30 BEGIN ATOM
M  V30 1 C 1.193817 -1.966514 3.977020 0
M  V30 2 C 2.622269 -1.890702 3.481680 0 CFG=2
M  V30 3 C 3.483076 -2.847211 4.246982 0
M  V30 4 N 3.903251 -2.287218 5.517839 0
M  V30 5 C 4.401406 -0.955156 5.557465 0
M  V30 6 O 5.164831 -0.613503 6.478477 0
M  V30 7 C 3.964124 -0.063009 4.479327 0
M  V30 8 C 4.270795 1.263989 4.247065 0
M  V30 9 C 3.579444 1.596307 3.088178 0
M  V30 10 C 3.474057 2.755511 2.350382 0
M  V30 11 C 2.684430 2.801759 1.195458 0
M  V30 12 C 2.005350 1.668920 0.795793 0
M  V30 13 C 1.201980 1.794274 -0.418870 0
M  V30 14 O 1.107259 2.854740 -1.091491 0
M  V30 15 N 0.509264 0.614094 -0.814016 0
M  V30 16 C -0.356316 0.328266 -1.909697 0
M  V30 17 C -0.078688 -0.148906 -3.192694 0
M  V30 18 N -1.243672 -0.254824 -3.866255 0
M  V30 19 N -2.258247 0.121746 -3.105880 0
M  V30 20 C -3.681918 0.180267 -3.388892 0
M  V30 21 C -4.377999 -1.102708 -3.044175 0
M  V30 22 C -4.912150 -1.311581 -1.782344 0
M  V30 23 C -5.557282 -2.483073 -1.440165 0
M  V30 24 C -5.681635 -3.492338 -2.381476 0
M  V30 25 C -5.157106 -3.303207 -3.641121 0
M  V30 26 C -4.503772 -2.115213 -3.985587 0
M  V30 27 C -1.719032 0.480848 -1.903221 0
M  V30 28 N 2.118245 0.541455 1.528285 0
M  V30 29 C 2.873515 0.481173 2.641078 0
M  V30 30 N 3.132617 -0.514928 3.516572 0
M  V30 31 H 0.810689 -2.967847 3.628096 0
M  V30 32 H 0.620780 -1.183732 3.415040 0
M  V30 33 H 1.116027 -1.854742 5.066695 0
M  V30 34 H 2.596968 -2.266703 2.425822 0
M  V30 35 H 4.333456 -3.204476 3.637528 0
M  V30 36 H 2.849746 -3.761869 4.413022 0
M  V30 37 H 3.848244 -2.844790 6.414804 0
M  V30 38 H 4.911920 1.917259 4.835091 0
M  V30 39 H 4.026024 3.597681 2.715047 0
M  V30 40 H 2.629132 3.732905 0.644867 0
M  V30 41 H 0.557786 -0.271872 -0.295927 0
M  V30 42 H 0.929569 -0.375653 -3.524606 0
M  V30 43 H -4.119122 1.046484 -2.829995 0
M  V30 44 H -3.797283 0.376859 -4.491821 0
M  V30 45 H -4.802576 -0.499282 -1.051927 0
M  V30 46 H -5.957731 -2.587132 -0.426644 0
M  V30 47 H -6.190570 -4.409913 -2.103032 0
M  V30 48 H -5.233376 -4.055586 -4.389901 0
M  V30 49 H -4.099697 -2.003485 -4.999644 0
M  V30 50 H -2.290378 0.841200 -1.048968 0
M  V30 END ATOM
M  V30 BEGIN BOND
M  V30 1 1 1 2
M  V30 2 1 2 3
M  V30 3 1 3 4
M  V30 4 1 4 5
M  V30 5 2 5 6
M  V30 6 1 5 7
M  V30 7 2 7 8
M  V30 8 1 8 9
M  V30 9 2 9 10
M  V30 10 1 10 11
M  V30 11 2 11 12
M  V30 12 1 12 13
M  V30 13 2 13 14
M  V30 14 1 13 15
M  V30 15 1 15 16
M  V30 16 1 16 17
M  V30 17 2 17 18
M  V30 18 1 18 19
M  V30 19 1 19 20
M  V30 20 1 20 21
M  V30 21 2 21 22
M  V30 22 1 22 23
M  V30 23 2 23 24
M  V30 24 1 24 25
M  V30 25 2 25 26
M  V30 26 1 19 27
M  V30 27 1 12 28
M  V30 28 2 28 29
M  V30 29 1 29 30
M  V30 30 1 30 2
M  V30 31 1 30 7
M  V30 32 1 29 9
M  V30 33 2 27 16
M  V30 34 1 26 21
M  V30 35 1 1 31
M  V30 36 1 1 32
M  V30 37 1 1 33
M  V30 38 1 2 34 CFG=3
M  V30 39 1 3 35
M  V30 40 1 3 36
M  V30 41 1 4 37
M  V30 42 1 8 38
M  V30 43 1 10 39
M  V30 44 1 11 40
M  V30 45 1 15 41
M  V30 46 1 17 42
M  V30 47 1 20 43
M  V30 48 1 20 44
M  V30 49 1 22 45
M  V30 50 1 23 46
M  V30 51 1 24 47
M  V30 52 1 25 48
M  V30 53 1 26 49
M  V30 54 1 27 50
M  V30 END BOND
M  V30 END CTAB
M  END
>  <Dataset>  (971) 
ChEMBL_Kinases

>  <Ligand_Instance>  (971) 
nan

>  <PDB_ID>  (971) 
nan

>  <Standardized_SMILES>  (971) 
C[C@@H]1CNC(=O)c2cc3ccc(C(=O)Nc4cnn(Cc5ccccc5)c4)nc3n21

>  <Name>  (971) 
nan

>  <Pocket>  (971) 
nan

>  <ATP_Site>  (971) 
nan

>  <Peripheral>  (971) 
nan

>  <Num_H_Atoms_ProtBoundConf>  (971) 
nan

>  <Num_Resolved_Atoms>  (971) 
nan

>  <Num_Not_Resolved_Atoms>  (971) 
nan

$$$$
CHEMBL3673623
     RDKit          3D

  0  0  0  0  0  0  0  0  0  0999 V3000
M  V30 BEGIN CTAB
M  V30 COUNTS 50 54 0 0 0
M  V30 BEGIN ATOM
M  V30 1 C 2.444157 -1.940767 2.432108 0
M  V30 2 C 2.418772 -1.254269 3.798464 0 CFG=1
M  V30 3 C 3.398865 -1.987112 4.657586 0
M  V30 4 N 3.657176 -1.297247 5.922980 0
M  V30 5 C 4.094718 0.066585 5.760266 0
M  V30 6 O 4.824154 0.643703 6.612627 0
M  V30 7 C 3.636554 0.749457 4.532551 0
M  V30 8 C 3.909001 2.046455 4.134682 0
M  V30 9 C 3.258823 2.231401 2.911768 0
M  V30 10 C 3.126013 3.270803 1.998605 0
M  V30 11 C 2.370627 3.080351 0.846244 0
M  V30 12 C 1.767625 1.869925 0.627305 0
M  V30 13 C 0.997885 1.782799 -0.617782 0
M  V30 14 O 0.868153 2.730130 -1.464741 0
M  V30 15 N 0.365624 0.531544 -0.859220 0
M  V30 16 C -0.454593 -0.007503 -1.890439 0
M  V30 17 C -0.088592 -0.681066 -3.041477 0
M  V30 18 N -1.213430 -1.003272 -3.720613 0
M  V30 19 N -2.276632 -0.565608 -3.054307 0
M  V30 20 C -3.694564 -0.676498 -3.389928 0
M  V30 21 C -4.304003 -1.897529 -2.849860 0
M  V30 22 C -4.868489 -1.864163 -1.589693 0
M  V30 23 C -5.447655 -2.999300 -1.059976 0
M  V30 24 C -5.497583 -4.213635 -1.743008 0
M  V30 25 C -4.921474 -4.214990 -3.007776 0
M  V30 26 C -4.343943 -3.099324 -3.546616 0
M  V30 27 C -1.823429 0.047677 -1.928521 0
M  V30 28 N 1.896629 0.862734 1.512693 0
M  V30 29 C 2.625995 1.043325 2.627548 0
M  V30 30 N 2.858777 0.136761 3.621937 0
M  V30 31 H 3.304060 -1.579855 1.824152 0
M  V30 32 H 1.510946 -1.783920 1.860536 0
M  V30 33 H 2.559142 -3.022870 2.597311 0
M  V30 34 H 1.387271 -1.307198 4.144450 0
M  V30 35 H 2.961174 -2.969280 4.935857 0
M  V30 36 H 4.334754 -2.176337 4.114156 0
M  V30 37 H 3.568515 -1.654341 6.909277 0
M  V30 38 H 4.496419 2.812960 4.621246 0
M  V30 39 H 3.635910 4.175343 2.262545 0
M  V30 40 H 2.292758 3.909175 0.165538 0
M  V30 41 H 0.447326 -0.269677 -0.190326 0
M  V30 42 H 0.938269 -0.890786 -3.309605 0
M  V30 43 H -4.212198 0.223096 -2.988521 0
M  V30 44 H -3.858725 -0.678615 -4.484414 0
M  V30 45 H -4.878912 -0.961015 -0.977372 0
M  V30 46 H -5.889517 -2.971947 -0.072752 0
M  V30 47 H -5.966521 -5.057794 -1.265190 0
M  V30 48 H -4.980072 -5.188856 -3.514837 0
M  V30 49 H -3.911106 -3.156809 -4.533704 0
M  V30 50 H -2.423135 0.515920 -1.162489 0
M  V30 END ATOM
M  V30 BEGIN BOND
M  V30 1 1 1 2
M  V30 2 1 2 3
M  V30 3 1 3 4
M  V30 4 1 4 5
M  V30 5 2 5 6
M  V30 6 1 5 7
M  V30 7 2 7 8
M  V30 8 1 8 9
M  V30 9 2 9 10
M  V30 10 1 10 11
M  V30 11 2 11 12
M  V30 12 1 12 13
M  V30 13 2 13 14
M  V30 14 1 13 15
M  V30 15 1 15 16
M  V30 16 1 16 17
M  V30 17 2 17 18
M  V30 18 1 18 19
M  V30 19 1 19 20
M  V30 20 1 20 21
M  V30 21 2 21 22
M  V30 22 1 22 23
M  V30 23 2 23 24
M  V30 24 1 24 25
M  V30 25 2 25 26
M  V30 26 1 19 27
M  V30 27 1 12 28
M  V30 28 2 28 29
M  V30 29 1 29 30
M  V30 30 1 30 2
M  V30 31 1 30 7
M  V30 32 1 29 9
M  V30 33 2 27 16
M  V30 34 1 26 21
M  V30 35 1 1 31
M  V30 36 1 1 32
M  V30 37 1 1 33
M  V30 38 1 2 34 CFG=1
M  V30 39 1 3 35
M  V30 40 1 3 36
M  V30 41 1 4 37
M  V30 42 1 8 38
M  V30 43 1 10 39
M  V30 44 1 11 40
M  V30 45 1 15 41
M  V30 46 1 17 42
M  V30 47 1 20 43
M  V30 48 1 20 44
M  V30 49 1 22 45
M  V30 50 1 23 46
M  V30 51 1 24 47
M  V30 52 1 25 48
M  V30 53 1 26 49
M  V30 54 1 27 50
M  V30 END BOND
M  V30 END CTAB
M  END
>  <Dataset>  (972) 
ChEMBL_Kinases

>  <Ligand_Instance>  (972) 
nan

>  <PDB_ID>  (972) 
nan

>  <Standardized_SMILES>  (972) 
C[C@H]1CNC(=O)c2cc3ccc(C(=O)Nc4cnn(Cc5ccccc5)c4)nc3n21

>  <Name>  (972) 
nan

>  <Pocket>  (972) 
nan

>  <ATP_Site>  (972) 
nan

>  <Peripheral>  (972) 
nan

>  <Num_H_Atoms_ProtBoundConf>  (972) 
nan

>  <Num_Resolved_Atoms>  (972) 
nan

>  <Num_Not_Resolved_Atoms>  (972) 
nan

$$$$
CHEMBL3673624
     RDKit          3D

  0  0  0  0  0  0  0  0  0  0999 V3000
M  V30 BEGIN CTAB
M  V30 COUNTS 53 57 0 0 0
M  V30 BEGIN ATOM
M  V30 1 C 1.440452 -2.876583 5.283848 0
M  V30 2 C 2.629890 -2.308063 4.534636 0 CFG=1
M  V30 3 N 3.715021 -3.267381 4.456626 0
M  V30 4 C 4.807946 -2.942323 3.605529 0
M  V30 5 O 5.971074 -3.383371 3.851441 0
M  V30 6 C 4.588449 -2.094175 2.439736 0
M  V30 7 C 5.375922 -1.592289 1.434811 0
M  V30 8 C 4.550200 -0.843416 0.622551 0
M  V30 9 C 4.819413 -0.113100 -0.538619 0
M  V30 10 C 3.763692 0.559985 -1.160958 0
M  V30 11 C 2.503770 0.476942 -0.606679 0
M  V30 12 C 1.443519 1.201618 -1.302921 0
M  V30 13 O 1.617439 1.870971 -2.342200 0
M  V30 14 N 0.148091 1.123927 -0.744189 0
M  V30 15 C -1.113545 1.662114 -1.098353 0
M  V30 16 C -1.808032 2.834133 -0.801923 0
M  V30 17 N -2.991991 2.794555 -1.439830 0
M  V30 18 N -3.112202 1.673380 -2.131406 0
M  V30 19 C -4.244435 1.275003 -2.943717 0
M  V30 20 C -5.233037 0.504283 -2.117330 0
M  V30 21 C -6.280018 1.071624 -1.420450 0
M  V30 22 C -7.118592 0.244164 -0.697072 0
M  V30 23 C -6.956510 -1.124679 -0.639849 0
M  V30 24 C -5.899168 -1.654741 -1.349153 0
M  V30 25 C -5.022011 -0.877291 -2.094462 0
M  V30 26 C -1.985347 0.965843 -1.942382 0
M  V30 27 N 2.301047 -0.241057 0.513630 0
M  V30 28 C 3.277966 -0.906804 1.152296 0
M  V30 29 N 3.319941 -1.678061 2.266508 0
M  V30 30 C 2.180407 -2.001291 3.130904 0 CFG=1
M  V30 31 C 1.368269 -3.085192 2.494834 0
M  V30 32 H 0.510723 -2.416847 4.855028 0
M  V30 33 H 1.364476 -3.965587 5.230570 0
M  V30 34 H 1.500211 -2.468805 6.321561 0
M  V30 35 H 2.981562 -1.360448 4.994579 0
M  V30 36 H 3.734109 -4.165820 4.982672 0
M  V30 37 H 6.451895 -1.776419 1.334683 0
M  V30 38 H 5.821322 -0.069586 -0.946430 0
M  V30 39 H 3.978960 1.125256 -2.062078 0
M  V30 40 H -0.036248 0.571116 0.128126 0
M  V30 41 H -1.330465 3.555239 -0.148967 0
M  V30 42 H -4.800355 2.183119 -3.320099 0
M  V30 43 H -3.888925 0.659284 -3.789695 0
M  V30 44 H -6.389156 2.138018 -1.477622 0
M  V30 45 H -7.933412 0.676944 -0.153593 0
M  V30 46 H -7.622939 -1.777660 -0.065556 0
M  V30 47 H -5.714580 -2.734314 -1.345761 0
M  V30 48 H -4.209398 -1.371965 -2.628341 0
M  V30 49 H -1.821163 -0.000076 -2.398966 0
M  V30 50 H 1.508572 -1.098794 3.229549 0
M  V30 51 H 1.719437 -4.115321 2.709011 0
M  V30 52 H 0.308084 -2.959508 2.803075 0
M  V30 53 H 1.395739 -2.910534 1.400001 0
M  V30 END ATOM
M  V30 BEGIN BOND
M  V30 1 1 1 2
M  V30 2 1 2 3
M  V30 3 1 3 4
M  V30 4 2 4 5
M  V30 5 1 4 6
M  V30 6 2 6 7
M  V30 7 1 7 8
M  V30 8 2 8 9
M  V30 9 1 9 10
M  V30 10 2 10 11
M  V30 11 1 11 12
M  V30 12 2 12 13
M  V30 13 1 12 14
M  V30 14 1 14 15
M  V30 15 1 15 16
M  V30 16 2 16 17
M  V30 17 1 17 18
M  V30 18 1 18 19
M  V30 19 1 19 20
M  V30 20 2 20 21
M  V30 21 1 21 22
M  V30 22 2 22 23
M  V30 23 1 23 24
M  V30 24 2 24 25
M  V30 25 1 18 26
M  V30 26 1 11 27
M  V30 27 2 27 28
M  V30 28 1 28 29
M  V30 29 1 29 30
M  V30 30 1 30 31
M  V30 31 1 30 2
M  V30 32 1 29 6
M  V30 33 1 28 8
M  V30 34 2 26 15
M  V30 35 1 25 20
M  V30 36 1 1 32
M  V30 37 1 1 33
M  V30 38 1 1 34
M  V30 39 1 2 35 CFG=1
M  V30 40 1 3 36
M  V30 41 1 7 37
M  V30 42 1 9 38
M  V30 43 1 10 39
M  V30 44 1 14 40
M  V30 45 1 16 41
M  V30 46 1 19 42
M  V30 47 1 19 43
M  V30 48 1 21 44
M  V30 49 1 22 45
M  V30 50 1 23 46
M  V30 51 1 24 47
M  V30 52 1 25 48
M  V30 53 1 26 49
M  V30 54 1 30 50 CFG=1
M  V30 55 1 31 51
M  V30 56 1 31 52
M  V30 57 1 31 53
M  V30 END BOND
M  V30 END CTAB
M  END
>  <Dataset>  (973) 
ChEMBL_Kinases

>  <Ligand_Instance>  (973) 
nan

>  <PDB_ID>  (973) 
nan

>  <Standardized_SMILES>  (973) 
C[C@H]1NC(=O)c2cc3ccc(C(=O)Nc4cnn(Cc5ccccc5)c4)nc3n2[C@H]1C

>  <Name>  (973) 
nan

>  <Pocket>  (973) 
nan

>  <ATP_Site>  (973) 
nan

>  <Peripheral>  (973) 
nan

>  <Num_H_Atoms_ProtBoundConf>  (973) 
nan

>  <Num_Resolved_Atoms>  (973) 
nan

>  <Num_Not_Resolved_Atoms>  (973) 
nan

$$$$
CHEMBL3673634
     RDKit          3D

  0  0  0  0  0  0  0  0  0  0999 V3000
M  V30 BEGIN CTAB
M  V30 COUNTS 49 53 0 0 0
M  V30 BEGIN ATOM
M  V30 1 C -0.623563 -2.788846 -2.175486 0
M  V30 2 C 0.717590 -3.316318 -1.682174 0
M  V30 3 N 0.501200 -3.950144 -0.406492 0
M  V30 4 C 0.600693 -3.232250 0.733774 0
M  V30 5 N 0.906210 -1.851704 0.899059 0
M  V30 6 C 2.100665 -1.123554 1.068519 0
M  V30 7 O 3.192732 -1.742283 1.092301 0
M  V30 8 C 1.963745 0.323680 1.205391 0
M  V30 9 C 3.142896 1.025264 1.370942 0
M  V30 10 C 3.062601 2.404610 1.505419 0
M  V30 11 C 1.855321 3.053349 1.475532 0
M  V30 12 C 1.457276 4.362978 1.577595 0
M  V30 13 C 0.082916 4.405032 1.472450 0
M  V30 14 N -0.367178 3.128532 1.306232 0
M  V30 15 C 0.701505 2.311166 1.307851 0
M  V30 16 N 0.788435 0.974475 1.178260 0
M  V30 17 C -1.787534 2.836271 1.163273 0 CFG=1
M  V30 18 C -2.072807 1.519327 1.825336 0
M  V30 19 C -2.626681 3.894919 1.815252 0
M  V30 20 N -2.283816 5.229594 1.368223 0
M  V30 21 C -0.886502 5.514000 1.508530 0
M  V30 22 O -0.394561 6.682500 1.667049 0
M  V30 23 N 0.347257 -4.091775 1.753468 0
M  V30 24 C 0.095007 -5.323977 1.243005 0
M  V30 25 C -0.219070 -6.559748 1.815804 0
M  V30 26 C -0.418895 -7.641336 0.984275 0
M  V30 27 C -0.318443 -7.539913 -0.388710 0
M  V30 28 C -0.005345 -6.310299 -0.969110 0
M  V30 29 C 0.193749 -5.229081 -0.126032 0
M  V30 30 H -1.181769 -3.562152 -2.740187 0
M  V30 31 H -1.171747 -2.451737 -1.248352 0
M  V30 32 H -0.460894 -1.850395 -2.770176 0
M  V30 33 H 1.107456 -4.075410 -2.412371 0
M  V30 34 H 1.420854 -2.484824 -1.646732 0
M  V30 35 H -0.039291 -1.399926 0.869903 0
M  V30 36 H 4.111902 0.540225 1.398562 0
M  V30 37 H 3.948461 2.981180 1.634857 0
M  V30 38 H 2.119715 5.206979 1.716547 0
M  V30 39 H -2.097088 2.788141 0.092943 0
M  V30 40 H -1.780844 0.665240 1.167068 0
M  V30 41 H -1.506497 1.416157 2.771369 0
M  V30 42 H -3.146565 1.390162 2.060749 0
M  V30 43 H -2.551439 3.799818 2.909328 0
M  V30 44 H -3.687474 3.721671 1.539680 0
M  V30 45 H -2.849936 6.009753 0.970561 0
M  V30 46 H -0.282939 -6.573337 2.894760 0
M  V30 47 H -0.659422 -8.570011 1.494682 0
M  V30 48 H -0.485572 -8.425411 -1.006712 0
M  V30 49 H 0.080587 -6.198041 -2.040415 0
M  V30 END ATOM
M  V30 BEGIN BOND
M  V30 1 1 1 2
M  V30 2 1 2 3
M  V30 3 1 3 4
M  V30 4 1 4 5
M  V30 5 1 5 6
M  V30 6 2 6 7
M  V30 7 1 6 8
M  V30 8 2 8 9
M  V30 9 1 9 10
M  V30 10 2 10 11
M  V30 11 1 11 12
M  V30 12 2 12 13
M  V30 13 1 13 14
M  V30 14 1 14 15
M  V30 15 2 15 16
M  V30 16 1 14 17
M  V30 17 1 17 18
M  V30 18 1 17 19
M  V30 19 1 19 20
M  V30 20 1 20 21
M  V30 21 2 21 22
M  V30 22 2 4 23
M  V30 23 1 23 24
M  V30 24 2 24 25
M  V30 25 1 25 26
M  V30 26 2 26 27
M  V30 27 1 27 28
M  V30 28 2 28 29
M  V30 29 1 29 3
M  V30 30 1 16 8
M  V30 31 1 29 24
M  V30 32 1 15 11
M  V30 33 1 21 13
M  V30 34 1 1 30
M  V30 35 1 1 31
M  V30 36 1 1 32
M  V30 37 1 2 33
M  V30 38 1 2 34
M  V30 39 1 5 35
M  V30 40 1 9 36
M  V30 41 1 10 37
M  V30 42 1 12 38
M  V30 43 1 17 39 CFG=3
M  V30 44 1 18 40
M  V30 45 1 18 41
M  V30 46 1 18 42
M  V30 47 1 19 43
M  V30 48 1 19 44
M  V30 49 1 20 45
M  V30 50 1 25 46
M  V30 51 1 26 47
M  V30 52 1 27 48
M  V30 53 1 28 49
M  V30 END BOND
M  V30 END CTAB
M  END
>  <Dataset>  (974) 
ChEMBL_Kinases

>  <Ligand_Instance>  (974) 
nan

>  <PDB_ID>  (974) 
nan

>  <Standardized_SMILES>  (974) 
CCn1c(NC(=O)c2ccc3cc4n(c3n2)[C@@H](C)CNC4=O)nc2ccccc21

>  <Name>  (974) 
nan

>  <Pocket>  (974) 
nan

>  <ATP_Site>  (974) 
nan

>  <Peripheral>  (974) 
nan

>  <Num_H_Atoms_ProtBoundConf>  (974) 
nan

>  <Num_Resolved_Atoms>  (974) 
nan

>  <Num_Not_Resolved_Atoms>  (974) 
nan

$$$$
CHEMBL3673626
     RDKit          3D

  0  0  0  0  0  0  0  0  0  0999 V3000
M  V30 BEGIN CTAB
M  V30 COUNTS 51 55 0 0 0
M  V30 BEGIN ATOM
M  V30 1 C 5.341653 -0.793018 5.312123 0
M  V30 2 C 6.197048 -0.583933 4.079823 0
M  V30 3 C 6.559889 -1.921089 3.523573 0
M  V30 4 N 5.531353 0.263059 3.107006 0
M  V30 5 N 5.885416 1.383296 2.530251 0
M  V30 6 C 4.921233 1.811656 1.677393 0
M  V30 7 C 3.899535 0.882949 1.736801 0
M  V30 8 C 2.688357 0.840809 1.069656 0
M  V30 9 C 1.842325 -0.229887 1.328987 0
M  V30 10 N 0.573665 -0.352503 0.684852 0
M  V30 11 C -0.442956 0.292532 1.445442 0
M  V30 12 O -0.085870 0.842595 2.512323 0
M  V30 13 C -1.841902 0.299728 0.979751 0
M  V30 14 C -2.771460 0.945800 1.772000 0
M  V30 15 C -4.083856 0.925459 1.288597 0
M  V30 16 C -4.389610 0.290472 0.093274 0
M  V30 17 C -5.591192 0.133582 -0.586855 0
M  V30 18 C -5.291159 -0.587995 -1.723940 0
M  V30 19 N -3.978120 -0.876062 -1.770126 0
M  V30 20 C -3.419323 -0.340642 -0.659363 0
M  V30 21 N -2.137418 -0.322690 -0.190484 0
M  V30 22 C -3.315425 -1.619769 -2.821304 0 CFG=1
M  V30 23 C -3.234397 -3.102160 -2.477148 0
M  V30 24 C -4.074986 -1.506390 -4.126538 0
M  V30 25 N -5.470524 -1.799696 -3.866906 0
M  V30 26 C -6.102462 -1.065290 -2.821163 0
M  V30 27 O -7.341981 -0.831949 -2.843858 0
M  V30 28 C 2.258774 -1.202730 2.246154 0
M  V30 29 N 3.454480 -1.093248 2.857491 0
M  V30 30 C 4.313806 -0.077861 2.644333 0
M  V30 31 H 4.557034 -1.548603 5.150835 0
M  V30 32 H 6.024802 -1.202117 6.097431 0
M  V30 33 H 4.919975 0.142534 5.723832 0
M  V30 34 H 7.144710 -0.081751 4.370553 0
M  V30 35 H 7.578525 -1.951572 3.082943 0
M  V30 36 H 5.792073 -2.349725 2.841741 0
M  V30 37 H 6.602284 -2.646558 4.386647 0
M  V30 38 H 4.922316 2.699314 1.059671 0
M  V30 39 H 2.344071 1.560908 0.370048 0
M  V30 40 H 0.280018 -0.818061 -0.215185 0
M  V30 41 H -2.496574 1.426334 2.691438 0
M  V30 42 H -4.864412 1.416995 1.866282 0
M  V30 43 H -6.561418 0.479066 -0.324882 0
M  V30 44 H -2.263204 -1.248927 -2.948732 0
M  V30 45 H -2.561247 -3.577955 -3.226953 0
M  V30 46 H -2.809166 -3.215828 -1.447173 0
M  V30 47 H -4.247440 -3.553828 -2.498625 0
M  V30 48 H -3.618192 -2.230732 -4.829678 0
M  V30 49 H -3.962118 -0.456713 -4.493686 0
M  V30 50 H -6.032967 -2.514412 -4.400711 0
M  V30 51 H 1.603742 -2.060100 2.466718 0
M  V30 END ATOM
M  V30 BEGIN BOND
M  V30 1 1 1 2
M  V30 2 1 2 3
M  V30 3 1 2 4
M  V30 4 1 4 5
M  V30 5 2 5 6
M  V30 6 1 6 7
M  V30 7 2 7 8
M  V30 8 1 8 9
M  V30 9 1 9 10
M  V30 10 1 10 11
M  V30 11 2 11 12
M  V30 12 1 11 13
M  V30 13 2 13 14
M  V30 14 1 14 15
M  V30 15 2 15 16
M  V30 16 1 16 17
M  V30 17 2 17 18
M  V30 18 1 18 19
M  V30 19 1 19 20
M  V30 20 2 20 21
M  V30 21 1 19 22
M  V30 22 1 22 23
M  V30 23 1 22 24
M  V30 24 1 24 25
M  V30 25 1 25 26
M  V30 26 2 26 27
M  V30 27 2 9 28
M  V30 28 1 28 29
M  V30 29 2 29 30
M  V30 30 1 30 4
M  V30 31 1 30 7
M  V30 32 1 21 13
M  V30 33 1 20 16
M  V30 34 1 26 18
M  V30 35 1 1 31
M  V30 36 1 1 32
M  V30 37 1 1 33
M  V30 38 1 2 34
M  V30 39 1 3 35
M  V30 40 1 3 36
M  V30 41 1 3 37
M  V30 42 1 6 38
M  V30 43 1 8 39
M  V30 44 1 10 40
M  V30 45 1 14 41
M  V30 46 1 15 42
M  V30 47 1 17 43
M  V30 48 1 22 44 CFG=3
M  V30 49 1 23 45
M  V30 50 1 23 46
M  V30 51 1 23 47
M  V30 52 1 24 48
M  V30 53 1 24 49
M  V30 54 1 25 50
M  V30 55 1 28 51
M  V30 END BOND
M  V30 END CTAB
M  END
>  <Dataset>  (975) 
ChEMBL_Kinases

>  <Ligand_Instance>  (975) 
nan

>  <PDB_ID>  (975) 
nan

>  <Standardized_SMILES>  (975) 
CC(C)n1ncc2cc(NC(=O)c3ccc4cc5n(c4n3)[C@@H](C)CNC5=O)cnc21

>  <Name>  (975) 
nan

>  <Pocket>  (975) 
nan

>  <ATP_Site>  (975) 
nan

>  <Peripheral>  (975) 
nan

>  <Num_H_Atoms_ProtBoundConf>  (975) 
nan

>  <Num_Resolved_Atoms>  (975) 
nan

>  <Num_Not_Resolved_Atoms>  (975) 
nan

$$$$
CHEMBL3673627
     RDKit          3D

  0  0  0  0  0  0  0  0  0  0999 V3000
M  V30 BEGIN CTAB
M  V30 COUNTS 45 49 0 0 0
M  V30 BEGIN ATOM
M  V30 1 C 2.352472 -1.586919 2.309689 0
M  V30 2 C 3.688146 -1.736701 1.579390 0 CFG=2
M  V30 3 C 4.796315 -1.828477 2.582580 0
M  V30 4 N 6.071759 -1.768345 1.892454 0
M  V30 5 C 6.292527 -0.633514 1.057149 0
M  V30 6 O 7.460232 -0.165924 0.843560 0
M  V30 7 C 5.097459 -0.017422 0.444194 0
M  V30 8 C 4.937381 1.057729 -0.391990 0
M  V30 9 C 3.585657 1.172579 -0.643187 0
M  V30 10 C 2.893638 2.071721 -1.410190 0
M  V30 11 C 1.512770 1.926189 -1.467130 0
M  V30 12 C 0.905957 0.907732 -0.767033 0
M  V30 13 C -0.537766 0.842275 -0.892426 0
M  V30 14 O -1.246661 1.617916 -1.567662 0
M  V30 15 N -1.167686 -0.201987 -0.175522 0
M  V30 16 C -2.498963 -0.665517 0.015123 0
M  V30 17 C -3.038113 -1.601697 -0.824841 0
M  V30 18 N -4.314360 -2.003458 -0.589838 0
M  V30 19 C -5.047696 -1.514196 0.427651 0
M  V30 20 C -6.351251 -1.928867 0.662378 0
M  V30 21 C -7.074997 -1.420616 1.697645 0
M  V30 22 C -6.543715 -0.471068 2.558468 0
M  V30 23 C -5.233613 -0.019380 2.365372 0
M  V30 24 C -4.546880 -0.568646 1.300938 0
M  V30 25 C -3.232581 -0.134041 1.084497 0
M  V30 26 N 1.658610 0.063468 -0.034364 0
M  V30 27 C 2.979997 0.146195 0.063073 0
M  V30 28 N 3.906034 -0.590778 0.735253 0
M  V30 29 H 2.422244 -2.067678 3.291402 0
M  V30 30 H 2.117688 -0.498590 2.356598 0
M  V30 31 H 1.565843 -2.113998 1.721412 0
M  V30 32 H 3.625449 -2.689334 1.002023 0
M  V30 33 H 4.744715 -0.950880 3.254706 0
M  V30 34 H 4.713559 -2.746271 3.201848 0
M  V30 35 H 6.851782 -2.484111 1.949475 0
M  V30 36 H 5.737717 1.677946 -0.766090 0
M  V30 37 H 3.389324 2.861513 -1.950051 0
M  V30 38 H 0.952289 2.640612 -2.077856 0
M  V30 39 H -0.687847 -0.917086 0.425942 0
M  V30 40 H -2.437516 -1.972727 -1.621785 0
M  V30 41 H -6.814983 -2.677026 0.009831 0
M  V30 42 H -8.096406 -1.712470 1.922078 0
M  V30 43 H -7.039367 -0.002673 3.414918 0
M  V30 44 H -4.782105 0.720656 3.014901 0
M  V30 45 H -2.738224 0.610863 1.715564 0
M  V30 END ATOM
M  V30 BEGIN BOND
M  V30 1 1 1 2
M  V30 2 1 2 3
M  V30 3 1 3 4
M  V30 4 1 4 5
M  V30 5 2 5 6
M  V30 6 1 5 7
M  V30 7 2 7 8
M  V30 8 1 8 9
M  V30 9 2 9 10
M  V30 10 1 10 11
M  V30 11 2 11 12
M  V30 12 1 12 13
M  V30 13 2 13 14
M  V30 14 1 13 15
M  V30 15 1 15 16
M  V30 16 2 16 17
M  V30 17 1 17 18
M  V30 18 2 18 19
M  V30 19 1 19 20
M  V30 20 2 20 21
M  V30 21 1 21 22
M  V30 22 2 22 23
M  V30 23 1 23 24
M  V30 24 2 24 25
M  V30 25 1 12 26
M  V30 26 2 26 27
M  V30 27 1 27 28
M  V30 28 1 28 2
M  V30 29 1 28 7
M  V30 30 1 27 9
M  V30 31 1 25 16
M  V30 32 1 24 19
M  V30 33 1 1 29
M  V30 34 1 1 30
M  V30 35 1 1 31
M  V30 36 1 2 32 CFG=3
M  V30 37 1 3 33
M  V30 38 1 3 34
M  V30 39 1 4 35
M  V30 40 1 8 36
M  V30 41 1 10 37
M  V30 42 1 11 38
M  V30 43 1 15 39
M  V30 44 1 17 40
M  V30 45 1 20 41
M  V30 46 1 21 42
M  V30 47 1 22 43
M  V30 48 1 23 44
M  V30 49 1 25 45
M  V30 END BOND
M  V30 END CTAB
M  END
>  <Dataset>  (976) 
ChEMBL_Kinases

>  <Ligand_Instance>  (976) 
nan

>  <PDB_ID>  (976) 
nan

>  <Standardized_SMILES>  (976) 
C[C@@H]1CNC(=O)c2cc3ccc(C(=O)Nc4cnc5ccccc5c4)nc3n21

>  <Name>  (976) 
nan

>  <Pocket>  (976) 
nan

>  <ATP_Site>  (976) 
nan

>  <Peripheral>  (976) 
nan

>  <Num_H_Atoms_ProtBoundConf>  (976) 
nan

>  <Num_Resolved_Atoms>  (976) 
nan

>  <Num_Not_Resolved_Atoms>  (976) 
nan

$$$$
CHEMBL3673628
     RDKit          3D

  0  0  0  0  0  0  0  0  0  0999 V3000
M  V30 BEGIN CTAB
M  V30 COUNTS 45 49 0 0 0
M  V30 BEGIN ATOM
M  V30 1 C 3.463210 -2.937624 1.864100 0
M  V30 2 C 3.537874 -1.457274 2.204112 0 CFG=1
M  V30 3 C 4.654534 -1.280000 3.220314 0
M  V30 4 N 5.897080 -1.604103 2.538037 0
M  V30 5 C 6.214162 -0.881212 1.351173 0
M  V30 6 O 7.410986 -0.662630 1.033716 0
M  V30 7 C 5.069860 -0.416949 0.538139 0
M  V30 8 C 5.012425 0.287873 -0.632128 0
M  V30 9 C 3.672603 0.437716 -0.930789 0
M  V30 10 C 2.981257 1.044728 -1.962718 0
M  V30 11 C 1.592083 1.045850 -2.016712 0
M  V30 12 C 0.939521 0.406992 -0.982449 0
M  V30 13 C -0.521480 0.410499 -1.042984 0
M  V30 14 O -1.184107 0.944990 -1.953770 0
M  V30 15 N -1.219548 -0.241201 0.011133 0
M  V30 16 C -2.611950 -0.420957 0.256930 0
M  V30 17 C -3.175549 -1.558075 -0.279732 0
M  V30 18 N -4.507094 -1.752508 -0.058115 0
M  V30 19 C -5.236019 -0.874675 0.651502 0
M  V30 20 C -6.583500 -1.122947 0.844983 0
M  V30 21 C -7.375336 -0.261442 1.560803 0
M  V30 22 C -6.822149 0.874177 2.099211 0
M  V30 23 C -5.484548 1.171318 1.937445 0
M  V30 24 C -4.720786 0.278189 1.209846 0
M  V30 25 C -3.368741 0.491193 0.994128 0
M  V30 26 N 1.626490 -0.181646 0.018863 0
M  V30 27 C 2.967659 -0.191032 0.084754 0
M  V30 28 N 3.841595 -0.719112 0.992755 0
M  V30 29 H 4.170029 -3.546111 2.458059 0
M  V30 30 H 2.420665 -3.294777 2.077013 0
M  V30 31 H 3.679592 -3.099213 0.792340 0
M  V30 32 H 2.557808 -1.097318 2.633568 0
M  V30 33 H 4.667947 -0.187775 3.490298 0
M  V30 34 H 4.482309 -1.892264 4.104343 0
M  V30 35 H 6.551605 -2.337620 2.886557 0
M  V30 36 H 5.848196 0.655272 -1.209629 0
M  V30 37 H 3.522640 1.533057 -2.751709 0
M  V30 38 H 1.105017 1.536971 -2.848911 0
M  V30 39 H -0.752647 -0.716807 0.817006 0
M  V30 40 H -2.616123 -2.266985 -0.845377 0
M  V30 41 H -7.084257 -2.000124 0.447743 0
M  V30 42 H -8.441313 -0.464586 1.709829 0
M  V30 43 H -7.459303 1.542211 2.660147 0
M  V30 44 H -5.026765 2.067524 2.356953 0
M  V30 45 H -2.867100 1.365399 1.389372 0
M  V30 END ATOM
M  V30 BEGIN BOND
M  V30 1 1 1 2
M  V30 2 1 2 3
M  V30 3 1 3 4
M  V30 4 1 4 5
M  V30 5 2 5 6
M  V30 6 1 5 7
M  V30 7 2 7 8
M  V30 8 1 8 9
M  V30 9 2 9 10
M  V30 10 1 10 11
M  V30 11 2 11 12
M  V30 12 1 12 13
M  V30 13 2 13 14
M  V30 14 1 13 15
M  V30 15 1 15 16
M  V30 16 2 16 17
M  V30 17 1 17 18
M  V30 18 2 18 19
M  V30 19 1 19 20
M  V30 20 2 20 21
M  V30 21 1 21 22
M  V30 22 2 22 23
M  V30 23 1 23 24
M  V30 24 2 24 25
M  V30 25 1 12 26
M  V30 26 2 26 27
M  V30 27 1 27 28
M  V30 28 1 28 2
M  V30 29 1 28 7
M  V30 30 1 27 9
M  V30 31 1 25 16
M  V30 32 1 24 19
M  V30 33 1 1 29
M  V30 34 1 1 30
M  V30 35 1 1 31
M  V30 36 1 2 32 CFG=1
M  V30 37 1 3 33
M  V30 38 1 3 34
M  V30 39 1 4 35
M  V30 40 1 8 36
M  V30 41 1 10 37
M  V30 42 1 11 38
M  V30 43 1 15 39
M  V30 44 1 17 40
M  V30 45 1 20 41
M  V30 46 1 21 42
M  V30 47 1 22 43
M  V30 48 1 23 44
M  V30 49 1 25 45
M  V30 END BOND
M  V30 END CTAB
M  END
>  <Dataset>  (977) 
ChEMBL_Kinases

>  <Ligand_Instance>  (977) 
nan

>  <PDB_ID>  (977) 
nan

>  <Standardized_SMILES>  (977) 
C[C@H]1CNC(=O)c2cc3ccc(C(=O)Nc4cnc5ccccc5c4)nc3n21

>  <Name>  (977) 
nan

>  <Pocket>  (977) 
nan

>  <ATP_Site>  (977) 
nan

>  <Peripheral>  (977) 
nan

>  <Num_H_Atoms_ProtBoundConf>  (977) 
nan

>  <Num_Resolved_Atoms>  (977) 
nan

>  <Num_Not_Resolved_Atoms>  (977) 
nan

$$$$
CHEMBL3673629
     RDKit          3D

  0  0  0  0  0  0  0  0  0  0999 V3000
M  V30 BEGIN CTAB
M  V30 COUNTS 51 55 0 0 0
M  V30 BEGIN ATOM
M  V30 1 C 5.308349 -1.295357 5.385785 0
M  V30 2 C 6.198559 -1.244397 4.161824 0
M  V30 3 C 6.369236 -2.691363 3.687541 0
M  V30 4 N 5.653508 -0.424119 3.120282 0
M  V30 5 N 6.208025 0.585937 2.484754 0
M  V30 6 C 5.373012 1.105587 1.566459 0
M  V30 7 C 4.212603 0.332908 1.664037 0
M  V30 8 C 2.999439 0.370556 0.989120 0
M  V30 9 C 2.012132 -0.538592 1.303493 0
M  V30 10 N 0.736482 -0.582449 0.670642 0
M  V30 11 C -0.203852 0.241494 1.357184 0
M  V30 12 O 0.238550 0.852053 2.378350 0
M  V30 13 C -1.591332 0.368537 0.904160 0
M  V30 14 C -2.419122 1.193112 1.642245 0
M  V30 15 C -3.747451 1.380985 1.297783 0
M  V30 16 C -4.179540 0.695812 0.180756 0
M  V30 17 C -5.417855 0.655559 -0.430370 0
M  V30 18 C -5.314419 -0.196614 -1.531395 0
M  V30 19 N -4.057437 -0.664039 -1.595521 0
M  V30 20 C -3.366902 -0.131584 -0.567944 0
M  V30 21 N -2.063741 -0.280072 -0.181770 0
M  V30 22 C -3.646285 -1.573890 -2.635875 0 CFG=2
M  V30 23 C -3.213418 -0.676504 -3.802748 0
M  V30 24 C -4.803251 -2.389311 -3.165386 0
M  V30 25 N -5.906532 -1.522348 -3.582799 0
M  V30 26 C -6.299210 -0.617805 -2.541407 0
M  V30 27 O -7.473616 -0.133982 -2.418076 0
M  V30 28 C 2.219166 -1.492881 2.289734 0
M  V30 29 N 3.408847 -1.501922 2.925971 0
M  V30 30 C 4.405217 -0.628221 2.648961 0
M  V30 31 H 5.890356 -1.673520 6.252777 0
M  V30 32 H 4.447951 -1.978035 5.232336 0
M  V30 33 H 4.882361 -0.306310 5.637169 0
M  V30 34 H 7.197094 -0.847281 4.444762 0
M  V30 35 H 6.919477 -3.273692 4.426351 0
M  V30 36 H 6.953362 -2.682083 2.726547 0
M  V30 37 H 5.379352 -3.140000 3.535684 0
M  V30 38 H 5.454924 1.920759 0.860567 0
M  V30 39 H 2.801678 1.094362 0.219563 0
M  V30 40 H 0.342691 -1.078092 -0.173921 0
M  V30 41 H -2.063616 1.722876 2.515543 0
M  V30 42 H -4.438491 2.015834 1.841876 0
M  V30 43 H -6.308249 1.203291 -0.093239 0
M  V30 44 H -2.857467 -2.258322 -2.321545 0
M  V30 45 H -2.609451 -1.206600 -4.546194 0
M  V30 46 H -4.175163 -0.294471 -4.253549 0
M  V30 47 H -2.714181 0.213579 -3.373618 0
M  V30 48 H -4.440254 -2.901347 -4.101173 0
M  V30 49 H -5.111458 -3.179510 -2.471138 0
M  V30 50 H -6.466768 -1.417971 -4.465389 0
M  V30 51 H 1.524390 -2.257267 2.625462 0
M  V30 END ATOM
M  V30 BEGIN BOND
M  V30 1 1 1 2
M  V30 2 1 2 3
M  V30 3 1 2 4
M  V30 4 1 4 5
M  V30 5 2 5 6
M  V30 6 1 6 7
M  V30 7 2 7 8
M  V30 8 1 8 9
M  V30 9 1 9 10
M  V30 10 1 10 11
M  V30 11 2 11 12
M  V30 12 1 11 13
M  V30 13 2 13 14
M  V30 14 1 14 15
M  V30 15 2 15 16
M  V30 16 1 16 17
M  V30 17 2 17 18
M  V30 18 1 18 19
M  V30 19 1 19 20
M  V30 20 2 20 21
M  V30 21 1 19 22
M  V30 22 1 22 23
M  V30 23 1 22 24
M  V30 24 1 24 25
M  V30 25 1 25 26
M  V30 26 2 26 27
M  V30 27 2 9 28
M  V30 28 1 28 29
M  V30 29 2 29 30
M  V30 30 1 30 4
M  V30 31 1 30 7
M  V30 32 1 21 13
M  V30 33 1 20 16
M  V30 34 1 26 18
M  V30 35 1 1 31
M  V30 36 1 1 32
M  V30 37 1 1 33
M  V30 38 1 2 34
M  V30 39 1 3 35
M  V30 40 1 3 36
M  V30 41 1 3 37
M  V30 42 1 6 38
M  V30 43 1 8 39
M  V30 44 1 10 40
M  V30 45 1 14 41
M  V30 46 1 15 42
M  V30 47 1 17 43
M  V30 48 1 22 44 CFG=1
M  V30 49 1 23 45
M  V30 50 1 23 46
M  V30 51 1 23 47
M  V30 52 1 24 48
M  V30 53 1 24 49
M  V30 54 1 25 50
M  V30 55 1 28 51
M  V30 END BOND
M  V30 END CTAB
M  END
>  <Dataset>  (978) 
ChEMBL_Kinases

>  <Ligand_Instance>  (978) 
nan

>  <PDB_ID>  (978) 
nan

>  <Standardized_SMILES>  (978) 
CC(C)n1ncc2cc(NC(=O)c3ccc4cc5n(c4n3)[C@H](C)CNC5=O)cnc21

>  <Name>  (978) 
nan

>  <Pocket>  (978) 
nan

>  <ATP_Site>  (978) 
nan

>  <Peripheral>  (978) 
nan

>  <Num_H_Atoms_ProtBoundConf>  (978) 
nan

>  <Num_Resolved_Atoms>  (978) 
nan

>  <Num_Not_Resolved_Atoms>  (978) 
nan

$$$$
CHEMBL3673630
     RDKit          3D

  0  0  0  0  0  0  0  0  0  0999 V3000
M  V30 BEGIN CTAB
M  V30 COUNTS 43 47 0 0 0
M  V30 BEGIN ATOM
M  V30 1 O 0.676650 2.792590 1.525141 0
M  V30 2 C 0.534649 1.548131 1.347591 0
M  V30 3 N 1.651468 0.840096 0.856076 0
M  V30 4 C 2.926569 1.394871 0.540033 0
M  V30 5 N 4.049133 1.585184 1.263350 0
M  V30 6 C 4.997709 2.160832 0.480773 0
M  V30 7 C 6.301434 2.555408 0.737734 0
M  V30 8 C 7.096653 3.138185 -0.254950 0
M  V30 9 Cl 8.722032 3.605220 0.149077 0
M  V30 10 C 6.530573 3.308014 -1.512762 0
M  V30 11 C 5.228175 2.908779 -1.752456 0
M  V30 12 C 4.427442 2.328186 -0.773801 0
M  V30 13 N 3.170578 1.852894 -0.702659 0
M  V30 14 C -0.721551 0.857142 1.632892 0
M  V30 15 C -1.805156 1.566930 2.113926 0
M  V30 16 C -2.970694 0.839515 2.363096 0
M  V30 17 C -3.059391 -0.514419 2.148417 0
M  V30 18 C -4.013635 -1.502161 2.281845 0
M  V30 19 C -3.438204 -2.704152 1.877948 0
M  V30 20 N -2.160960 -2.501380 1.497966 0
M  V30 21 C -1.942867 -1.175803 1.665358 0
M  V30 22 N -0.809833 -0.469560 1.422979 0
M  V30 23 C -1.150719 -3.411963 1.004723 0
M  V30 24 C -1.782905 -4.443144 0.093653 0
M  V30 25 C -2.328502 -5.570613 0.969379 0
M  V30 26 N -3.708385 -5.253182 1.348763 0
M  V30 27 C -4.135475 -3.985898 1.874680 0
M  V30 28 O -5.277325 -3.982756 2.410044 0
M  V30 29 H 1.617584 -0.206207 0.678931 0
M  V30 30 H 6.728017 2.413170 1.733506 0
M  V30 31 H 7.139759 3.759867 -2.291397 0
M  V30 32 H 4.797598 3.049006 -2.746319 0
M  V30 33 H 2.550804 1.882087 -1.553127 0
M  V30 34 H -1.765792 2.642743 2.294651 0
M  V30 35 H -3.853134 1.326123 2.738381 0
M  V30 36 H -5.021533 -1.334326 2.640685 0
M  V30 37 H -0.644789 -3.938113 1.844495 0
M  V30 38 H -0.357340 -2.831568 0.488211 0
M  V30 39 H -1.028765 -4.813960 -0.643998 0
M  V30 40 H -2.643072 -3.992834 -0.479564 0
M  V30 41 H -2.299800 -6.508058 0.396395 0
M  V30 42 H -1.746378 -5.670881 1.909428 0
M  V30 43 H -4.505655 -5.923379 1.269695 0
M  V30 END ATOM
M  V30 BEGIN BOND
M  V30 1 2 1 2
M  V30 2 1 2 3
M  V30 3 1 3 4
M  V30 4 2 4 5
M  V30 5 1 5 6
M  V30 6 2 6 7
M  V30 7 1 7 8
M  V30 8 1 8 9
M  V30 9 2 8 10
M  V30 10 1 10 11
M  V30 11 2 11 12
M  V30 12 1 12 13
M  V30 13 1 2 14
M  V30 14 2 14 15
M  V30 15 1 15 16
M  V30 16 2 16 17
M  V30 17 1 17 18
M  V30 18 2 18 19
M  V30 19 1 19 20
M  V30 20 1 20 21
M  V30 21 2 21 22
M  V30 22 1 20 23
M  V30 23 1 23 24
M  V30 24 1 24 25
M  V30 25 1 25 26
M  V30 26 1 26 27
M  V30 27 2 27 28
M  V30 28 1 13 4
M  V30 29 1 22 14
M  V30 30 1 12 6
M  V30 31 1 21 17
M  V30 32 1 27 19
M  V30 33 1 3 29
M  V30 34 1 7 30
M  V30 35 1 10 31
M  V30 36 1 11 32
M  V30 37 1 13 33
M  V30 38 1 15 34
M  V30 39 1 16 35
M  V30 40 1 18 36
M  V30 41 1 23 37
M  V30 42 1 23 38
M  V30 43 1 24 39
M  V30 44 1 24 40
M  V30 45 1 25 41
M  V30 46 1 25 42
M  V30 47 1 26 43
M  V30 END BOND
M  V30 END CTAB
M  END
>  <Dataset>  (979) 
ChEMBL_Kinases

>  <Ligand_Instance>  (979) 
nan

>  <PDB_ID>  (979) 
nan

>  <Standardized_SMILES>  (979) 
O=C(Nc1nc2cc(Cl)ccc2[nH]1)c1ccc2cc3n(c2n1)CCCNC3=O

>  <Name>  (979) 
nan

>  <Pocket>  (979) 
nan

>  <ATP_Site>  (979) 
nan

>  <Peripheral>  (979) 
nan

>  <Num_H_Atoms_ProtBoundConf>  (979) 
nan

>  <Num_Resolved_Atoms>  (979) 
nan

>  <Num_Not_Resolved_Atoms>  (979) 
nan

$$$$
CHEMBL3673631
     RDKit          3D

  0  0  0  0  0  0  0  0  0  0999 V3000
M  V30 BEGIN CTAB
M  V30 COUNTS 52 56 0 0 0
M  V30 BEGIN ATOM
M  V30 1 C 1.941719 -0.197216 3.259459 0
M  V30 2 C 2.958568 -0.503872 2.208793 0
M  V30 3 C 4.107502 -1.318653 2.715485 0
M  V30 4 C 4.877490 -0.698494 3.834130 0
M  V30 5 N 6.012719 -0.002015 3.209724 0
M  V30 6 C 5.799042 0.999987 2.196613 0
M  V30 7 O 6.800976 1.703299 1.889948 0
M  V30 8 C 4.587044 1.360060 1.433968 0
M  V30 9 C 4.468846 2.421207 0.573123 0
M  V30 10 C 3.184008 2.404356 0.070143 0
M  V30 11 C 2.491134 3.217389 -0.831281 0
M  V30 12 C 1.159973 2.927917 -1.143907 0
M  V30 13 C 0.555900 1.838408 -0.551332 0
M  V30 14 C -0.838866 1.576085 -0.910283 0
M  V30 15 O -1.483273 2.293303 -1.718861 0
M  V30 16 N -1.443371 0.453220 -0.292216 0
M  V30 17 C -2.750958 -0.097284 -0.395240 0
M  V30 18 C -3.862386 0.213685 0.375905 0
M  V30 19 N -4.910932 -0.531345 -0.041372 0
M  V30 20 N -4.531673 -1.305561 -1.041065 0
M  V30 21 C -5.327435 -2.277741 -1.806167 0
M  V30 22 C -5.246373 -3.618824 -1.152048 0
M  V30 23 C -6.120440 -4.069295 -0.176978 0
M  V30 24 C -5.941080 -5.341791 0.357826 0
M  V30 25 N -4.955509 -6.169860 -0.022316 0
M  V30 26 C -4.075848 -5.773681 -0.972841 0
M  V30 27 C -4.245002 -4.514146 -1.509222 0
M  V30 28 C -3.209206 -1.059205 -1.279115 0
M  V30 29 N 1.262232 1.075895 0.316773 0
M  V30 30 C 2.539810 1.324099 0.639515 0
M  V30 31 N 3.406100 0.685928 1.476521 0
M  V30 32 H 1.409717 0.758942 3.084776 0
M  V30 33 H 1.148013 -0.990017 3.271774 0
M  V30 34 H 2.324616 -0.168750 4.293811 0
M  V30 35 H 2.451617 -1.158339 1.439970 0
M  V30 36 H 4.754370 -1.604185 1.868210 0
M  V30 37 H 3.669734 -2.270989 3.086098 0
M  V30 38 H 4.345695 0.087790 4.397461 0
M  V30 39 H 5.232410 -1.425704 4.590973 0
M  V30 40 H 7.018030 -0.176574 3.446390 0
M  V30 41 H 5.252704 3.133476 0.341892 0
M  V30 42 H 2.997527 4.062412 -1.275663 0
M  V30 43 H 0.624959 3.564517 -1.846696 0
M  V30 44 H -0.945156 -0.174399 0.388967 0
M  V30 45 H -3.917813 0.932809 1.190074 0
M  V30 46 H -6.381904 -1.985405 -1.809961 0
M  V30 47 H -4.876584 -2.369644 -2.814326 0
M  V30 48 H -6.901930 -3.390871 0.112698 0
M  V30 49 H -6.670992 -5.628552 1.123942 0
M  V30 50 H -3.261637 -6.393903 -1.321272 0
M  V30 51 H -3.544713 -4.195213 -2.267823 0
M  V30 52 H -2.575033 -1.519798 -2.031288 0
M  V30 END ATOM
M  V30 BEGIN BOND
M  V30 1 1 1 2
M  V30 2 1 2 3
M  V30 3 1 3 4
M  V30 4 1 4 5
M  V30 5 1 5 6
M  V30 6 2 6 7
M  V30 7 1 6 8
M  V30 8 2 8 9
M  V30 9 1 9 10
M  V30 10 2 10 11
M  V30 11 1 11 12
M  V30 12 2 12 13
M  V30 13 1 13 14
M  V30 14 2 14 15
M  V30 15 1 14 16
M  V30 16 1 16 17
M  V30 17 1 17 18
M  V30 18 2 18 19
M  V30 19 1 19 20
M  V30 20 1 20 21
M  V30 21 1 21 22
M  V30 22 2 22 23
M  V30 23 1 23 24
M  V30 24 2 24 25
M  V30 25 1 25 26
M  V30 26 2 26 27
M  V30 27 1 20 28
M  V30 28 1 13 29
M  V30 29 2 29 30
M  V30 30 1 30 31
M  V30 31 1 31 2
M  V30 32 1 31 8
M  V30 33 1 30 10
M  V30 34 2 28 17
M  V30 35 1 27 22
M  V30 36 1 1 32
M  V30 37 1 1 33
M  V30 38 1 1 34
M  V30 39 1 2 35
M  V30 40 1 3 36
M  V30 41 1 3 37
M  V30 42 1 4 38
M  V30 43 1 4 39
M  V30 44 1 5 40
M  V30 45 1 9 41
M  V30 46 1 11 42
M  V30 47 1 12 43
M  V30 48 1 16 44
M  V30 49 1 18 45
M  V30 50 1 21 46
M  V30 51 1 21 47
M  V30 52 1 23 48
M  V30 53 1 24 49
M  V30 54 1 26 50
M  V30 55 1 27 51
M  V30 56 1 28 52
M  V30 END BOND
M  V30 END CTAB
M  END
>  <Dataset>  (980) 
ChEMBL_Kinases

>  <Ligand_Instance>  (980) 
nan

>  <PDB_ID>  (980) 
nan

>  <Standardized_SMILES>  (980) 
CC1CCNC(=O)c2cc3ccc(C(=O)Nc4cnn(Cc5ccncc5)c4)nc3n21

>  <Name>  (980) 
nan

>  <Pocket>  (980) 
nan

>  <ATP_Site>  (980) 
nan

>  <Peripheral>  (980) 
nan

>  <Num_H_Atoms_ProtBoundConf>  (980) 
nan

>  <Num_Resolved_Atoms>  (980) 
nan

>  <Num_Not_Resolved_Atoms>  (980) 
nan

$$$$
CHEMBL3673632
     RDKit          3D

  0  0  0  0  0  0  0  0  0  0999 V3000
M  V30 BEGIN CTAB
M  V30 COUNTS 52 56 0 0 0
M  V30 BEGIN ATOM
M  V30 1 C -1.133911 -3.333650 3.057724 0
M  V30 2 C 0.332346 -3.648555 3.035759 0
M  V30 3 N 0.785979 -4.213656 1.780679 0
M  V30 4 C 1.227103 -3.394067 0.781610 0
M  V30 5 N 1.317107 -1.974345 0.780018 0
M  V30 6 C 2.310097 -1.044731 1.141737 0
M  V30 7 O 3.392285 -1.461248 1.572774 0
M  V30 8 C 1.967965 0.363867 0.972577 0
M  V30 9 C 2.945263 1.270242 1.328763 0
M  V30 10 C 2.647638 2.609283 1.178635 0
M  V30 11 C 1.431369 3.047666 0.694961 0
M  V30 12 C 0.905181 4.283990 0.458680 0
M  V30 13 C -0.365211 4.092577 -0.029796 0
M  V30 14 N -0.627993 2.754899 -0.097327 0
M  V30 15 C 0.473029 2.097272 0.347277 0
M  V30 16 N 0.790959 0.805232 0.504074 0
M  V30 17 C -1.801508 1.989362 -0.533347 0
M  V30 18 C -1.287368 0.861447 -1.402415 0
M  V30 19 C -2.751210 2.808900 -1.340548 0
M  V30 20 C -3.499267 3.803514 -0.488365 0
M  V30 21 N -2.744768 5.059358 -0.593832 0
M  V30 22 C -1.321739 5.140681 -0.428416 0
M  V30 23 O -0.761733 6.249367 -0.643955 0
M  V30 24 N 1.579874 -4.183982 -0.250925 0
M  V30 25 C 1.386338 -5.484707 0.035306 0
M  V30 26 C 1.543294 -6.714000 -0.565907 0
M  V30 27 C 1.207721 -7.893036 0.104369 0
M  V30 28 C 0.707930 -7.863248 1.391169 0
M  V30 29 C 0.552368 -6.646518 1.986785 0
M  V30 30 C 0.884483 -5.482590 1.322947 0
M  V30 31 H -1.563261 -3.297015 2.036072 0
M  V30 32 H -1.228219 -2.336404 3.561207 0
M  V30 33 H -1.736908 -4.024647 3.679900 0
M  V30 34 H 0.509816 -4.412117 3.836971 0
M  V30 35 H 0.976972 -2.784799 3.333824 0
M  V30 36 H 0.369955 -1.681536 0.404616 0
M  V30 37 H 3.919973 0.955654 1.715420 0
M  V30 38 H 3.420300 3.339633 1.459872 0
M  V30 39 H 1.365204 5.260340 0.612156 0
M  V30 40 H -2.337121 1.554140 0.356328 0
M  V30 41 H -1.484242 -0.098563 -0.920161 0
M  V30 42 H -1.810546 0.844093 -2.400883 0
M  V30 43 H -0.207080 0.984367 -1.655167 0
M  V30 44 H -2.160834 3.325177 -2.137761 0
M  V30 45 H -3.454219 2.098119 -1.832176 0
M  V30 46 H -3.472400 3.546803 0.599336 0
M  V30 47 H -4.547604 3.941965 -0.794419 0
M  V30 48 H -3.220967 5.947363 -0.794968 0
M  V30 49 H 1.936685 -6.694618 -1.571875 0
M  V30 50 H 1.370787 -8.804117 -0.461119 0
M  V30 51 H 0.470166 -8.825240 1.845600 0
M  V30 52 H 0.154263 -6.634469 3.009906 0
M  V30 END ATOM
M  V30 BEGIN BOND
M  V30 1 1 1 2
M  V30 2 1 2 3
M  V30 3 1 3 4
M  V30 4 1 4 5
M  V30 5 1 5 6
M  V30 6 2 6 7
M  V30 7 1 6 8
M  V30 8 2 8 9
M  V30 9 1 9 10
M  V30 10 2 10 11
M  V30 11 1 11 12
M  V30 12 2 12 13
M  V30 13 1 13 14
M  V30 14 1 14 15
M  V30 15 2 15 16
M  V30 16 1 14 17
M  V30 17 1 17 18
M  V30 18 1 17 19
M  V30 19 1 19 20
M  V30 20 1 20 21
M  V30 21 1 21 22
M  V30 22 2 22 23
M  V30 23 2 4 24
M  V30 24 1 24 25
M  V30 25 2 25 26
M  V30 26 1 26 27
M  V30 27 2 27 28
M  V30 28 1 28 29
M  V30 29 2 29 30
M  V30 30 1 30 3
M  V30 31 1 16 8
M  V30 32 1 30 25
M  V30 33 1 15 11
M  V30 34 1 22 13
M  V30 35 1 1 31
M  V30 36 1 1 32
M  V30 37 1 1 33
M  V30 38 1 2 34
M  V30 39 1 2 35
M  V30 40 1 5 36
M  V30 41 1 9 37
M  V30 42 1 10 38
M  V30 43 1 12 39
M  V30 44 1 17 40
M  V30 45 1 18 41
M  V30 46 1 18 42
M  V30 47 1 18 43
M  V30 48 1 19 44
M  V30 49 1 19 45
M  V30 50 1 20 46
M  V30 51 1 20 47
M  V30 52 1 21 48
M  V30 53 1 26 49
M  V30 54 1 27 50
M  V30 55 1 28 51
M  V30 56 1 29 52
M  V30 END BOND
M  V30 END CTAB
M  END
>  <Dataset>  (981) 
ChEMBL_Kinases

>  <Ligand_Instance>  (981) 
nan

>  <PDB_ID>  (981) 
nan

>  <Standardized_SMILES>  (981) 
CCn1c(NC(=O)c2ccc3cc4n(c3n2)C(C)CCNC4=O)nc2ccccc21

>  <Name>  (981) 
nan

>  <Pocket>  (981) 
nan

>  <ATP_Site>  (981) 
nan

>  <Peripheral>  (981) 
nan

>  <Num_H_Atoms_ProtBoundConf>  (981) 
nan

>  <Num_Resolved_Atoms>  (981) 
nan

>  <Num_Not_Resolved_Atoms>  (981) 
nan

$$$$
CHEMBL3673633
     RDKit          3D

  0  0  0  0  0  0  0  0  0  0999 V3000
M  V30 BEGIN CTAB
M  V30 COUNTS 63 67 0 0 0
M  V30 BEGIN ATOM
M  V30 1 C 1.754046 1.055104 0.008718 0
M  V30 2 C 2.335362 2.402709 0.406868 0
M  V30 3 C 2.782381 3.062173 -0.882338 0
M  V30 4 C 4.096278 3.794680 -0.607309 0
M  V30 5 N 3.707610 5.050358 0.013229 0
M  V30 6 C 2.483899 5.491368 0.630680 0
M  V30 7 O 2.249188 6.723385 0.742664 0
M  V30 8 C 1.453625 4.572730 1.157818 0
M  V30 9 C 0.346849 5.037687 1.871244 0
M  V30 10 C -0.431782 3.957799 2.230465 0
M  V30 11 C -1.619620 3.727567 2.922098 0
M  V30 12 C -2.112519 2.429175 3.087098 0
M  V30 13 C -1.406272 1.368532 2.554412 0
M  V30 14 C -1.977331 0.037956 2.763805 0
M  V30 15 O -3.050514 -0.168304 3.387395 0
M  V30 16 N -1.228046 -1.036312 2.206339 0
M  V30 17 C -1.415623 -2.439690 2.178360 0
M  V30 18 N -0.933244 -3.262773 3.147782 0
M  V30 19 C -1.247839 -4.539134 2.879280 0
M  V30 20 C -1.037437 -5.764319 3.478619 0
M  V30 21 C -1.519311 -6.924578 2.910894 0
M  V30 22 C -2.227769 -6.896460 1.724314 0
M  V30 23 C -2.432915 -5.657476 1.130725 0
M  V30 24 C -1.960533 -4.480910 1.679222 0
M  V30 25 N -2.061555 -3.211994 1.256060 0
M  V30 26 C -2.693624 -2.656395 0.079204 0
M  V30 27 C -1.780169 -2.542747 -1.106536 0
M  V30 28 C -1.200758 -3.856261 -1.567905 0
M  V30 29 N -0.348184 -3.595754 -2.712873 0
M  V30 30 C 0.256230 -4.808196 -3.225256 0
M  V30 31 C -1.026100 -2.900659 -3.762181 0
M  V30 32 N -0.258018 1.613871 1.888135 0
M  V30 33 C 0.228116 2.858054 1.721703 0
M  V30 34 N 1.353112 3.230821 1.082234 0
M  V30 35 H 2.579299 0.547872 -0.560604 0
M  V30 36 H 0.915217 1.178981 -0.724744 0
M  V30 37 H 1.520678 0.409579 0.856234 0
M  V30 38 H 3.214671 2.158798 1.054675 0
M  V30 39 H 2.853378 2.380142 -1.736588 0
M  V30 40 H 1.992550 3.804759 -1.149545 0
M  V30 41 H 4.674550 3.241275 0.161104 0
M  V30 42 H 4.672186 3.972038 -1.527109 0
M  V30 43 H 4.436540 5.792500 0.027766 0
M  V30 44 H 0.083454 6.058488 2.133378 0
M  V30 45 H -2.112556 4.607873 3.307965 0
M  V30 46 H -3.038449 2.291852 3.630432 0
M  V30 47 H -0.335742 -0.889428 1.685358 0
M  V30 48 H -0.478196 -5.725176 4.402753 0
M  V30 49 H -1.332026 -7.881103 3.416899 0
M  V30 50 H -2.612176 -7.801709 1.267532 0
M  V30 51 H -2.993144 -5.639336 0.193328 0
M  V30 52 H -3.625906 -3.210999 -0.169584 0
M  V30 53 H -3.038675 -1.611518 0.310298 0
M  V30 54 H -2.388483 -2.074349 -1.921943 0
M  V30 55 H -0.957629 -1.823967 -0.905363 0
M  V30 56 H -0.674707 -4.385645 -0.768554 0
M  V30 57 H -2.033657 -4.494727 -1.927135 0
M  V30 58 H -0.369411 -5.354020 -3.942503 0
M  V30 59 H 1.204328 -4.532237 -3.732394 0
M  V30 60 H 0.539229 -5.510693 -2.417030 0
M  V30 61 H -1.117704 -1.836967 -3.499566 0
M  V30 62 H -0.322751 -2.917565 -4.645431 0
M  V30 63 H -1.987868 -3.359294 -4.074304 0
M  V30 END ATOM
M  V30 BEGIN BOND
M  V30 1 1 1 2
M  V30 2 1 2 3
M  V30 3 1 3 4
M  V30 4 1 4 5
M  V30 5 1 5 6
M  V30 6 2 6 7
M  V30 7 1 6 8
M  V30 8 2 8 9
M  V30 9 1 9 10
M  V30 10 2 10 11
M  V30 11 1 11 12
M  V30 12 2 12 13
M  V30 13 1 13 14
M  V30 14 2 14 15
M  V30 15 1 14 16
M  V30 16 1 16 17
M  V30 17 2 17 18
M  V30 18 1 18 19
M  V30 19 2 19 20
M  V30 20 1 20 21
M  V30 21 2 21 22
M  V30 22 1 22 23
M  V30 23 2 23 24
M  V30 24 1 24 25
M  V30 25 1 25 26
M  V30 26 1 26 27
M  V30 27 1 27 28
M  V30 28 1 28 29
M  V30 29 1 29 30
M  V30 30 1 29 31
M  V30 31 1 13 32
M  V30 32 2 32 33
M  V30 33 1 33 34
M  V30 34 1 34 2
M  V30 35 1 34 8
M  V30 36 1 33 10
M  V30 37 1 25 17
M  V30 38 1 24 19
M  V30 39 1 1 35
M  V30 40 1 1 36
M  V30 41 1 1 37
M  V30 42 1 2 38
M  V30 43 1 3 39
M  V30 44 1 3 40
M  V30 45 1 4 41
M  V30 46 1 4 42
M  V30 47 1 5 43
M  V30 48 1 9 44
M  V30 49 1 11 45
M  V30 50 1 12 46
M  V30 51 1 16 47
M  V30 52 1 20 48
M  V30 53 1 21 49
M  V30 54 1 22 50
M  V30 55 1 23 51
M  V30 56 1 26 52
M  V30 57 1 26 53
M  V30 58 1 27 54
M  V30 59 1 27 55
M  V30 60 1 28 56
M  V30 61 1 28 57
M  V30 62 1 30 58
M  V30 63 1 30 59
M  V30 64 1 30 60
M  V30 65 1 31 61
M  V30 66 1 31 62
M  V30 67 1 31 63
M  V30 END BOND
M  V30 END CTAB
M  END
>  <Dataset>  (982) 
ChEMBL_Kinases

>  <Ligand_Instance>  (982) 
nan

>  <PDB_ID>  (982) 
nan

>  <Standardized_SMILES>  (982) 
CC1CCNC(=O)c2cc3ccc(C(=O)Nc4nc5ccccc5n4CCCN(C)C)nc3n21

>  <Name>  (982) 
nan

>  <Pocket>  (982) 
nan

>  <ATP_Site>  (982) 
nan

>  <Peripheral>  (982) 
nan

>  <Num_H_Atoms_ProtBoundConf>  (982) 
nan

>  <Num_Resolved_Atoms>  (982) 
nan

>  <Num_Not_Resolved_Atoms>  (982) 
nan

$$$$
CHEMBL3673625
     RDKit          3D

  0  0  0  0  0  0  0  0  0  0999 V3000
M  V30 BEGIN CTAB
M  V30 COUNTS 53 57 0 0 0
M  V30 BEGIN ATOM
M  V30 1 C 1.826729 -3.852614 5.260583 0
M  V30 2 C 2.602384 -3.875712 3.937066 0 CFG=2
M  V30 3 N 3.983257 -4.113606 4.206279 0
M  V30 4 C 5.028227 -3.565264 3.394504 0
M  V30 5 O 6.206750 -3.960722 3.524604 0
M  V30 6 C 4.667531 -2.536182 2.418209 0
M  V30 7 C 5.413458 -1.820736 1.504170 0
M  V30 8 C 4.479257 -0.996972 0.874620 0
M  V30 9 C 4.776711 -0.089218 -0.132152 0
M  V30 10 C 3.721850 0.644576 -0.640575 0
M  V30 11 C 2.462452 0.429315 -0.121566 0
M  V30 12 C 1.357226 1.213073 -0.669718 0
M  V30 13 O 1.524073 2.061873 -1.583779 0
M  V30 14 N 0.036696 1.052439 -0.193852 0
M  V30 15 C -1.124308 1.747993 -0.637648 0
M  V30 16 C -1.693287 2.928955 -0.200461 0
M  V30 17 N -2.799405 3.187922 -0.938005 0
M  V30 18 N -2.971515 2.213651 -1.843508 0
M  V30 19 C -4.023985 2.074597 -2.845348 0
M  V30 20 C -5.194009 1.315714 -2.323506 0
M  V30 21 C -6.270956 1.904167 -1.693111 0
M  V30 22 C -7.307273 1.085124 -1.247852 0
M  V30 23 C -7.254130 -0.274450 -1.433939 0
M  V30 24 C -6.204907 -0.901307 -2.054345 0
M  V30 25 C -5.178201 -0.063925 -2.492447 0
M  V30 26 C -1.947704 1.328704 -1.663681 0
M  V30 27 N 2.208910 -0.473522 0.869766 0
M  V30 28 C 3.222696 -1.215796 1.396683 0
M  V30 29 N 3.375758 -2.166482 2.341431 0
M  V30 30 C 2.275142 -2.679142 3.130275 0 CFG=1
M  V30 31 C 1.070744 -2.989588 2.235306 0
M  V30 32 H 1.827877 -4.877733 5.646463 0
M  V30 33 H 0.772946 -3.584299 4.973305 0
M  V30 34 H 2.226481 -3.088576 5.959352 0
M  V30 35 H 2.224229 -4.808700 3.423381 0
M  V30 36 H 4.196299 -4.725182 5.049397 0
M  V30 37 H 6.468153 -1.920192 1.358120 0
M  V30 38 H 5.759395 0.065607 -0.523491 0
M  V30 39 H 3.902632 1.352580 -1.413836 0
M  V30 40 H -0.203999 0.381628 0.553850 0
M  V30 41 H -1.272146 3.515024 0.614085 0
M  V30 42 H -4.385629 3.062760 -3.199885 0
M  V30 43 H -3.620049 1.529863 -3.729839 0
M  V30 44 H -6.274819 2.977840 -1.565935 0
M  V30 45 H -8.153985 1.526680 -0.754774 0
M  V30 46 H -8.049152 -0.951191 -1.097958 0
M  V30 47 H -6.112758 -1.966716 -2.226536 0
M  V30 48 H -4.339099 -0.530779 -2.984644 0
M  V30 49 H -1.835103 0.444905 -2.256852 0
M  V30 50 H 1.939051 -1.871383 3.820296 0
M  V30 51 H 1.336520 -2.870708 1.164419 0
M  V30 52 H 0.226399 -2.286223 2.411297 0
M  V30 53 H 0.682649 -4.002054 2.469383 0
M  V30 END ATOM
M  V30 BEGIN BOND
M  V30 1 1 1 2
M  V30 2 1 2 3
M  V30 3 1 3 4
M  V30 4 2 4 5
M  V30 5 1 4 6
M  V30 6 2 6 7
M  V30 7 1 7 8
M  V30 8 2 8 9
M  V30 9 1 9 10
M  V30 10 2 10 11
M  V30 11 1 11 12
M  V30 12 2 12 13
M  V30 13 1 12 14
M  V30 14 1 14 15
M  V30 15 1 15 16
M  V30 16 2 16 17
M  V30 17 1 17 18
M  V30 18 1 18 19
M  V30 19 1 19 20
M  V30 20 2 20 21
M  V30 21 1 21 22
M  V30 22 2 22 23
M  V30 23 1 23 24
M  V30 24 2 24 25
M  V30 25 1 18 26
M  V30 26 1 11 27
M  V30 27 2 27 28
M  V30 28 1 28 29
M  V30 29 1 29 30
M  V30 30 1 30 31
M  V30 31 1 30 2
M  V30 32 1 29 6
M  V30 33 1 28 8
M  V30 34 2 26 15
M  V30 35 1 25 20
M  V30 36 1 1 32
M  V30 37 1 1 33
M  V30 38 1 1 34
M  V30 39 1 2 35 CFG=3
M  V30 40 1 3 36
M  V30 41 1 7 37
M  V30 42 1 9 38
M  V30 43 1 10 39
M  V30 44 1 14 40
M  V30 45 1 16 41
M  V30 46 1 19 42
M  V30 47 1 19 43
M  V30 48 1 21 44
M  V30 49 1 22 45
M  V30 50 1 23 46
M  V30 51 1 24 47
M  V30 52 1 25 48
M  V30 53 1 26 49
M  V30 54 1 30 50 CFG=1
M  V30 55 1 31 51
M  V30 56 1 31 52
M  V30 57 1 31 53
M  V30 END BOND
M  V30 END CTAB
M  END
>  <Dataset>  (983) 
ChEMBL_Kinases

>  <Ligand_Instance>  (983) 
nan

>  <PDB_ID>  (983) 
nan

>  <Standardized_SMILES>  (983) 
C[C@@H]1NC(=O)c2cc3ccc(C(=O)Nc4cnn(Cc5ccccc5)c4)nc3n2[C@H]1C

>  <Name>  (983) 
nan

>  <Pocket>  (983) 
nan

>  <ATP_Site>  (983) 
nan

>  <Peripheral>  (983) 
nan

>  <Num_H_Atoms_ProtBoundConf>  (983) 
nan

>  <Num_Resolved_Atoms>  (983) 
nan

>  <Num_Not_Resolved_Atoms>  (983) 
nan

$$$$
CHEMBL3674600
     RDKit          3D

  0  0  0  0  0  0  0  0  0  0999 V3000
M  V30 BEGIN CTAB
M  V30 COUNTS 61 64 0 0 0
M  V30 BEGIN ATOM
M  V30 1 C 2.088955 1.301411 2.813117 0
M  V30 2 N 3.509117 1.083044 2.769875 0
M  V30 3 C 3.935583 0.126542 3.733403 0
M  V30 4 C 4.044786 0.954733 1.459375 0
M  V30 5 C 3.657536 -0.301782 0.703200 0 CFG=1
M  V30 6 O 2.266356 -0.364436 0.570153 0
M  V30 7 C 1.490892 -1.400539 1.016924 0
M  V30 8 O 2.255792 -2.264852 1.575514 0
M  V30 9 N 0.109955 -1.713302 1.002116 0
M  V30 10 C -0.827193 -0.825280 0.350866 0
M  V30 11 C -2.148968 -1.281459 0.858324 0
M  V30 12 C -1.964397 -2.443936 1.602392 0
M  V30 13 N -3.190847 -2.757912 2.019514 0
M  V30 14 N -4.100107 -1.899298 1.598850 0
M  V30 15 C -3.509604 -0.941182 0.858327 0
M  V30 16 N -3.929881 0.228434 0.135063 0
M  V30 17 C -5.143403 0.122563 -0.615943 0
M  V30 18 C -5.673672 1.171834 -1.385755 0
M  V30 19 C -6.825943 1.014860 -2.102870 0
M  V30 20 N -7.440708 -0.183833 -2.048340 0
M  V30 21 C -6.973492 -1.233087 -1.321162 0
M  V30 22 C -7.746374 -2.499973 -1.356752 0
M  V30 23 F -8.134990 -2.797489 -2.652352 0
M  V30 24 F -6.962722 -3.556075 -0.934492 0
M  V30 25 F -8.848087 -2.444569 -0.521379 0
M  V30 26 N -5.858103 -1.009578 -0.653790 0
M  V30 27 C -0.523891 -2.848164 1.589866 0
M  V30 28 C -0.069246 -3.158818 2.972809 0
M  V30 29 C -0.346615 -4.064005 0.656855 0
M  V30 30 C 4.314028 -0.183838 -0.648236 0
M  V30 31 C 5.316858 -0.976044 -1.154567 0
M  V30 32 C 5.850307 -0.763195 -2.403650 0
M  V30 33 C 5.390216 0.268297 -3.199057 0
M  V30 34 C 4.372415 1.078985 -2.695502 0
M  V30 35 C 3.854478 0.837984 -1.431793 0
M  V30 36 H 1.729372 1.534154 1.796941 0
M  V30 37 H 1.585607 0.428044 3.210147 0
M  V30 38 H 1.842562 2.208594 3.421286 0
M  V30 39 H 3.131789 -0.325747 4.350234 0
M  V30 40 H 4.571966 -0.646247 3.231730 0
M  V30 41 H 4.618838 0.644724 4.448697 0
M  V30 42 H 3.678346 1.833619 0.870206 0
M  V30 43 H 5.145318 1.061432 1.516140 0
M  V30 44 H 4.051036 -1.202370 1.168114 0
M  V30 45 H -0.579748 0.207249 0.712716 0
M  V30 46 H -0.755060 -0.787411 -0.733461 0
M  V30 47 H -5.129251 -1.796409 1.705494 0
M  V30 48 H -3.382957 1.103048 0.165814 0
M  V30 49 H -5.079495 2.100468 -1.348294 0
M  V30 50 H -7.204425 1.848546 -2.684270 0
M  V30 51 H 0.565022 -2.309468 3.306896 0
M  V30 52 H 0.622646 -4.039938 2.930743 0
M  V30 53 H -0.835575 -3.369958 3.710929 0
M  V30 54 H 0.191165 -4.871192 1.193313 0
M  V30 55 H 0.175560 -3.750611 -0.277542 0
M  V30 56 H -1.335491 -4.441848 0.326059 0
M  V30 57 H 5.640701 -1.779400 -0.474232 0
M  V30 58 H 6.633032 -1.430347 -2.720335 0
M  V30 59 H 5.807508 0.447433 -4.189368 0
M  V30 60 H 3.975872 1.897106 -3.267658 0
M  V30 61 H 3.068814 1.499873 -1.095774 0
M  V30 END ATOM
M  V30 BEGIN BOND
M  V30 1 1 1 2
M  V30 2 1 2 3
M  V30 3 1 2 4
M  V30 4 1 4 5
M  V30 5 1 5 6
M  V30 6 1 6 7
M  V30 7 2 7 8
M  V30 8 1 7 9
M  V30 9 1 9 10
M  V30 10 1 10 11
M  V30 11 1 11 12
M  V30 12 2 12 13
M  V30 13 1 13 14
M  V30 14 1 14 15
M  V30 15 1 15 16
M  V30 16 1 16 17
M  V30 17 2 17 18
M  V30 18 1 18 19
M  V30 19 2 19 20
M  V30 20 1 20 21
M  V30 21 1 21 22
M  V30 22 1 22 23
M  V30 23 1 22 24
M  V30 24 1 22 25
M  V30 25 2 21 26
M  V30 26 1 12 27
M  V30 27 1 27 28
M  V30 28 1 27 29
M  V30 29 1 5 30
M  V30 30 2 30 31
M  V30 31 1 31 32
M  V30 32 2 32 33
M  V30 33 1 33 34
M  V30 34 2 34 35
M  V30 35 1 27 9
M  V30 36 1 35 30
M  V30 37 2 15 11
M  V30 38 1 26 17
M  V30 39 1 1 36
M  V30 40 1 1 37
M  V30 41 1 1 38
M  V30 42 1 3 39
M  V30 43 1 3 40
M  V30 44 1 3 41
M  V30 45 1 4 42
M  V30 46 1 4 43
M  V30 47 1 5 44 CFG=1
M  V30 48 1 10 45
M  V30 49 1 10 46
M  V30 50 1 14 47
M  V30 51 1 16 48
M  V30 52 1 18 49
M  V30 53 1 19 50
M  V30 54 1 28 51
M  V30 55 1 28 52
M  V30 56 1 28 53
M  V30 57 1 29 54
M  V30 58 1 29 55
M  V30 59 1 29 56
M  V30 60 1 31 57
M  V30 61 1 32 58
M  V30 62 1 33 59
M  V30 63 1 34 60
M  V30 64 1 35 61
M  V30 END BOND
M  V30 END CTAB
M  END
>  <Dataset>  (984) 
ChEMBL_Kinases

>  <Ligand_Instance>  (984) 
nan

>  <PDB_ID>  (984) 
nan

>  <Standardized_SMILES>  (984) 
CN(C)C[C@@H](OC(=O)N1Cc2c(n[nH]c2Nc2ccnc(C(F)(F)F)n2)C1(C)C)c1ccccc1

>  <Name>  (984) 
nan

>  <Pocket>  (984) 
nan

>  <ATP_Site>  (984) 
nan

>  <Peripheral>  (984) 
nan

>  <Num_H_Atoms_ProtBoundConf>  (984) 
nan

>  <Num_Resolved_Atoms>  (984) 
nan

>  <Num_Not_Resolved_Atoms>  (984) 
nan

$$$$
CHEMBL3674599
     RDKit          3D

  0  0  0  0  0  0  0  0  0  0999 V3000
M  V30 BEGIN CTAB
M  V30 COUNTS 61 65 0 0 0
M  V30 BEGIN ATOM
M  V30 1 C 3.549182 -2.433445 3.746874 0
M  V30 2 N 2.385611 -1.627989 4.059444 0
M  V30 3 C 1.648808 -2.168235 5.187517 0
M  V30 4 C 1.536292 -1.434560 2.904891 0
M  V30 5 C 2.247262 -0.583184 1.918488 0 CFG=1
M  V30 6 O 1.483250 -0.365537 0.727359 0
M  V30 7 C 1.896382 -0.734789 -0.535528 0
M  V30 8 O 3.017388 -1.301679 -0.583080 0
M  V30 9 N 0.884371 -0.352102 -1.491248 0
M  V30 10 C -0.419754 0.330237 -1.414007 0
M  V30 11 C -1.279324 -0.670522 -2.058508 0
M  V30 12 C -0.509061 -1.246419 -3.043040 0
M  V30 13 N -1.230265 -2.195889 -3.692510 0
M  V30 14 N -2.450769 -2.230448 -3.131818 0
M  V30 15 C -2.489497 -1.316910 -2.149315 0
M  V30 16 N -3.588886 -1.001743 -1.303206 0
M  V30 17 C -4.897094 -1.532970 -1.148182 0
M  V30 18 N -5.886429 -1.186491 -1.963422 0
M  V30 19 C -7.145533 -1.567412 -1.961442 0
M  V30 20 N -7.470934 -2.438451 -0.982172 0
M  V30 21 C -6.572107 -2.852254 -0.115456 0
M  V30 22 S -6.659212 -3.982902 1.293661 0
M  V30 23 C -4.868478 -3.824594 1.778314 0
M  V30 24 C -4.370630 -2.926393 0.823468 0
M  V30 25 C -5.184900 -2.417545 -0.138272 0
M  V30 26 C 0.812755 -0.531773 -2.939113 0
M  V30 27 C 1.933218 -1.376757 -3.460816 0
M  V30 28 C 0.732809 0.749511 -3.697432 0
M  V30 29 C 2.503492 0.755855 2.495522 0
M  V30 30 C 2.997449 1.617177 1.516273 0
M  V30 31 C 3.321809 2.942127 1.755316 0
M  V30 32 C 3.155401 3.467990 3.032085 0
M  V30 33 C 2.661398 2.625513 4.031734 0
M  V30 34 C 2.354478 1.315593 3.741758 0
M  V30 35 H 4.371005 -1.713560 3.481816 0
M  V30 36 H 3.394784 -3.086370 2.882616 0
M  V30 37 H 3.866204 -2.957732 4.671848 0
M  V30 38 H 1.191529 -1.300435 5.716591 0
M  V30 39 H 2.278374 -2.690643 5.915720 0
M  V30 40 H 0.789395 -2.779572 4.830488 0
M  V30 41 H 0.531576 -1.049998 3.188957 0
M  V30 42 H 1.329954 -2.439330 2.446130 0
M  V30 43 H 3.225187 -1.069577 1.698676 0
M  V30 44 H -0.697309 0.420941 -0.321886 0
M  V30 45 H -0.416263 1.320361 -1.860934 0
M  V30 46 H -3.301603 -2.824167 -3.344715 0
M  V30 47 H -3.566792 -0.239712 -0.596943 0
M  V30 48 H -7.874818 -1.231276 -2.668518 0
M  V30 49 H -4.476646 -4.328628 2.571889 0
M  V30 50 H -3.323932 -2.701291 0.941734 0
M  V30 51 H 2.917741 -1.126701 -3.013726 0
M  V30 52 H 2.057570 -1.117401 -4.553999 0
M  V30 53 H 1.779764 -2.455437 -3.410690 0
M  V30 54 H 1.237414 1.602790 -3.229522 0
M  V30 55 H -0.332170 1.032294 -3.871207 0
M  V30 56 H 1.210598 0.586281 -4.699851 0
M  V30 57 H 3.189678 1.379568 0.468859 0
M  V30 58 H 3.699293 3.648318 1.057931 0
M  V30 59 H 3.349889 4.464914 3.404097 0
M  V30 60 H 2.476190 2.879992 5.064985 0
M  V30 61 H 1.967093 0.612746 4.460946 0
M  V30 END ATOM
M  V30 BEGIN BOND
M  V30 1 1 1 2
M  V30 2 1 2 3
M  V30 3 1 2 4
M  V30 4 1 4 5
M  V30 5 1 5 6
M  V30 6 1 6 7
M  V30 7 2 7 8
M  V30 8 1 7 9
M  V30 9 1 9 10
M  V30 10 1 10 11
M  V30 11 1 11 12
M  V30 12 2 12 13
M  V30 13 1 13 14
M  V30 14 1 14 15
M  V30 15 1 15 16
M  V30 16 1 16 17
M  V30 17 2 17 18
M  V30 18 1 18 19
M  V30 19 2 19 20
M  V30 20 1 20 21
M  V30 21 1 21 22
M  V30 22 1 22 23
M  V30 23 2 23 24
M  V30 24 1 24 25
M  V30 25 1 12 26
M  V30 26 1 26 27
M  V30 27 1 26 28
M  V30 28 1 5 29
M  V30 29 2 29 30
M  V30 30 1 30 31
M  V30 31 2 31 32
M  V30 32 1 32 33
M  V30 33 2 33 34
M  V30 34 1 26 9
M  V30 35 1 34 29
M  V30 36 2 15 11
M  V30 37 1 25 17
M  V30 38 2 25 21
M  V30 39 1 1 35
M  V30 40 1 1 36
M  V30 41 1 1 37
M  V30 42 1 3 38
M  V30 43 1 3 39
M  V30 44 1 3 40
M  V30 45 1 4 41
M  V30 46 1 4 42
M  V30 47 1 5 43 CFG=3
M  V30 48 1 10 44
M  V30 49 1 10 45
M  V30 50 1 14 46
M  V30 51 1 16 47
M  V30 52 1 19 48
M  V30 53 1 23 49
M  V30 54 1 24 50
M  V30 55 1 27 51
M  V30 56 1 27 52
M  V30 57 1 27 53
M  V30 58 1 28 54
M  V30 59 1 28 55
M  V30 60 1 28 56
M  V30 61 1 30 57
M  V30 62 1 31 58
M  V30 63 1 32 59
M  V30 64 1 33 60
M  V30 65 1 34 61
M  V30 END BOND
M  V30 END CTAB
M  END
>  <Dataset>  (985) 
ChEMBL_Kinases

>  <Ligand_Instance>  (985) 
nan

>  <PDB_ID>  (985) 
nan

>  <Standardized_SMILES>  (985) 
CN(C)C[C@@H](OC(=O)N1Cc2c(n[nH]c2Nc2ncnc3sccc23)C1(C)C)c1ccccc1

>  <Name>  (985) 
nan

>  <Pocket>  (985) 
nan

>  <ATP_Site>  (985) 
nan

>  <Peripheral>  (985) 
nan

>  <Num_H_Atoms_ProtBoundConf>  (985) 
nan

>  <Num_Resolved_Atoms>  (985) 
nan

>  <Num_Not_Resolved_Atoms>  (985) 
nan

$$$$
CHEMBL3674598
     RDKit          3D

  0  0  0  0  0  0  0  0  0  0999 V3000
M  V30 BEGIN CTAB
M  V30 COUNTS 65 69 0 0 0
M  V30 BEGIN ATOM
M  V30 1 C 0.769869 2.419506 5.333927 0
M  V30 2 N 1.559541 2.733165 4.165956 0
M  V30 3 C 2.930900 2.352538 4.355386 0
M  V30 4 C 0.949207 2.146120 3.018592 0
M  V30 5 C 1.775487 2.419464 1.724201 0 CFG=1
M  V30 6 O 1.014122 1.790951 0.735320 0
M  V30 7 C 1.350714 0.628187 0.060035 0
M  V30 8 O 2.374124 -0.029389 0.241008 0
M  V30 9 N 0.482404 0.083367 -0.945095 0
M  V30 10 C 0.800881 -1.186578 -1.626845 0
M  V30 11 C -0.489661 -1.904887 -1.323459 0
M  V30 12 C -1.480260 -0.916998 -1.347700 0
M  V30 13 N -2.688846 -1.481569 -1.083262 0
M  V30 14 N -2.497244 -2.795451 -0.890769 0
M  V30 15 C -1.180431 -3.084401 -1.027592 0
M  V30 16 N -0.547709 -4.349436 -0.891559 0
M  V30 17 C -1.396839 -5.419446 -0.479718 0
M  V30 18 N -1.647020 -5.317624 0.838169 0
M  V30 19 C -2.421330 -6.192515 1.523843 0
M  V30 20 C -2.657520 -6.026344 2.951941 0
M  V30 21 N -2.862882 -5.896193 4.094597 0
M  V30 22 N -2.954042 -7.207383 0.819430 0
M  V30 23 C -2.736890 -7.354370 -0.489062 0
M  V30 24 C -3.271814 -8.398246 -1.235270 0
M  V30 25 C -2.985479 -8.476809 -2.606943 0
M  V30 26 C -2.184830 -7.536557 -3.220579 0
M  V30 27 C -1.615216 -6.463339 -2.533446 0
M  V30 28 C -1.950146 -6.461690 -1.177251 0
M  V30 29 C -0.770183 0.355560 -1.644077 0
M  V30 30 C -0.629028 0.455193 -3.130570 0
M  V30 31 C -1.459380 1.547881 -1.033913 0
M  V30 32 C 1.840310 3.880093 1.532098 0
M  V30 33 C 0.568763 4.403902 1.342064 0
M  V30 34 C 0.335978 5.763539 1.143673 0
M  V30 35 C 1.451997 6.597932 1.142585 0
M  V30 36 C 2.727473 6.070510 1.332744 0
M  V30 37 C 2.934161 4.730532 1.526120 0
M  V30 38 H 0.414954 1.370858 5.341457 0
M  V30 39 H 1.387277 2.547909 6.243174 0
M  V30 40 H -0.118437 3.095576 5.372159 0
M  V30 41 H 3.611250 3.133062 3.940785 0
M  V30 42 H 3.220914 1.400943 3.893581 0
M  V30 43 H 3.193568 2.281395 5.453474 0
M  V30 44 H 0.931210 1.029069 3.060126 0
M  V30 45 H -0.097425 2.467056 2.860772 0
M  V30 46 H 2.750155 1.980759 1.943566 0
M  V30 47 H 1.653935 -1.708221 -1.162713 0
M  V30 48 H 0.864653 -1.044694 -2.697593 0
M  V30 49 H -3.248758 -3.479630 -0.671945 0
M  V30 50 H 0.446899 -4.487963 -1.072924 0
M  V30 51 H -3.881835 -9.093864 -0.711983 0
M  V30 52 H -3.438201 -9.316753 -3.110638 0
M  V30 53 H -1.989511 -7.639032 -4.280546 0
M  V30 54 H -0.993257 -5.719142 -2.968237 0
M  V30 55 H 0.355624 0.783130 -3.483395 0
M  V30 56 H -0.855578 -0.521434 -3.629102 0
M  V30 57 H -1.443060 1.156695 -3.487518 0
M  V30 58 H -0.723151 2.402289 -1.070142 0
M  V30 59 H -1.774601 1.387145 -0.000555 0
M  V30 60 H -2.286885 1.867115 -1.691079 0
M  V30 61 H -0.373813 3.855381 1.323526 0
M  V30 62 H -0.631204 6.214059 0.992069 0
M  V30 63 H 1.410799 7.659889 1.002539 0
M  V30 64 H 3.633026 6.684304 1.339096 0
M  V30 65 H 3.861208 4.207076 1.682255 0
M  V30 END ATOM
M  V30 BEGIN BOND
M  V30 1 1 1 2
M  V30 2 1 2 3
M  V30 3 1 2 4
M  V30 4 1 4 5
M  V30 5 1 5 6
M  V30 6 1 6 7
M  V30 7 2 7 8
M  V30 8 1 7 9
M  V30 9 1 9 10
M  V30 10 1 10 11
M  V30 11 1 11 12
M  V30 12 2 12 13
M  V30 13 1 13 14
M  V30 14 1 14 15
M  V30 15 1 15 16
M  V30 16 1 16 17
M  V30 17 2 17 18
M  V30 18 1 18 19
M  V30 19 1 19 20
M  V30 20 3 20 21
M  V30 21 2 19 22
M  V30 22 1 22 23
M  V30 23 2 23 24
M  V30 24 1 24 25
M  V30 25 2 25 26
M  V30 26 1 26 27
M  V30 27 2 27 28
M  V30 28 1 12 29
M  V30 29 1 29 30
M  V30 30 1 29 31
M  V30 31 1 5 32
M  V30 32 2 32 33
M  V30 33 1 33 34
M  V30 34 2 34 35
M  V30 35 1 35 36
M  V30 36 2 36 37
M  V30 37 1 29 9
M  V30 38 1 37 32
M  V30 39 2 15 11
M  V30 40 1 28 17
M  V30 41 1 28 23
M  V30 42 1 1 38
M  V30 43 1 1 39
M  V30 44 1 1 40
M  V30 45 1 3 41
M  V30 46 1 3 42
M  V30 47 1 3 43
M  V30 48 1 4 44
M  V30 49 1 4 45
M  V30 50 1 5 46 CFG=1
M  V30 51 1 10 47
M  V30 52 1 10 48
M  V30 53 1 14 49
M  V30 54 1 16 50
M  V30 55 1 24 51
M  V30 56 1 25 52
M  V30 57 1 26 53
M  V30 58 1 27 54
M  V30 59 1 30 55
M  V30 60 1 30 56
M  V30 61 1 30 57
M  V30 62 1 31 58
M  V30 63 1 31 59
M  V30 64 1 31 60
M  V30 65 1 33 61
M  V30 66 1 34 62
M  V30 67 1 35 63
M  V30 68 1 36 64
M  V30 69 1 37 65
M  V30 END BOND
M  V30 END CTAB
M  END
>  <Dataset>  (986) 
ChEMBL_Kinases

>  <Ligand_Instance>  (986) 
nan

>  <PDB_ID>  (986) 
nan

>  <Standardized_SMILES>  (986) 
CN(C)C[C@@H](OC(=O)N1Cc2c(n[nH]c2Nc2nc(C#N)nc3ccccc23)C1(C)C)c1ccccc1

>  <Name>  (986) 
nan

>  <Pocket>  (986) 
nan

>  <ATP_Site>  (986) 
nan

>  <Peripheral>  (986) 
nan

>  <Num_H_Atoms_ProtBoundConf>  (986) 
nan

>  <Num_Resolved_Atoms>  (986) 
nan

>  <Num_Not_Resolved_Atoms>  (986) 
nan

$$$$
CHEMBL3674597
     RDKit          3D

  0  0  0  0  0  0  0  0  0  0999 V3000
M  V30 BEGIN CTAB
M  V30 COUNTS 64 68 0 0 0
M  V30 BEGIN ATOM
M  V30 1 C 1.497917 2.102685 6.450421 0
M  V30 2 C 1.782486 2.551942 5.057729 0
M  V30 3 N 2.717734 1.845135 4.389779 0
M  V30 4 C 2.980905 2.235889 3.144825 0
M  V30 5 N 3.923404 1.639751 2.299972 0
M  V30 6 C 3.714372 0.488057 1.494794 0
M  V30 7 N 4.636712 -0.090924 0.702241 0
M  V30 8 N 4.107124 -1.149177 0.109229 0
M  V30 9 C 2.831597 -1.301041 0.487359 0
M  V30 10 C 2.569087 -0.262046 1.370647 0
M  V30 11 C 1.150757 -0.358832 1.834347 0
M  V30 12 N 0.598937 -1.205138 0.795029 0
M  V30 13 C -0.725924 -1.093539 0.314874 0
M  V30 14 O -1.361380 -0.145917 0.893586 0
M  V30 15 O -1.470322 -1.761275 -0.613765 0
M  V30 16 C -2.800558 -1.485424 -0.947418 0 CFG=2
M  V30 17 C -3.609298 -2.697105 -0.523460 0
M  V30 18 N -3.165678 -3.888398 -1.201492 0
M  V30 19 C -3.991850 -5.021366 -0.752070 0
M  V30 20 C -1.792446 -4.250640 -0.924515 0
M  V30 21 C -2.986087 -1.184711 -2.381151 0
M  V30 22 C -4.005995 -1.686987 -3.165121 0
M  V30 23 C -4.180219 -1.409013 -4.504225 0
M  V30 24 C -3.244853 -0.556328 -5.082176 0
M  V30 25 C -2.198108 -0.016769 -4.356762 0
M  V30 26 C -2.096310 -0.352366 -3.001978 0
M  V30 27 C 1.600298 -2.147072 0.337481 0
M  V30 28 C 1.441543 -2.597976 -1.068169 0
M  V30 29 C 1.746576 -3.296321 1.316194 0
M  V30 30 C 2.281153 3.335322 2.619265 0
M  V30 31 S 2.325289 4.200396 0.976408 0
M  V30 32 C 0.980616 5.495939 1.435348 0
M  V30 33 C 0.674375 5.111230 2.759565 0
M  V30 34 C 1.300844 4.063735 3.341845 0
M  V30 35 N 1.099743 3.603696 4.583546 0
M  V30 36 H 2.427689 2.184991 7.087467 0
M  V30 37 H 1.316853 0.991007 6.384444 0
M  V30 38 H 0.637964 2.631859 6.872912 0
M  V30 39 H 4.852482 2.118230 2.291058 0
M  V30 40 H 5.635261 0.205983 0.539664 0
M  V30 41 H 0.669919 0.623429 1.903401 0
M  V30 42 H 1.154415 -0.933944 2.776785 0
M  V30 43 H -3.219247 -0.626281 -0.358075 0
M  V30 44 H -4.684914 -2.593255 -0.685367 0
M  V30 45 H -3.464356 -2.830981 0.572777 0
M  V30 46 H -3.594993 -5.484745 0.169891 0
M  V30 47 H -3.938456 -5.747062 -1.608751 0
M  V30 48 H -5.043506 -4.713662 -0.682598 0
M  V30 49 H -1.713614 -5.355122 -1.008619 0
M  V30 50 H -1.508805 -3.976034 0.113040 0
M  V30 51 H -1.093421 -3.857908 -1.695788 0
M  V30 52 H -4.727257 -2.348169 -2.706559 0
M  V30 53 H -4.999616 -1.834666 -5.063925 0
M  V30 54 H -3.380466 -0.332346 -6.148187 0
M  V30 55 H -1.487515 0.637387 -4.818506 0
M  V30 56 H -1.251319 0.095534 -2.454571 0
M  V30 57 H 2.426088 -2.517309 -1.574633 0
M  V30 58 H 1.206847 -3.677156 -1.044903 0
M  V30 59 H 0.635005 -2.081107 -1.617518 0
M  V30 60 H 0.827177 -3.923548 1.370292 0
M  V30 61 H 2.575530 -3.973368 1.034449 0
M  V30 62 H 2.009197 -2.922358 2.329864 0
M  V30 63 H 0.691438 6.198983 0.771926 0
M  V30 64 H -0.080354 5.740825 3.191561 0
M  V30 END ATOM
M  V30 BEGIN BOND
M  V30 1 1 1 2
M  V30 2 2 2 3
M  V30 3 1 3 4
M  V30 4 1 4 5
M  V30 5 1 5 6
M  V30 6 1 6 7
M  V30 7 1 7 8
M  V30 8 2 8 9
M  V30 9 1 9 10
M  V30 10 1 10 11
M  V30 11 1 11 12
M  V30 12 1 12 13
M  V30 13 2 13 14
M  V30 14 1 13 15
M  V30 15 1 15 16
M  V30 16 1 16 17
M  V30 17 1 17 18
M  V30 18 1 18 19
M  V30 19 1 18 20
M  V30 20 1 16 21
M  V30 21 2 21 22
M  V30 22 1 22 23
M  V30 23 2 23 24
M  V30 24 1 24 25
M  V30 25 2 25 26
M  V30 26 1 12 27
M  V30 27 1 27 28
M  V30 28 1 27 29
M  V30 29 2 4 30
M  V30 30 1 30 31
M  V30 31 1 31 32
M  V30 32 2 32 33
M  V30 33 1 33 34
M  V30 34 2 34 35
M  V30 35 1 35 2
M  V30 36 2 10 6
M  V30 37 1 26 21
M  V30 38 1 34 30
M  V30 39 1 27 9
M  V30 40 1 1 36
M  V30 41 1 1 37
M  V30 42 1 1 38
M  V30 43 1 5 39
M  V30 44 1 7 40
M  V30 45 1 11 41
M  V30 46 1 11 42
M  V30 47 1 16 43 CFG=1
M  V30 48 1 17 44
M  V30 49 1 17 45
M  V30 50 1 19 46
M  V30 51 1 19 47
M  V30 52 1 19 48
M  V30 53 1 20 49
M  V30 54 1 20 50
M  V30 55 1 20 51
M  V30 56 1 22 52
M  V30 57 1 23 53
M  V30 58 1 24 54
M  V30 59 1 25 55
M  V30 60 1 26 56
M  V30 61 1 28 57
M  V30 62 1 28 58
M  V30 63 1 28 59
M  V30 64 1 29 60
M  V30 65 1 29 61
M  V30 66 1 29 62
M  V30 67 1 32 63
M  V30 68 1 33 64
M  V30 END BOND
M  V30 END CTAB
M  END
>  <Dataset>  (987) 
ChEMBL_Kinases

>  <Ligand_Instance>  (987) 
nan

>  <PDB_ID>  (987) 
nan

>  <Standardized_SMILES>  (987) 
Cc1nc(Nc2[nH]nc3c2CN(C(=O)O[C@H](CN(C)C)c2ccccc2)C3(C)C)c2sccc2n1

>  <Name>  (987) 
nan

>  <Pocket>  (987) 
nan

>  <ATP_Site>  (987) 
nan

>  <Peripheral>  (987) 
nan

>  <Num_H_Atoms_ProtBoundConf>  (987) 
nan

>  <Num_Resolved_Atoms>  (987) 
nan

>  <Num_Not_Resolved_Atoms>  (987) 
nan

$$$$
CHEMBL3674596
     RDKit          3D

  0  0  0  0  0  0  0  0  0  0999 V3000
M  V30 BEGIN CTAB
M  V30 COUNTS 65 68 0 0 0
M  V30 BEGIN ATOM
M  V30 1 C 2.526802 -0.879866 6.267369 0
M  V30 2 C 3.904458 -1.385091 5.903089 0
M  V30 3 O 4.848131 -0.392263 5.681166 0
M  V30 4 C 4.783836 0.600691 4.720806 0
M  V30 5 N 5.714295 1.537852 4.539053 0
M  V30 6 C 5.645982 2.495810 3.606344 0
M  V30 7 C 4.508743 2.423699 2.839485 0
M  V30 8 F 4.468483 3.362900 1.896303 0
M  V30 9 C 3.489212 1.510374 2.936085 0
M  V30 10 N 2.298371 1.423978 2.217147 0
M  V30 11 C 1.461734 2.102384 1.330463 0
M  V30 12 N 1.679028 3.369549 0.962459 0
M  V30 13 N 0.741251 3.760450 0.112455 0
M  V30 14 C -0.120952 2.747668 -0.096993 0
M  V30 15 C 0.328275 1.702426 0.667120 0
M  V30 16 C -0.575704 0.539810 0.497034 0
M  V30 17 N -1.329506 0.862111 -0.691177 0
M  V30 18 C -1.961414 -0.031588 -1.600274 0
M  V30 19 O -2.595134 0.404982 -2.623184 0
M  V30 20 O -2.133364 -1.283197 -1.760249 0
M  V30 21 C -2.371808 -2.535397 -2.022392 0 CFG=2
M  V30 22 C -3.137767 -3.359459 -1.005666 0
M  V30 23 N -4.439888 -2.763131 -0.803651 0
M  V30 24 C -5.242223 -2.917252 -1.981450 0
M  V30 25 C -5.133451 -3.219787 0.351135 0
M  V30 26 C -1.080642 -3.254974 -2.365958 0
M  V30 27 C -0.988342 -4.081526 -3.493140 0
M  V30 28 C 0.193038 -4.732300 -3.782205 0
M  V30 29 C 1.302175 -4.590511 -2.981043 0
M  V30 30 C 1.237571 -3.776545 -1.857616 0
M  V30 31 C 0.052944 -3.130287 -1.576980 0
M  V30 32 C -1.360383 2.304078 -0.814592 0
M  V30 33 C -1.272535 2.809031 -2.217473 0
M  V30 34 C -2.558290 2.872124 -0.068860 0
M  V30 35 N 3.720522 0.618742 3.925606 0
M  V30 36 H 2.575990 -0.490602 7.322945 0
M  V30 37 H 1.794937 -1.710285 6.321285 0
M  V30 38 H 2.161457 -0.107871 5.564339 0
M  V30 39 H 4.235148 -2.153781 6.620121 0
M  V30 40 H 3.764832 -1.927902 4.926234 0
M  V30 41 H 6.414048 3.227576 3.496894 0
M  V30 42 H 1.844036 0.491327 2.391735 0
M  V30 43 H 2.279467 4.201950 1.066168 0
M  V30 44 H -0.029877 -0.414328 0.415718 0
M  V30 45 H -1.266220 0.542530 1.381006 0
M  V30 46 H -3.002572 -2.632455 -2.962765 0
M  V30 47 H -2.590360 -3.540339 -0.075723 0
M  V30 48 H -3.308544 -4.348647 -1.486038 0
M  V30 49 H -5.024758 -3.879921 -2.512137 0
M  V30 50 H -6.334596 -2.921036 -1.797360 0
M  V30 51 H -5.040873 -2.042743 -2.636908 0
M  V30 52 H -5.951335 -2.473983 0.562203 0
M  V30 53 H -4.469660 -3.283882 1.251160 0
M  V30 54 H -5.632979 -4.200960 0.239323 0
M  V30 55 H -1.865402 -4.198101 -4.132627 0
M  V30 56 H 0.166425 -5.348233 -4.673620 0
M  V30 57 H 2.210063 -5.103428 -3.221739 0
M  V30 58 H 2.112668 -3.670356 -1.233110 0
M  V30 59 H 0.041703 -2.517670 -0.708211 0
M  V30 60 H -2.325127 3.076142 -2.524960 0
M  V30 61 H -0.661497 3.746344 -2.308385 0
M  V30 62 H -0.839542 2.059614 -2.880734 0
M  V30 63 H -2.250042 3.053786 0.992071 0
M  V30 64 H -3.332445 2.056108 -0.001849 0
M  V30 65 H -2.959458 3.787854 -0.500467 0
M  V30 END ATOM
M  V30 BEGIN BOND
M  V30 1 1 1 2
M  V30 2 1 2 3
M  V30 3 1 3 4
M  V30 4 2 4 5
M  V30 5 1 5 6
M  V30 6 2 6 7
M  V30 7 1 7 8
M  V30 8 1 7 9
M  V30 9 1 9 10
M  V30 10 1 10 11
M  V30 11 1 11 12
M  V30 12 1 12 13
M  V30 13 2 13 14
M  V30 14 1 14 15
M  V30 15 1 15 16
M  V30 16 1 16 17
M  V30 17 1 17 18
M  V30 18 2 18 19
M  V30 19 1 18 20
M  V30 20 1 20 21
M  V30 21 1 21 22
M  V30 22 1 22 23
M  V30 23 1 23 24
M  V30 24 1 23 25
M  V30 25 1 21 26
M  V30 26 2 26 27
M  V30 27 1 27 28
M  V30 28 2 28 29
M  V30 29 1 29 30
M  V30 30 2 30 31
M  V30 31 1 17 32
M  V30 32 1 32 33
M  V30 33 1 32 34
M  V30 34 2 9 35
M  V30 35 1 35 4
M  V30 36 2 15 11
M  V30 37 1 31 26
M  V30 38 1 32 14
M  V30 39 1 1 36
M  V30 40 1 1 37
M  V30 41 1 1 38
M  V30 42 1 2 39
M  V30 43 1 2 40
M  V30 44 1 6 41
M  V30 45 1 10 42
M  V30 46 1 12 43
M  V30 47 1 16 44
M  V30 48 1 16 45
M  V30 49 1 21 46 CFG=3
M  V30 50 1 22 47
M  V30 51 1 22 48
M  V30 52 1 24 49
M  V30 53 1 24 50
M  V30 54 1 24 51
M  V30 55 1 25 52
M  V30 56 1 25 53
M  V30 57 1 25 54
M  V30 58 1 27 55
M  V30 59 1 28 56
M  V30 60 1 29 57
M  V30 61 1 30 58
M  V30 62 1 31 59
M  V30 63 1 33 60
M  V30 64 1 33 61
M  V30 65 1 33 62
M  V30 66 1 34 63
M  V30 67 1 34 64
M  V30 68 1 34 65
M  V30 END BOND
M  V30 END CTAB
M  END
>  <Dataset>  (988) 
ChEMBL_Kinases

>  <Ligand_Instance>  (988) 
nan

>  <PDB_ID>  (988) 
nan

>  <Standardized_SMILES>  (988) 
CCOc1ncc(F)c(Nc2[nH]nc3c2CN(C(=O)O[C@H](CN(C)C)c2ccccc2)C3(C)C)n1

>  <Name>  (988) 
nan

>  <Pocket>  (988) 
nan

>  <ATP_Site>  (988) 
nan

>  <Peripheral>  (988) 
nan

>  <Num_H_Atoms_ProtBoundConf>  (988) 
nan

>  <Num_Resolved_Atoms>  (988) 
nan

>  <Num_Not_Resolved_Atoms>  (988) 
nan

$$$$
CHEMBL3674595
     RDKit          3D

  0  0  0  0  0  0  0  0  0  0999 V3000
M  V30 BEGIN CTAB
M  V30 COUNTS 64 68 0 0 0
M  V30 BEGIN ATOM
M  V30 1 C 2.858226 -3.439340 -0.431612 0
M  V30 2 C 3.431865 -2.165328 -0.862788 0
M  V30 3 C 3.554096 -0.951257 -0.200699 0
M  V30 4 C 4.142325 0.097425 -0.847968 0
M  V30 5 C 4.377930 1.376250 -0.417266 0
M  V30 6 N 4.024458 1.870032 0.861231 0
M  V30 7 C 3.377780 1.287572 1.978167 0
M  V30 8 N 3.817949 0.599580 3.061289 0
M  V30 9 N 2.843061 0.247062 3.856726 0
M  V30 10 C 1.671422 0.662726 3.384087 0
M  V30 11 C 1.996206 1.313390 2.211248 0
M  V30 12 C 0.712472 1.810636 1.624681 0
M  V30 13 N -0.227541 0.816575 2.097684 0
M  V30 14 C -1.148650 0.259402 1.179449 0
M  V30 15 O -0.814304 0.873855 0.138873 0
M  V30 16 O -2.183532 -0.655628 1.109875 0
M  V30 17 C -2.836315 -0.870383 -0.148352 0 CFG=2
M  V30 18 C -4.275143 -0.548625 0.060986 0
M  V30 19 N -5.133858 -0.662990 -1.062189 0
M  V30 20 C -5.401287 -1.960546 -1.572407 0
M  V30 21 C -4.844878 0.302717 -2.106891 0
M  V30 22 C -2.587066 -2.278214 -0.510221 0
M  V30 23 C -2.226055 -2.786579 -1.745080 0
M  V30 24 C -2.004360 -4.124379 -1.966241 0
M  V30 25 C -2.137964 -5.022746 -0.939969 0
M  V30 26 C -2.498275 -4.544628 0.307748 0
M  V30 27 C -2.716576 -3.205196 0.514143 0
M  V30 28 C 0.183644 0.764453 3.507112 0
M  V30 29 C -0.389536 -0.422968 4.232660 0
M  V30 30 C -0.107433 2.084607 4.129178 0
M  V30 31 N 4.974312 2.246793 -1.224274 0
M  V30 32 C 5.392930 2.033188 -2.451904 0
M  V30 33 N 5.191925 0.800730 -2.932606 0
M  V30 34 C 4.580017 -0.144393 -2.146166 0
M  V30 35 S 4.142817 -1.900217 -2.445889 0
M  V30 36 H 1.904025 -3.599198 -0.969570 0
M  V30 37 H 3.580448 -4.279420 -0.600959 0
M  V30 38 H 2.638754 -3.385720 0.649919 0
M  V30 39 H 3.166515 -0.916562 0.805615 0
M  V30 40 H 4.205238 2.817414 1.194893 0
M  V30 41 H 4.857177 0.408885 3.177394 0
M  V30 42 H 0.446336 2.794699 2.108126 0
M  V30 43 H 0.766718 1.938414 0.548501 0
M  V30 44 H -2.355513 -0.213565 -0.900056 0
M  V30 45 H -4.654095 -1.280581 0.829441 0
M  V30 46 H -4.418993 0.481170 0.493630 0
M  V30 47 H -4.886273 -2.078819 -2.568125 0
M  V30 48 H -5.173046 -2.771308 -0.882090 0
M  V30 49 H -6.519764 -2.017641 -1.760540 0
M  V30 50 H -5.765371 0.887592 -2.293997 0
M  V30 51 H -4.018063 0.987013 -1.827035 0
M  V30 52 H -4.609541 -0.242873 -3.033228 0
M  V30 53 H -2.137339 -2.012087 -2.518283 0
M  V30 54 H -1.728429 -4.327379 -3.009978 0
M  V30 55 H -1.936073 -6.045380 -1.245950 0
M  V30 56 H -2.578214 -5.329691 1.057161 0
M  V30 57 H -2.989055 -2.998345 1.535533 0
M  V30 58 H 0.397109 -0.899043 4.879040 0
M  V30 59 H -1.207499 -0.129749 4.927247 0
M  V30 60 H -0.727413 -1.201614 3.517962 0
M  V30 61 H -0.930252 2.610992 3.600211 0
M  V30 62 H -0.494407 1.949594 5.174809 0
M  V30 63 H 0.762008 2.785823 4.121928 0
M  V30 64 H 5.874821 2.718421 -3.120498 0
M  V30 END ATOM
M  V30 BEGIN BOND
M  V30 1 1 1 2
M  V30 2 2 2 3
M  V30 3 1 3 4
M  V30 4 2 4 5
M  V30 5 1 5 6
M  V30 6 1 6 7
M  V30 7 1 7 8
M  V30 8 1 8 9
M  V30 9 2 9 10
M  V30 10 1 10 11
M  V30 11 1 11 12
M  V30 12 1 12 13
M  V30 13 1 13 14
M  V30 14 2 14 15
M  V30 15 1 14 16
M  V30 16 1 16 17
M  V30 17 1 17 18
M  V30 18 1 18 19
M  V30 19 1 19 20
M  V30 20 1 19 21
M  V30 21 1 17 22
M  V30 22 2 22 23
M  V30 23 1 23 24
M  V30 24 2 24 25
M  V30 25 1 25 26
M  V30 26 2 26 27
M  V30 27 1 13 28
M  V30 28 1 28 29
M  V30 29 1 28 30
M  V30 30 1 5 31
M  V30 31 2 31 32
M  V30 32 1 32 33
M  V30 33 2 33 34
M  V30 34 1 34 35
M  V30 35 1 35 2
M  V30 36 1 34 4
M  V30 37 2 11 7
M  V30 38 1 27 22
M  V30 39 1 28 10
M  V30 40 1 1 36
M  V30 41 1 1 37
M  V30 42 1 1 38
M  V30 43 1 3 39
M  V30 44 1 6 40
M  V30 45 1 8 41
M  V30 46 1 12 42
M  V30 47 1 12 43
M  V30 48 1 17 44 CFG=3
M  V30 49 1 18 45
M  V30 50 1 18 46
M  V30 51 1 20 47
M  V30 52 1 20 48
M  V30 53 1 20 49
M  V30 54 1 21 50
M  V30 55 1 21 51
M  V30 56 1 21 52
M  V30 57 1 23 53
M  V30 58 1 24 54
M  V30 59 1 25 55
M  V30 60 1 26 56
M  V30 61 1 27 57
M  V30 62 1 29 58
M  V30 63 1 29 59
M  V30 64 1 29 60
M  V30 65 1 30 61
M  V30 66 1 30 62
M  V30 67 1 30 63
M  V30 68 1 32 64
M  V30 END BOND
M  V30 END CTAB
M  END
>  <Dataset>  (989) 
ChEMBL_Kinases

>  <Ligand_Instance>  (989) 
nan

>  <PDB_ID>  (989) 
nan

>  <Standardized_SMILES>  (989) 
Cc1cc2c(Nc3[nH]nc4c3CN(C(=O)O[C@H](CN(C)C)c3ccccc3)C4(C)C)ncnc2s1

>  <Name>  (989) 
nan

>  <Pocket>  (989) 
nan

>  <ATP_Site>  (989) 
nan

>  <Peripheral>  (989) 
nan

>  <Num_H_Atoms_ProtBoundConf>  (989) 
nan

>  <Num_Resolved_Atoms>  (989) 
nan

>  <Num_Not_Resolved_Atoms>  (989) 
nan

$$$$
CHEMBL3674594
     RDKit          3D

  0  0  0  0  0  0  0  0  0  0999 V3000
M  V30 BEGIN CTAB
M  V30 COUNTS 59 62 0 0 0
M  V30 BEGIN ATOM
M  V30 1 C 6.143037 -1.391775 1.085860 0
M  V30 2 N 4.830280 -2.038128 1.094209 0
M  V30 3 C 4.432868 -2.037361 2.511997 0
M  V30 4 C 3.900771 -1.203776 0.336819 0
M  V30 5 C 2.514017 -1.804592 0.297450 0 CFG=1
M  V30 6 O 1.629911 -0.945538 -0.441343 0
M  V30 7 C 0.627099 -0.241470 0.207366 0
M  V30 8 O 0.329437 -0.203651 1.429518 0
M  V30 9 N -0.369706 0.637101 -0.225294 0
M  V30 10 C -1.282726 1.277194 0.709429 0
M  V30 11 C -2.515569 1.328580 -0.102909 0
M  V30 12 C -2.225181 1.195430 -1.443868 0
M  V30 13 N -3.406291 1.238363 -2.075896 0
M  V30 14 N -4.413228 1.388612 -1.244385 0
M  V30 15 C -3.886132 1.448169 -0.007226 0
M  V30 16 N -4.579154 1.630531 1.211667 0
M  V30 17 C -5.075936 0.939616 2.337483 0
M  V30 18 C -4.106365 0.966484 3.344769 0
M  V30 19 C -4.345058 0.354001 4.570096 0
M  V30 20 N -5.532790 -0.269723 4.773429 0
M  V30 21 C -6.469797 -0.287013 3.777343 0
M  V30 22 C -7.731949 -0.936330 3.965587 0
M  V30 23 N -8.766112 -1.453512 4.112595 0
M  V30 24 N -6.245728 0.302676 2.591360 0
M  V30 25 C -0.726531 1.076875 -1.545044 0
M  V30 26 C -0.334835 0.138630 -2.647188 0
M  V30 27 C -0.216943 2.459998 -1.830252 0
M  V30 28 C 2.443661 -3.173941 -0.208522 0
M  V30 29 C 2.533783 -3.303542 -1.586152 0
M  V30 30 C 2.489312 -4.496008 -2.317542 0
M  V30 31 C 2.337564 -5.647904 -1.530838 0
M  V30 32 C 2.243418 -5.571593 -0.158116 0
M  V30 33 C 2.294372 -4.365885 0.496076 0
M  V30 34 H 5.988983 -0.298084 1.290784 0
M  V30 35 H 6.585108 -1.594978 0.098070 0
M  V30 36 H 6.780213 -1.853641 1.894733 0
M  V30 37 H 3.921958 -1.080981 2.757800 0
M  V30 38 H 3.818070 -2.925591 2.770165 0
M  V30 39 H 5.330133 -2.087458 3.184129 0
M  V30 40 H 3.808890 -0.257014 0.902696 0
M  V30 41 H 4.324540 -0.962166 -0.640695 0
M  V30 42 H 2.156067 -1.779696 1.340722 0
M  V30 43 H -1.413406 0.668751 1.629471 0
M  V30 44 H -0.908270 2.299701 0.914935 0
M  V30 45 H -5.411716 1.446101 -1.532489 0
M  V30 46 H -4.858437 2.619842 1.401946 0
M  V30 47 H -3.114636 1.423584 3.333313 0
M  V30 48 H -3.650422 0.331156 5.401939 0
M  V30 49 H 0.767492 0.105943 -2.709620 0
M  V30 50 H -0.698975 0.633624 -3.595121 0
M  V30 51 H -0.796497 -0.850043 -2.577402 0
M  V30 52 H -0.752524 3.166301 -1.136423 0
M  V30 53 H -0.470946 2.719644 -2.870430 0
M  V30 54 H 0.877259 2.523952 -1.624810 0
M  V30 55 H 2.651903 -2.441693 -2.231038 0
M  V30 56 H 2.567258 -4.522075 -3.393832 0
M  V30 57 H 2.297396 -6.598819 -2.068423 0
M  V30 58 H 2.125429 -6.480560 0.415861 0
M  V30 59 H 2.224504 -4.231254 1.564788 0
M  V30 END ATOM
M  V30 BEGIN BOND
M  V30 1 1 1 2
M  V30 2 1 2 3
M  V30 3 1 2 4
M  V30 4 1 4 5
M  V30 5 1 5 6
M  V30 6 1 6 7
M  V30 7 2 7 8
M  V30 8 1 7 9
M  V30 9 1 9 10
M  V30 10 1 10 11
M  V30 11 1 11 12
M  V30 12 2 12 13
M  V30 13 1 13 14
M  V30 14 1 14 15
M  V30 15 1 15 16
M  V30 16 1 16 17
M  V30 17 2 17 18
M  V30 18 1 18 19
M  V30 19 2 19 20
M  V30 20 1 20 21
M  V30 21 1 21 22
M  V30 22 3 22 23
M  V30 23 2 21 24
M  V30 24 1 12 25
M  V30 25 1 25 26
M  V30 26 1 25 27
M  V30 27 1 5 28
M  V30 28 2 28 29
M  V30 29 1 29 30
M  V30 30 2 30 31
M  V30 31 1 31 32
M  V30 32 2 32 33
M  V30 33 1 25 9
M  V30 34 1 33 28
M  V30 35 2 15 11
M  V30 36 1 24 17
M  V30 37 1 1 34
M  V30 38 1 1 35
M  V30 39 1 1 36
M  V30 40 1 3 37
M  V30 41 1 3 38
M  V30 42 1 3 39
M  V30 43 1 4 40
M  V30 44 1 4 41
M  V30 45 1 5 42 CFG=1
M  V30 46 1 10 43
M  V30 47 1 10 44
M  V30 48 1 14 45
M  V30 49 1 16 46
M  V30 50 1 18 47
M  V30 51 1 19 48
M  V30 52 1 26 49
M  V30 53 1 26 50
M  V30 54 1 26 51
M  V30 55 1 27 52
M  V30 56 1 27 53
M  V30 57 1 27 54
M  V30 58 1 29 55
M  V30 59 1 30 56
M  V30 60 1 31 57
M  V30 61 1 32 58
M  V30 62 1 33 59
M  V30 END BOND
M  V30 END CTAB
M  END
>  <Dataset>  (990) 
ChEMBL_Kinases

>  <Ligand_Instance>  (990) 
nan

>  <PDB_ID>  (990) 
nan

>  <Standardized_SMILES>  (990) 
CN(C)C[C@@H](OC(=O)N1Cc2c(n[nH]c2Nc2ccnc(C#N)n2)C1(C)C)c1ccccc1

>  <Name>  (990) 
nan

>  <Pocket>  (990) 
nan

>  <ATP_Site>  (990) 
nan

>  <Peripheral>  (990) 
nan

>  <Num_H_Atoms_ProtBoundConf>  (990) 
nan

>  <Num_Resolved_Atoms>  (990) 
nan

>  <Num_Not_Resolved_Atoms>  (990) 
nan

$$$$
CHEMBL3674593
     RDKit          3D

  0  0  0  0  0  0  0  0  0  0999 V3000
M  V30 BEGIN CTAB
M  V30 COUNTS 64 68 0 0 0
M  V30 BEGIN ATOM
M  V30 1 C 1.698625 1.858135 5.934409 0
M  V30 2 C 1.743996 2.355957 4.538114 0
M  V30 3 N 2.654684 2.059544 3.599641 0
M  V30 4 C 2.658814 2.526252 2.346059 0
M  V30 5 N 3.776345 1.995537 1.654105 0
M  V30 6 C 3.764814 0.661043 1.162891 0
M  V30 7 N 4.697776 -0.072069 0.488345 0
M  V30 8 N 4.245461 -1.297382 0.249803 0
M  V30 9 C 3.008756 -1.456079 0.738807 0
M  V30 10 C 2.720894 -0.230200 1.303413 0
M  V30 11 C 1.333776 -0.328451 1.865186 0
M  V30 12 N 0.776982 -1.322247 0.966851 0
M  V30 13 C -0.486753 -1.125931 0.338422 0
M  V30 14 O -0.769461 0.022404 0.773827 0
M  V30 15 O -1.306780 -1.847286 -0.512069 0
M  V30 16 C -2.506608 -1.283456 -0.934928 0 CFG=2
M  V30 17 C -3.673219 -2.043082 -0.359242 0
M  V30 18 N -3.669721 -3.415031 -0.787827 0
M  V30 19 C -4.846676 -4.121676 -0.265222 0
M  V30 20 C -2.519275 -4.076869 -0.198374 0
M  V30 21 C -2.615695 -1.141489 -2.390552 0
M  V30 22 C -3.758092 -1.556067 -3.046799 0
M  V30 23 C -3.944956 -1.459855 -4.407034 0
M  V30 24 C -2.910310 -0.906593 -5.171685 0
M  V30 25 C -1.722406 -0.463779 -4.578706 0
M  V30 26 C -1.653453 -0.612892 -3.211031 0
M  V30 27 C 1.807528 -2.342038 0.960648 0
M  V30 28 C 1.649300 -3.310306 -0.183616 0
M  V30 29 C 1.985317 -3.001120 2.302383 0
M  V30 30 C 1.669658 3.385571 1.931246 0
M  V30 31 C 1.587275 3.920413 0.674976 0
M  V30 32 C 0.525300 4.768824 0.444355 0
M  V30 33 S -0.386801 4.798820 2.087345 0
M  V30 34 C 0.727840 3.691457 2.903384 0
M  V30 35 N 0.780248 3.194667 4.128522 0
M  V30 36 H 2.692912 1.456646 6.196372 0
M  V30 37 H 1.002717 0.969249 6.000468 0
M  V30 38 H 1.394893 2.646670 6.655418 0
M  V30 39 H 4.606961 2.608725 1.515033 0
M  V30 40 H 5.631212 0.332760 0.221474 0
M  V30 41 H 0.805578 0.619625 1.826786 0
M  V30 42 H 1.376310 -0.696396 2.908625 0
M  V30 43 H -2.553324 -0.238255 -0.495180 0
M  V30 44 H -4.651219 -1.540470 -0.580142 0
M  V30 45 H -3.564080 -1.958837 0.760665 0
M  V30 46 H -4.831063 -4.131029 0.833356 0
M  V30 47 H -4.835119 -5.146206 -0.712266 0
M  V30 48 H -5.758408 -3.571478 -0.642110 0
M  V30 49 H -1.671860 -4.118361 -0.912974 0
M  V30 50 H -2.213870 -3.577887 0.744679 0
M  V30 51 H -2.806718 -5.125930 0.085053 0
M  V30 52 H -4.624689 -2.001007 -2.554425 0
M  V30 53 H -4.818020 -1.768773 -4.944283 0
M  V30 54 H -2.919869 -0.765929 -6.262192 0
M  V30 55 H -0.892784 -0.030853 -5.108690 0
M  V30 56 H -0.745219 -0.281950 -2.713017 0
M  V30 57 H 1.835939 -2.745230 -1.121229 0
M  V30 58 H 2.390156 -4.103601 -0.069046 0
M  V30 59 H 0.639271 -3.747688 -0.146273 0
M  V30 60 H 2.581433 -3.939803 2.151332 0
M  V30 61 H 2.622552 -2.374835 2.984893 0
M  V30 62 H 1.038512 -3.297546 2.782190 0
M  V30 63 H 2.233463 3.783132 -0.175231 0
M  V30 64 H 0.201615 5.335152 -0.441221 0
M  V30 END ATOM
M  V30 BEGIN BOND
M  V30 1 1 1 2
M  V30 2 2 2 3
M  V30 3 1 3 4
M  V30 4 1 4 5
M  V30 5 1 5 6
M  V30 6 1 6 7
M  V30 7 1 7 8
M  V30 8 2 8 9
M  V30 9 1 9 10
M  V30 10 1 10 11
M  V30 11 1 11 12
M  V30 12 1 12 13
M  V30 13 2 13 14
M  V30 14 1 13 15
M  V30 15 1 15 16
M  V30 16 1 16 17
M  V30 17 1 17 18
M  V30 18 1 18 19
M  V30 19 1 18 20
M  V30 20 1 16 21
M  V30 21 2 21 22
M  V30 22 1 22 23
M  V30 23 2 23 24
M  V30 24 1 24 25
M  V30 25 2 25 26
M  V30 26 1 12 27
M  V30 27 1 27 28
M  V30 28 1 27 29
M  V30 29 2 4 30
M  V30 30 1 30 31
M  V30 31 2 31 32
M  V30 32 1 32 33
M  V30 33 1 33 34
M  V30 34 2 34 35
M  V30 35 1 35 2
M  V30 36 2 10 6
M  V30 37 1 26 21
M  V30 38 1 34 30
M  V30 39 1 27 9
M  V30 40 1 1 36
M  V30 41 1 1 37
M  V30 42 1 1 38
M  V30 43 1 5 39
M  V30 44 1 7 40
M  V30 45 1 11 41
M  V30 46 1 11 42
M  V30 47 1 16 43 CFG=1
M  V30 48 1 17 44
M  V30 49 1 17 45
M  V30 50 1 19 46
M  V30 51 1 19 47
M  V30 52 1 19 48
M  V30 53 1 20 49
M  V30 54 1 20 50
M  V30 55 1 20 51
M  V30 56 1 22 52
M  V30 57 1 23 53
M  V30 58 1 24 54
M  V30 59 1 25 55
M  V30 60 1 26 56
M  V30 61 1 28 57
M  V30 62 1 28 58
M  V30 63 1 28 59
M  V30 64 1 29 60
M  V30 65 1 29 61
M  V30 66 1 29 62
M  V30 67 1 31 63
M  V30 68 1 32 64
M  V30 END BOND
M  V30 END CTAB
M  END
>  <Dataset>  (991) 
ChEMBL_Kinases

>  <Ligand_Instance>  (991) 
nan

>  <PDB_ID>  (991) 
nan

>  <Standardized_SMILES>  (991) 
Cc1nc(Nc2[nH]nc3c2CN(C(=O)O[C@H](CN(C)C)c2ccccc2)C3(C)C)c2ccsc2n1

>  <Name>  (991) 
nan

>  <Pocket>  (991) 
nan

>  <ATP_Site>  (991) 
nan

>  <Peripheral>  (991) 
nan

>  <Num_H_Atoms_ProtBoundConf>  (991) 
nan

>  <Num_Resolved_Atoms>  (991) 
nan

>  <Num_Not_Resolved_Atoms>  (991) 
nan

$$$$
CHEMBL3674588
     RDKit          3D

  0  0  0  0  0  0  0  0  0  0999 V3000
M  V30 BEGIN CTAB
M  V30 COUNTS 154 157 0 0 0
M  V30 BEGIN ATOM
M  V30 1 C 8.140206 -5.745646 -4.071249 0
M  V30 2 C 6.789321 -5.173117 -4.397013 0
M  V30 3 C 5.698018 -6.209833 -4.254779 0
M  V30 4 C 5.607148 -6.764494 -2.871775 0
M  V30 5 C 4.520184 -7.796937 -2.734137 0
M  V30 6 C 3.139626 -7.287838 -3.035176 0
M  V30 7 C 2.749114 -6.151283 -2.105143 0
M  V30 8 C 1.372005 -5.653238 -2.385962 0
M  V30 9 C 1.137213 -5.110483 -3.753291 0
M  V30 10 C 2.014948 -3.939621 -4.071092 0
M  V30 11 C 1.718523 -3.434637 -5.468073 0
M  V30 12 C 2.611087 -2.250163 -5.821601 0
M  V30 13 C 2.463844 -1.106080 -4.922076 0
M  V30 14 C 2.107858 0.140176 -5.166845 0
M  V30 15 C 1.977534 1.243443 -4.228358 0
M  V30 16 C 1.602996 2.493124 -4.668069 0
M  V30 17 C 1.490448 3.535513 -3.771193 0
M  V30 18 C 1.733593 3.427855 -2.396009 0
M  V30 19 C 1.581216 4.580682 -1.487141 0 CFG=2
M  V30 20 C 0.752632 5.701004 -2.102512 0
M  V30 21 C -0.645162 5.212302 -2.383805 0 CFG=2
M  V30 22 C -1.671260 6.189716 -1.843339 0
M  V30 23 C -2.852622 5.447703 -1.245705 0
M  V30 24 O -3.154496 4.268243 -1.860994 0
M  V30 25 C -2.088444 3.509134 -2.243350 0 CFG=2
M  V30 26 C -2.227465 2.052231 -1.898055 0
M  V30 27 C -1.475691 1.478886 -0.926692 0
M  V30 28 C -1.361028 0.086976 -0.340254 0
M  V30 29 C -0.317154 -0.700509 -1.125070 0
M  V30 30 C -2.637870 -0.698129 -0.526132 0
M  V30 31 C -0.901930 0.205453 1.063340 0 CFG=2
M  V30 32 O -0.158196 1.406236 1.162439 0
M  V30 33 O 0.024946 -0.793532 1.362827 0
M  V30 34 C 0.062187 -1.137793 2.674643 0 CFG=1
M  V30 35 C -1.207584 -1.923722 2.989005 0
M  V30 36 C -2.347188 -1.082071 2.565287 0
M  V30 37 C -3.605395 -1.410481 2.558749 0
M  V30 38 C -3.958986 -2.746330 3.011902 0
M  V30 39 O -5.124087 -3.218755 3.068197 0
M  V30 40 O -3.113434 -3.731794 3.456940 0
M  V30 41 C -3.560217 -5.008179 3.878420 0
M  V30 42 C -1.960855 0.291206 2.094566 0 CFG=2
M  V30 43 O -3.103241 1.040986 1.740620 0
M  V30 44 C -3.492621 2.163382 2.494609 0
M  V30 45 O -2.785546 2.488469 3.504786 0
M  V30 46 C -4.653972 3.049551 2.266466 0
M  V30 47 C -5.805116 2.594576 3.158777 0
M  V30 48 C -5.437150 2.647074 4.622761 0
M  V30 49 C -6.646848 2.181995 5.406516 0
M  V30 50 C -6.394003 2.186662 6.899678 0
M  V30 51 C -5.242559 1.274399 7.269710 0
M  V30 52 C -5.071153 1.346398 8.773404 0
M  V30 53 C 1.284183 -1.945949 2.993557 0
M  V30 54 C 2.527608 -1.170559 2.703647 0 CFG=2
M  V30 55 C 3.766594 -1.953398 3.183815 0
M  V30 56 O 4.874840 -1.265348 2.755361 0
M  V30 57 O 2.457161 0.115832 3.195793 0
M  V30 58 C 2.770551 1.294670 2.527716 0
M  V30 59 O 3.163451 0.930208 1.392357 0
M  V30 60 C 2.549062 2.518175 3.322890 0
M  V30 61 C 2.928757 3.798023 2.619963 0 CFG=2
M  V30 62 O 2.542017 4.900884 3.322746 0
M  V30 63 C 2.679104 3.779106 1.151056 0
M  V30 64 C 2.855962 5.080510 0.435609 0
M  V30 65 O 2.728182 5.031440 -0.910404 0
M  V30 66 O -0.914659 4.019771 -1.693226 0
M  V30 67 C 2.099318 2.153005 -2.044786 0
M  V30 68 C 2.231022 1.073294 -2.884805 0
M  V30 69 H 8.846077 -5.462243 -4.878258 0
M  V30 70 H 8.071470 -6.848861 -3.921642 0
M  V30 71 H 8.535057 -5.325683 -3.121988 0
M  V30 72 H 6.756646 -4.844762 -5.460565 0
M  V30 73 H 6.625554 -4.265818 -3.797489 0
M  V30 74 H 6.002827 -7.045715 -4.944023 0
M  V30 75 H 4.753730 -5.838747 -4.648793 0
M  V30 76 H 6.561483 -7.291925 -2.597923 0
M  V30 77 H 5.464181 -5.947921 -2.115846 0
M  V30 78 H 4.538811 -8.197972 -1.687984 0
M  V30 79 H 4.784016 -8.664753 -3.369713 0
M  V30 80 H 2.433656 -8.139068 -2.898848 0
M  V30 81 H 3.002767 -6.946443 -4.066058 0
M  V30 82 H 3.518637 -5.359893 -2.085628 0
M  V30 83 H 2.730135 -6.583564 -1.077897 0
M  V30 84 H 0.692812 -6.553199 -2.274861 0
M  V30 85 H 1.026126 -4.963608 -1.585792 0
M  V30 86 H 1.213180 -5.925432 -4.504489 0
M  V30 87 H 0.083030 -4.743322 -3.786707 0
M  V30 88 H 3.075523 -4.252655 -4.053349 0
M  V30 89 H 1.802445 -3.158029 -3.304379 0
M  V30 90 H 0.643871 -3.175884 -5.535144 0
M  V30 91 H 1.977386 -4.239605 -6.187857 0
M  V30 92 H 2.560362 -2.003044 -6.887131 0
M  V30 93 H 3.658234 -2.644648 -5.665654 0
M  V30 94 H 2.689212 -1.345894 -3.895615 0
M  V30 95 H 1.891592 0.317357 -6.232143 0
M  V30 96 H 1.413869 2.589287 -5.714567 0
M  V30 97 H 1.205755 4.456142 -4.233049 0
M  V30 98 H 0.910177 4.261314 -0.615594 0
M  V30 99 H 0.687742 6.501644 -1.354441 0
M  V30 100 H 1.177169 6.090614 -3.031459 0
M  V30 101 H -0.902699 5.049711 -3.426354 0
M  V30 102 H -2.042804 6.856656 -2.646183 0
M  V30 103 H -1.251705 6.832317 -1.048567 0
M  V30 104 H -3.733394 6.118985 -1.349272 0
M  V30 105 H -2.712073 5.260337 -0.161200 0
M  V30 106 H -2.033752 3.538845 -3.367315 0
M  V30 107 H -2.943775 1.437733 -2.435607 0
M  V30 108 H -0.794193 2.219577 -0.467621 0
M  V30 109 H 0.678665 -0.299325 -0.794933 0
M  V30 110 H -0.466639 -0.574791 -2.218061 0
M  V30 111 H -0.373313 -1.745773 -0.774021 0
M  V30 112 H -2.772045 -0.801592 -1.644312 0
M  V30 113 H -2.433817 -1.712654 -0.155950 0
M  V30 114 H -3.543052 -0.216699 -0.177211 0
M  V30 115 H 0.620387 1.239126 0.543734 0
M  V30 116 H 0.084903 -0.276302 3.378278 0
M  V30 117 H -1.208885 -2.168711 4.065354 0
M  V30 118 H -1.209267 -2.829817 2.335175 0
M  V30 119 H -4.417708 -0.790070 2.250078 0
M  V30 120 H -3.789126 -5.614214 2.955573 0
M  V30 121 H -4.524384 -4.919752 4.400186 0
M  V30 122 H -2.791244 -5.556967 4.438583 0
M  V30 123 H -1.558840 0.805003 2.992327 0
M  V30 124 H -4.428837 4.105920 2.540433 0
M  V30 125 H -4.974752 3.043236 1.207662 0
M  V30 126 H -6.727599 3.170994 2.951499 0
M  V30 127 H -6.032731 1.545200 2.832615 0
M  V30 128 H -4.595474 1.976888 4.866955 0
M  V30 129 H -5.127304 3.678220 4.858653 0
M  V30 130 H -6.892072 1.166558 5.051573 0
M  V30 131 H -7.490056 2.863535 5.201396 0
M  V30 132 H -7.305303 1.742551 7.375009 0
M  V30 133 H -6.155668 3.192608 7.246387 0
M  V30 134 H -5.403835 0.227990 6.994400 0
M  V30 135 H -4.269807 1.665987 6.855335 0
M  V30 136 H -5.753839 0.571324 9.212951 0
M  V30 137 H -5.331170 2.354768 9.171905 0
M  V30 138 H -4.035828 1.049600 9.060753 0
M  V30 139 H 1.283746 -2.807611 2.271571 0
M  V30 140 H 1.278849 -2.328102 4.041366 0
M  V30 141 H 2.754322 -1.100671 1.590205 0
M  V30 142 H 3.716967 -2.192405 4.244100 0
M  V30 143 H 3.726502 -2.905433 2.613126 0
M  V30 144 H 5.145567 -1.545012 1.822051 0
M  V30 145 H 3.097166 2.479096 4.301555 0
M  V30 146 H 1.460669 2.612841 3.568010 0
M  V30 147 H 4.098952 3.758358 2.677556 0
M  V30 148 H 2.866357 5.698865 2.795405 0
M  V30 149 H 1.664928 3.405532 0.998746 0
M  V30 150 H 3.412142 3.049453 0.670888 0
M  V30 151 H 2.113321 5.796569 0.908254 0
M  V30 152 H 3.845823 5.511699 0.768191 0
M  V30 153 H 2.304700 1.929002 -1.018994 0
M  V30 154 H 2.531612 0.092863 -2.498629 0
M  V30 END ATOM
M  V30 BEGIN BOND
M  V30 1 1 1 2
M  V30 2 1 2 3
M  V30 3 1 3 4
M  V30 4 1 4 5
M  V30 5 1 5 6
M  V30 6 1 6 7
M  V30 7 1 7 8
M  V30 8 1 8 9
M  V30 9 1 9 10
M  V30 10 1 10 11
M  V30 11 1 11 12
M  V30 12 1 12 13
M  V30 13 2 13 14
M  V30 14 1 14 15
M  V30 15 2 15 16
M  V30 16 1 16 17
M  V30 17 2 17 18
M  V30 18 1 18 19
M  V30 19 1 19 20
M  V30 20 1 20 21
M  V30 21 1 21 22
M  V30 22 1 22 23
M  V30 23 1 23 24
M  V30 24 1 24 25
M  V30 25 1 25 26
M  V30 26 2 26 27
M  V30 27 1 27 28
M  V30 28 1 28 29
M  V30 29 1 28 30
M  V30 30 1 28 31
M  V30 31 1 31 32 CFG=3
M  V30 32 1 31 33
M  V30 33 1 33 34
M  V30 34 1 34 35
M  V30 35 1 35 36
M  V30 36 2 36 37
M  V30 37 1 37 38
M  V30 38 2 38 39
M  V30 39 1 38 40
M  V30 40 1 40 41
M  V30 41 1 36 42
M  V30 42 1 42 43
M  V30 43 1 43 44
M  V30 44 2 44 45
M  V30 45 1 44 46
M  V30 46 1 46 47
M  V30 47 1 47 48
M  V30 48 1 48 49
M  V30 49 1 49 50
M  V30 50 1 50 51
M  V30 51 1 51 52
M  V30 52 1 34 53
M  V30 53 1 53 54
M  V30 54 1 54 55
M  V30 55 1 55 56
M  V30 56 1 54 57
M  V30 57 1 57 58
M  V30 58 2 58 59
M  V30 59 1 58 60
M  V30 60 1 60 61
M  V30 61 1 61 62
M  V30 62 1 61 63
M  V30 63 1 63 64
M  V30 64 1 64 65
M  V30 65 1 25 66
M  V30 66 1 18 67
M  V30 67 2 67 68
M  V30 68 1 68 15
M  V30 69 1 65 19
M  V30 70 1 66 21
M  V30 71 1 42 31
M  V30 72 1 1 69
M  V30 73 1 1 70
M  V30 74 1 1 71
M  V30 75 1 2 72
M  V30 76 1 2 73
M  V30 77 1 3 74
M  V30 78 1 3 75
M  V30 79 1 4 76
M  V30 80 1 4 77
M  V30 81 1 5 78
M  V30 82 1 5 79
M  V30 83 1 6 80
M  V30 84 1 6 81
M  V30 85 1 7 82
M  V30 86 1 7 83
M  V30 87 1 8 84
M  V30 88 1 8 85
M  V30 89 1 9 86
M  V30 90 1 9 87
M  V30 91 1 10 88
M  V30 92 1 10 89
M  V30 93 1 11 90
M  V30 94 1 11 91
M  V30 95 1 12 92
M  V30 96 1 12 93
M  V30 97 1 13 94
M  V30 98 1 14 95
M  V30 99 1 16 96
M  V30 100 1 17 97
M  V30 101 1 19 98 CFG=1
M  V30 102 1 20 99
M  V30 103 1 20 100
M  V30 104 1 21 101 CFG=3
M  V30 105 1 22 102
M  V30 106 1 22 103
M  V30 107 1 23 104
M  V30 108 1 23 105
M  V30 109 1 25 106 CFG=3
M  V30 110 1 26 107
M  V30 111 1 27 108
M  V30 112 1 29 109
M  V30 113 1 29 110
M  V30 114 1 29 111
M  V30 115 1 30 112
M  V30 116 1 30 113
M  V30 117 1 30 114
M  V30 118 1 32 115
M  V30 119 1 34 116 CFG=1
M  V30 120 1 35 117
M  V30 121 1 35 118
M  V30 122 1 37 119
M  V30 123 1 41 120
M  V30 124 1 41 121
M  V30 125 1 41 122
M  V30 126 1 42 123 CFG=1
M  V30 127 1 46 124
M  V30 128 1 46 125
M  V30 129 1 47 126
M  V30 130 1 47 127
M  V30 131 1 48 128
M  V30 132 1 48 129
M  V30 133 1 49 130
M  V30 134 1 49 131
M  V30 135 1 50 132
M  V30 136 1 50 133
M  V30 137 1 51 134
M  V30 138 1 51 135
M  V30 139 1 52 136
M  V30 140 1 52 137
M  V30 141 1 52 138
M  V30 142 1 53 139
M  V30 143 1 53 140
M  V30 144 1 54 141 CFG=3
M  V30 145 1 55 142
M  V30 146 1 55 143
M  V30 147 1 56 144
M  V30 148 1 60 145
M  V30 149 1 60 146
M  V30 150 1 61 147 CFG=3
M  V30 151 1 62 148
M  V30 152 1 63 149
M  V30 153 1 63 150
M  V30 154 1 64 151
M  V30 155 1 64 152
M  V30 156 1 67 153
M  V30 157 1 68 154
M  V30 END BOND
M  V30 END CTAB
M  END
>  <Dataset>  (992) 
ChEMBL_Kinases

>  <Ligand_Instance>  (992) 
nan

>  <PDB_ID>  (992) 
nan

>  <Standardized_SMILES>  (992) 
CCCCCCCCCCCC/C=C/c1ccc([C@@H]2C[C@@H]3CCO[C@H](/C=C/C(C)(C)[C@]4(O)O[C@@H](C/C(=C\C(=O)OC)[C@@H]4OC(=O)CCCCCCC)C[C@H](CO)OC(=O)C[C@H](O)CCO2)O3)cc1

>  <Name>  (992) 
nan

>  <Pocket>  (992) 
nan

>  <ATP_Site>  (992) 
nan

>  <Peripheral>  (992) 
nan

>  <Num_H_Atoms_ProtBoundConf>  (992) 
nan

>  <Num_Resolved_Atoms>  (992) 
nan

>  <Num_Not_Resolved_Atoms>  (992) 
nan

$$$$
CHEMBL3674587
     RDKit          3D

  0  0  0  0  0  0  0  0  0  0999 V3000
M  V30 BEGIN CTAB
M  V30 COUNTS 136 139 0 0 0
M  V30 BEGIN ATOM
M  V30 1 C 6.320324 -4.780114 6.194172 0
M  V30 2 C 6.537352 -3.275870 6.171962 0
M  V30 3 C 7.854239 -2.899697 5.567406 0
M  V30 4 C 8.021197 -1.403333 5.586619 0
M  V30 5 C 6.966657 -0.683092 4.819458 0
M  V30 6 C 7.171213 0.830752 4.847747 0
M  V30 7 C 6.069895 1.447363 4.068248 0
M  V30 8 C 6.049089 2.230172 3.024766 0
M  V30 9 C 4.839242 2.731562 2.404180 0
M  V30 10 C 4.987294 3.594409 1.333512 0
M  V30 11 C 3.880051 4.117963 0.704915 0
M  V30 12 C 2.581574 3.841109 1.070264 0
M  V30 13 C 1.295266 4.292874 0.596769 0 CFG=2
M  V30 14 C 1.287298 5.367299 -0.467464 0
M  V30 15 C 1.695937 4.787142 -1.823019 0 CFG=2
M  V30 16 C 0.529183 4.905686 -2.788971 0
M  V30 17 C 0.791175 4.056409 -3.989257 0
M  V30 18 O 1.395680 2.865036 -3.778244 0
M  V30 19 C 2.017248 2.584717 -2.621243 0 CFG=2
M  V30 20 C 1.527526 1.304884 -1.979377 0
M  V30 21 C 1.184865 0.165621 -2.604460 0
M  V30 22 C 0.696795 -1.149726 -2.099158 0
M  V30 23 C 1.407073 -1.294673 -0.742279 0
M  V30 24 C 1.358084 -2.192319 -2.970831 0
M  V30 25 C -0.762929 -1.257553 -1.983023 0 CFG=2
M  V30 26 O -1.304978 -0.503085 -3.062910 0
M  V30 27 O -1.230557 -0.674839 -0.864514 0
M  V30 28 C -1.927777 -1.370837 0.074209 0 CFG=1
M  V30 29 C -1.305128 -2.728227 0.397572 0
M  V30 30 C -1.069732 -3.391888 -0.918298 0
M  V30 31 C -0.625520 -4.638539 -1.002115 0
M  V30 32 C -0.335516 -5.451623 0.172778 0
M  V30 33 O 0.080701 -6.611825 0.100229 0
M  V30 34 O -0.500728 -4.995845 1.471515 0
M  V30 35 C -0.203454 -5.825898 2.597102 0
M  V30 36 C -1.351499 -2.627897 -2.166839 0 CFG=2
M  V30 37 O -1.007435 -3.262119 -3.330919 0
M  V30 38 C -1.757012 -3.714127 -4.370006 0
M  V30 39 O -2.897445 -3.390643 -3.971948 0
M  V30 40 C -2.472066 -4.244266 -5.554582 0
M  V30 41 C -3.965429 -4.024032 -5.319606 0
M  V30 42 C -4.772978 -4.557565 -6.483696 0
M  V30 43 C -6.239371 -4.331632 -6.193066 0
M  V30 44 C -6.619933 -2.893331 -6.026765 0
M  V30 45 C -8.127998 -2.804554 -5.734045 0
M  V30 46 C -8.567340 -1.386662 -5.565803 0
M  V30 47 C -1.939441 -0.446836 1.292517 0
M  V30 48 C -3.155451 0.414690 1.416736 0 CFG=2
M  V30 49 C -3.444094 1.216736 0.154274 0
M  V30 50 O -3.704661 0.399111 -0.924155 0
M  V30 51 O -2.910448 1.296191 2.476401 0
M  V30 52 C -3.423531 1.660220 3.627473 0
M  V30 53 O -4.440445 0.975592 3.772706 0
M  V30 54 C -2.696576 2.744200 4.422227 0
M  V30 55 C -1.463811 3.156725 3.632679 0 CFG=2
M  V30 56 O -0.789613 4.095692 4.426657 0
M  V30 57 C -1.880465 3.826733 2.320803 0
M  V30 58 C -0.772297 3.833510 1.358340 0
M  V30 59 O 0.348761 4.611117 1.604075 0
M  V30 60 O 2.142695 3.516415 -1.666199 0
M  V30 61 C 2.439854 2.963545 2.155953 0
M  V30 62 C 3.565989 2.433169 2.793117 0
M  V30 63 H 6.755051 -5.266053 7.075135 0
M  V30 64 H 5.229227 -5.004936 6.202649 0
M  V30 65 H 6.742154 -5.257233 5.288724 0
M  V30 66 H 6.432114 -2.920624 7.204907 0
M  V30 67 H 5.699679 -2.778367 5.600548 0
M  V30 68 H 7.901676 -3.307267 4.527731 0
M  V30 69 H 8.684761 -3.373601 6.150124 0
M  V30 70 H 9.035537 -1.196962 5.138725 0
M  V30 71 H 8.010955 -1.100048 6.666733 0
M  V30 72 H 5.958288 -0.829457 5.299884 0
M  V30 73 H 6.961572 -0.969284 3.749691 0
M  V30 74 H 7.191544 1.220782 5.901189 0
M  V30 75 H 8.142341 1.042940 4.358793 0
M  V30 76 H 5.161515 1.116895 4.546444 0
M  V30 77 H 7.037830 2.461864 2.676929 0
M  V30 78 H 5.951762 3.894261 0.948445 0
M  V30 79 H 3.930995 4.806015 -0.130826 0
M  V30 80 H 0.774449 3.375889 0.123783 0
M  V30 81 H 0.319020 5.869230 -0.544439 0
M  V30 82 H 2.050756 6.110455 -0.186941 0
M  V30 83 H 2.498776 5.423341 -2.215938 0
M  V30 84 H 0.458115 5.968264 -3.063655 0
M  V30 85 H -0.435103 4.601923 -2.346977 0
M  V30 86 H 1.295255 4.658253 -4.809325 0
M  V30 87 H -0.210693 3.811086 -4.482396 0
M  V30 88 H 3.089973 2.279295 -2.931865 0
M  V30 89 H 1.419703 1.236940 -0.882049 0
M  V30 90 H 1.303675 0.276954 -3.698499 0
M  V30 91 H 0.925617 -0.672513 0.026218 0
M  V30 92 H 2.487652 -1.045966 -0.831172 0
M  V30 93 H 1.413116 -2.392320 -0.501065 0
M  V30 94 H 1.000553 -2.211781 -4.000962 0
M  V30 95 H 2.435146 -1.852605 -3.035756 0
M  V30 96 H 1.407834 -3.171021 -2.456061 0
M  V30 97 H -1.104184 -1.017971 -3.881995 0
M  V30 98 H -2.996768 -1.569530 -0.134971 0
M  V30 99 H -2.032853 -3.320052 0.995494 0
M  V30 100 H -0.429866 -2.602831 1.018210 0
M  V30 101 H -0.467652 -5.084947 -1.974633 0
M  V30 102 H -0.588373 -5.322937 3.511205 0
M  V30 103 H -0.818740 -6.762386 2.473499 0
M  V30 104 H 0.849439 -6.093462 2.643130 0
M  V30 105 H -2.449926 -2.472312 -2.133585 0
M  V30 106 H -2.354264 -5.366496 -5.619239 0
M  V30 107 H -2.161040 -3.776511 -6.493358 0
M  V30 108 H -4.207944 -2.945221 -5.264966 0
M  V30 109 H -4.340890 -4.503285 -4.408177 0
M  V30 110 H -4.648813 -5.670551 -6.566638 0
M  V30 111 H -4.507762 -4.046867 -7.430402 0
M  V30 112 H -6.896163 -4.819417 -6.949881 0
M  V30 113 H -6.513272 -4.831354 -5.217236 0
M  V30 114 H -6.143104 -2.409613 -5.153047 0
M  V30 115 H -6.426985 -2.338437 -6.969513 0
M  V30 116 H -8.738028 -3.329177 -6.466512 0
M  V30 117 H -8.270155 -3.347910 -4.751761 0
M  V30 118 H -7.906039 -0.763354 -4.969821 0
M  V30 119 H -9.550164 -1.401058 -5.010258 0
M  V30 120 H -8.812385 -0.899598 -6.547439 0
M  V30 121 H -1.848879 -1.035612 2.237141 0
M  V30 122 H -1.053917 0.230344 1.288145 0
M  V30 123 H -4.035524 -0.182207 1.629355 0
M  V30 124 H -2.661264 1.972690 -0.047805 0
M  V30 125 H -4.373777 1.786534 0.365511 0
M  V30 126 H -4.660969 0.237835 -1.100724 0
M  V30 127 H -2.416015 2.347627 5.414219 0
M  V30 128 H -3.362382 3.596568 4.562338 0
M  V30 129 H -0.865127 2.262312 3.437668 0
M  V30 130 H 0.032376 3.647861 4.721446 0
M  V30 131 H -2.774597 3.367250 1.907704 0
M  V30 132 H -2.173123 4.902429 2.551089 0
M  V30 133 H -0.405520 2.767800 1.218363 0
M  V30 134 H -1.105723 4.097426 0.304277 0
M  V30 135 H 1.516437 2.613085 2.607360 0
M  V30 136 H 3.484878 1.751705 3.635582 0
M  V30 END ATOM
M  V30 BEGIN BOND
M  V30 1 1 1 2
M  V30 2 1 2 3
M  V30 3 1 3 4
M  V30 4 1 4 5
M  V30 5 1 5 6
M  V30 6 1 6 7
M  V30 7 2 7 8
M  V30 8 1 8 9
M  V30 9 2 9 10
M  V30 10 1 10 11
M  V30 11 2 11 12
M  V30 12 1 12 13
M  V30 13 1 13 14
M  V30 14 1 14 15
M  V30 15 1 15 16
M  V30 16 1 16 17
M  V30 17 1 17 18
M  V30 18 1 18 19
M  V30 19 1 19 20
M  V30 20 2 20 21
M  V30 21 1 21 22
M  V30 22 1 22 23
M  V30 23 1 22 24
M  V30 24 1 22 25
M  V30 25 1 25 26 CFG=3
M  V30 26 1 25 27
M  V30 27 1 27 28
M  V30 28 1 28 29
M  V30 29 1 29 30
M  V30 30 2 30 31
M  V30 31 1 31 32
M  V30 32 2 32 33
M  V30 33 1 32 34
M  V30 34 1 34 35
M  V30 35 1 30 36
M  V30 36 1 36 37
M  V30 37 1 37 38
M  V30 38 2 38 39
M  V30 39 1 38 40
M  V30 40 1 40 41
M  V30 41 1 41 42
M  V30 42 1 42 43
M  V30 43 1 43 44
M  V30 44 1 44 45
M  V30 45 1 45 46
M  V30 46 1 28 47
M  V30 47 1 47 48
M  V30 48 1 48 49
M  V30 49 1 49 50
M  V30 50 1 48 51
M  V30 51 1 51 52
M  V30 52 2 52 53
M  V30 53 1 52 54
M  V30 54 1 54 55
M  V30 55 1 55 56
M  V30 56 1 55 57
M  V30 57 1 57 58
M  V30 58 1 58 59
M  V30 59 1 19 60
M  V30 60 1 12 61
M  V30 61 2 61 62
M  V30 62 1 62 9
M  V30 63 1 59 13
M  V30 64 1 60 15
M  V30 65 1 36 25
M  V30 66 1 1 63
M  V30 67 1 1 64
M  V30 68 1 1 65
M  V30 69 1 2 66
M  V30 70 1 2 67
M  V30 71 1 3 68
M  V30 72 1 3 69
M  V30 73 1 4 70
M  V30 74 1 4 71
M  V30 75 1 5 72
M  V30 76 1 5 73
M  V30 77 1 6 74
M  V30 78 1 6 75
M  V30 79 1 7 76
M  V30 80 1 8 77
M  V30 81 1 10 78
M  V30 82 1 11 79
M  V30 83 1 13 80 CFG=3
M  V30 84 1 14 81
M  V30 85 1 14 82
M  V30 86 1 15 83 CFG=3
M  V30 87 1 16 84
M  V30 88 1 16 85
M  V30 89 1 17 86
M  V30 90 1 17 87
M  V30 91 1 19 88 CFG=3
M  V30 92 1 20 89
M  V30 93 1 21 90
M  V30 94 1 23 91
M  V30 95 1 23 92
M  V30 96 1 23 93
M  V30 97 1 24 94
M  V30 98 1 24 95
M  V30 99 1 24 96
M  V30 100 1 26 97
M  V30 101 1 28 98 CFG=3
M  V30 102 1 29 99
M  V30 103 1 29 100
M  V30 104 1 31 101
M  V30 105 1 35 102
M  V30 106 1 35 103
M  V30 107 1 35 104
M  V30 108 1 36 105 CFG=3
M  V30 109 1 40 106
M  V30 110 1 40 107
M  V30 111 1 41 108
M  V30 112 1 41 109
M  V30 113 1 42 110
M  V30 114 1 42 111
M  V30 115 1 43 112
M  V30 116 1 43 113
M  V30 117 1 44 114
M  V30 118 1 44 115
M  V30 119 1 45 116
M  V30 120 1 45 117
M  V30 121 1 46 118
M  V30 122 1 46 119
M  V30 123 1 46 120
M  V30 124 1 47 121
M  V30 125 1 47 122
M  V30 126 1 48 123 CFG=1
M  V30 127 1 49 124
M  V30 128 1 49 125
M  V30 129 1 50 126
M  V30 130 1 54 127
M  V30 131 1 54 128
M  V30 132 1 55 129 CFG=3
M  V30 133 1 56 130
M  V30 134 1 57 131
M  V30 135 1 57 132
M  V30 136 1 58 133
M  V30 137 1 58 134
M  V30 138 1 61 135
M  V30 139 1 62 136
M  V30 END BOND
M  V30 END CTAB
M  END
>  <Dataset>  (993) 
ChEMBL_Kinases

>  <Ligand_Instance>  (993) 
nan

>  <PDB_ID>  (993) 
nan

>  <Standardized_SMILES>  (993) 
CCCCCC/C=C/c1ccc([C@@H]2C[C@@H]3CCO[C@H](/C=C/C(C)(C)[C@]4(O)O[C@@H](C/C(=C\C(=O)OC)[C@@H]4OC(=O)CCCCCCC)C[C@H](CO)OC(=O)C[C@H](O)CCO2)O3)cc1

>  <Name>  (993) 
nan

>  <Pocket>  (993) 
nan

>  <ATP_Site>  (993) 
nan

>  <Peripheral>  (993) 
nan

>  <Num_H_Atoms_ProtBoundConf>  (993) 
nan

>  <Num_Resolved_Atoms>  (993) 
nan

>  <Num_Not_Resolved_Atoms>  (993) 
nan

$$$$
CHEMBL3674586
     RDKit          3D

  0  0  0  0  0  0  0  0  0  0999 V3000
M  V30 BEGIN CTAB
M  V30 COUNTS 137 140 0 0 0
M  V30 BEGIN ATOM
M  V30 1 C 2.005954 0.442077 2.971184 0
M  V30 2 C 1.704635 0.996070 4.338338 0
M  V30 3 C 1.377939 2.490172 4.217894 0
M  V30 4 C 2.551291 3.232540 3.624716 0
M  V30 5 C 2.246471 4.681908 3.511878 0
M  V30 6 C 1.055113 4.994214 2.655775 0
M  V30 7 C 1.297935 4.466880 1.262772 0
M  V30 8 C 0.155574 4.761868 0.335039 0
M  V30 9 O -0.952111 5.352968 0.293722 0
M  V30 10 O 0.442136 4.166269 -0.891385 0
M  V30 11 C -0.363365 4.203131 -2.027901 0 CFG=1
M  V30 12 C 0.469268 4.910582 -3.116726 0
M  V30 13 C 0.397468 6.227985 -3.093929 0
M  V30 14 C 1.145612 6.995407 -4.079358 0
M  V30 15 O 1.910605 6.726549 -5.034577 0
M  V30 16 O 1.164078 8.377523 -4.170025 0
M  V30 17 C 1.866442 9.142221 -5.096388 0
M  V30 18 C 1.314635 4.230429 -4.143491 0
M  V30 19 C 1.366149 2.742239 -3.955668 0 CFG=1
M  V30 20 C 2.740755 2.161887 -3.971138 0
M  V30 21 C 2.975726 1.005837 -4.904799 0 CFG=2
M  V30 22 C 2.795752 1.441459 -6.330207 0
M  V30 23 O 1.516937 1.678277 -6.735146 0
M  V30 24 O 2.280426 -0.167826 -4.589821 0
M  V30 25 C 2.982577 -1.343709 -4.240143 0
M  V30 26 O 4.240591 -1.454226 -4.183047 0
M  V30 27 C 1.969472 -2.444152 -3.940613 0
M  V30 28 C 1.272674 -2.115563 -2.657790 0 CFG=2
M  V30 29 O 2.100148 -2.067449 -1.555527 0
M  V30 30 C 0.072322 -3.057708 -2.448512 0
M  V30 31 C -0.696735 -2.550391 -1.245871 0
M  V30 32 O -1.825998 -3.298522 -1.008272 0
M  V30 33 C -2.559994 -2.663642 0.038844 0 CFG=2
M  V30 34 C -2.595444 -3.608495 1.170758 0
M  V30 35 C -2.719076 -4.974049 1.111806 0
M  V30 36 C -2.749274 -5.764088 2.240242 0
M  V30 37 C -2.649245 -5.126391 3.465127 0
M  V30 38 C -2.661656 -5.999393 4.676830 0
M  V30 39 C -1.197173 -6.278062 5.040303 0
M  V30 40 C -0.489403 -6.956662 3.904077 0
M  V30 41 O 0.842070 -7.249095 4.181407 0
M  V30 42 C 1.603868 -6.141815 4.456743 0
M  V30 43 C 3.045931 -6.549577 4.762682 0
M  V30 44 O 3.592274 -7.204861 3.675751 0
M  V30 45 C 4.910760 -7.583189 3.949614 0
M  V30 46 C 5.498434 -8.292168 2.765895 0
M  V30 47 C -2.523223 -3.775126 3.641181 0
M  V30 48 C -2.500947 -3.055331 2.454918 0
M  V30 49 C -3.934401 -2.402652 -0.444789 0
M  V30 50 C -4.746465 -1.548665 0.541524 0 CFG=2
M  V30 51 C -6.172373 -1.613468 0.063961 0
M  V30 52 C -6.537074 -0.429948 -0.793482 0
M  V30 53 O -5.473769 0.281838 -1.255688 0
M  V30 54 C -4.499337 0.619484 -0.330095 0 CFG=2
M  V30 55 C -3.220116 1.009455 -0.995557 0
M  V30 56 C -2.636385 2.145352 -1.422392 0
M  V30 57 C -1.328307 1.811925 -2.011567 0
M  V30 58 C -1.528471 0.771992 -3.156622 0
M  V30 59 C -0.497063 1.209906 -0.894501 0
M  V30 60 C -0.536196 2.862531 -2.650491 0 CFG=1
M  V30 61 O -0.941773 2.984338 -4.002792 0
M  V30 62 O 0.778314 2.351642 -2.748911 0
M  V30 63 O -4.266493 -0.267912 0.668405 0
M  V30 64 H 3.099375 0.309264 2.785119 0
M  V30 65 H 1.558573 -0.582831 2.842323 0
M  V30 66 H 1.577532 1.050948 2.175033 0
M  V30 67 H 2.568705 0.854375 5.008688 0
M  V30 68 H 0.853315 0.441985 4.753017 0
M  V30 69 H 1.183317 2.847691 5.237642 0
M  V30 70 H 0.471398 2.611892 3.575177 0
M  V30 71 H 2.843019 2.751651 2.664320 0
M  V30 72 H 3.391254 3.138338 4.374367 0
M  V30 73 H 3.169059 5.203922 3.139045 0
M  V30 74 H 2.101803 5.094484 4.542702 0
M  V30 75 H 0.944361 6.099309 2.542492 0
M  V30 76 H 0.118868 4.548746 3.061454 0
M  V30 77 H 1.435003 3.361752 1.357742 0
M  V30 78 H 2.214906 4.892900 0.841166 0
M  V30 79 H -1.292309 4.762099 -1.871955 0
M  V30 80 H -0.169367 6.835135 -2.408213 0
M  V30 81 H 2.801905 9.593536 -4.706362 0
M  V30 82 H 2.096444 8.671930 -6.055354 0
M  V30 83 H 1.213342 10.022451 -5.333937 0
M  V30 84 H 2.341348 4.624895 -4.022176 0
M  V30 85 H 0.990367 4.480883 -5.170681 0
M  V30 86 H 0.760574 2.241776 -4.727014 0
M  V30 87 H 3.024443 1.768122 -2.945825 0
M  V30 88 H 3.504891 2.960064 -4.173290 0
M  V30 89 H 4.080762 0.696694 -4.796951 0
M  V30 90 H 3.319728 0.728779 -7.040881 0
M  V30 91 H 3.409126 2.386932 -6.458693 0
M  V30 92 H 1.320243 2.563980 -7.077668 0
M  V30 93 H 1.248712 -2.480982 -4.772714 0
M  V30 94 H 2.445669 -3.422900 -3.854734 0
M  V30 95 H 0.890835 -1.072212 -2.787727 0
M  V30 96 H 2.006655 -2.870736 -1.020302 0
M  V30 97 H 0.466345 -4.063180 -2.315556 0
M  V30 98 H -0.530645 -2.976654 -3.375163 0
M  V30 99 H 0.044211 -2.657651 -0.390155 0
M  V30 100 H -0.913501 -1.486064 -1.329668 0
M  V30 101 H -2.015247 -1.747762 0.355358 0
M  V30 102 H -2.789394 -5.362192 0.106810 0
M  V30 103 H -2.847500 -6.838402 2.145014 0
M  V30 104 H -3.152085 -6.963447 4.461449 0
M  V30 105 H -3.091307 -5.447383 5.515996 0
M  V30 106 H -0.722249 -5.265506 5.197539 0
M  V30 107 H -1.119164 -6.834391 5.972239 0
M  V30 108 H -0.970244 -7.908251 3.612746 0
M  V30 109 H -0.471077 -6.302273 2.993397 0
M  V30 110 H 1.236527 -5.569234 5.333648 0
M  V30 111 H 1.625425 -5.445768 3.591341 0
M  V30 112 H 3.042198 -7.246683 5.639590 0
M  V30 113 H 3.655144 -5.678248 5.041933 0
M  V30 114 H 5.481640 -6.662534 4.174250 0
M  V30 115 H 4.920601 -8.242044 4.835379 0
M  V30 116 H 6.538435 -8.636816 3.037487 0
M  V30 117 H 5.602488 -7.611934 1.900272 0
M  V30 118 H 4.897060 -9.157562 2.464458 0
M  V30 119 H -2.447384 -3.281500 4.584308 0
M  V30 120 H -2.400749 -1.965285 2.561097 0
M  V30 121 H -4.491418 -3.386625 -0.577962 0
M  V30 122 H -3.949367 -1.964326 -1.455646 0
M  V30 123 H -4.660248 -2.052393 1.519379 0
M  V30 124 H -6.366549 -2.592973 -0.412975 0
M  V30 125 H -6.808251 -1.582766 0.973031 0
M  V30 126 H -7.241903 0.253273 -0.277043 0
M  V30 127 H -7.093008 -0.827631 -1.688692 0
M  V30 128 H -4.931797 1.540051 0.175765 0
M  V30 129 H -2.783923 0.010097 -1.074060 0
M  V30 130 H -3.119076 3.110709 -1.312387 0
M  V30 131 H -0.539869 0.610496 -3.574047 0
M  V30 132 H -2.081081 -0.103645 -2.836813 0
M  V30 133 H -2.128314 1.266198 -3.964078 0
M  V30 134 H 0.397576 0.671318 -1.286199 0
M  V30 135 H -0.086784 2.034252 -0.287521 0
M  V30 136 H -1.085541 0.575100 -0.195783 0
M  V30 137 H -1.204148 3.922526 -4.183940 0
M  V30 END ATOM
M  V30 BEGIN BOND
M  V30 1 1 1 2
M  V30 2 1 2 3
M  V30 3 1 3 4
M  V30 4 1 4 5
M  V30 5 1 5 6
M  V30 6 1 6 7
M  V30 7 1 7 8
M  V30 8 2 8 9
M  V30 9 1 8 10
M  V30 10 1 10 11
M  V30 11 1 11 12
M  V30 12 2 12 13
M  V30 13 1 13 14
M  V30 14 2 14 15
M  V30 15 1 14 16
M  V30 16 1 16 17
M  V30 17 1 12 18
M  V30 18 1 18 19
M  V30 19 1 19 20
M  V30 20 1 20 21
M  V30 21 1 21 22
M  V30 22 1 22 23
M  V30 23 1 21 24
M  V30 24 1 24 25
M  V30 25 2 25 26
M  V30 26 1 25 27
M  V30 27 1 27 28
M  V30 28 1 28 29
M  V30 29 1 28 30
M  V30 30 1 30 31
M  V30 31 1 31 32
M  V30 32 1 32 33
M  V30 33 1 33 34
M  V30 34 2 34 35
M  V30 35 1 35 36
M  V30 36 2 36 37
M  V30 37 1 37 38
M  V30 38 1 38 39
M  V30 39 1 39 40
M  V30 40 1 40 41
M  V30 41 1 41 42
M  V30 42 1 42 43
M  V30 43 1 43 44
M  V30 44 1 44 45
M  V30 45 1 45 46
M  V30 46 1 37 47
M  V30 47 2 47 48
M  V30 48 1 33 49
M  V30 49 1 49 50
M  V30 50 1 50 51
M  V30 51 1 51 52
M  V30 52 1 52 53
M  V30 53 1 53 54
M  V30 54 1 54 55
M  V30 55 2 55 56
M  V30 56 1 56 57
M  V30 57 1 57 58
M  V30 58 1 57 59
M  V30 59 1 57 60
M  V30 60 1 60 61 CFG=3
M  V30 61 1 60 62
M  V30 62 1 54 63
M  V30 63 1 60 11
M  V30 64 1 62 19
M  V30 65 1 48 34
M  V30 66 1 63 50
M  V30 67 1 1 64
M  V30 68 1 1 65
M  V30 69 1 1 66
M  V30 70 1 2 67
M  V30 71 1 2 68
M  V30 72 1 3 69
M  V30 73 1 3 70
M  V30 74 1 4 71
M  V30 75 1 4 72
M  V30 76 1 5 73
M  V30 77 1 5 74
M  V30 78 1 6 75
M  V30 79 1 6 76
M  V30 80 1 7 77
M  V30 81 1 7 78
M  V30 82 1 11 79 CFG=1
M  V30 83 1 13 80
M  V30 84 1 17 81
M  V30 85 1 17 82
M  V30 86 1 17 83
M  V30 87 1 18 84
M  V30 88 1 18 85
M  V30 89 1 19 86 CFG=3
M  V30 90 1 20 87
M  V30 91 1 20 88
M  V30 92 1 21 89 CFG=3
M  V30 93 1 22 90
M  V30 94 1 22 91
M  V30 95 1 23 92
M  V30 96 1 27 93
M  V30 97 1 27 94
M  V30 98 1 28 95 CFG=3
M  V30 99 1 29 96
M  V30 100 1 30 97
M  V30 101 1 30 98
M  V30 102 1 31 99
M  V30 103 1 31 100
M  V30 104 1 33 101 CFG=1
M  V30 105 1 35 102
M  V30 106 1 36 103
M  V30 107 1 38 104
M  V30 108 1 38 105
M  V30 109 1 39 106
M  V30 110 1 39 107
M  V30 111 1 40 108
M  V30 112 1 40 109
M  V30 113 1 42 110
M  V30 114 1 42 111
M  V30 115 1 43 112
M  V30 116 1 43 113
M  V30 117 1 45 114
M  V30 118 1 45 115
M  V30 119 1 46 116
M  V30 120 1 46 117
M  V30 121 1 46 118
M  V30 122 1 47 119
M  V30 123 1 48 120
M  V30 124 1 49 121
M  V30 125 1 49 122
M  V30 126 1 50 123 CFG=1
M  V30 127 1 51 124
M  V30 128 1 51 125
M  V30 129 1 52 126
M  V30 130 1 52 127
M  V30 131 1 54 128 CFG=1
M  V30 132 1 55 129
M  V30 133 1 56 130
M  V30 134 1 58 131
M  V30 135 1 58 132
M  V30 136 1 58 133
M  V30 137 1 59 134
M  V30 138 1 59 135
M  V30 139 1 59 136
M  V30 140 1 61 137
M  V30 END BOND
M  V30 END CTAB
M  END
>  <Dataset>  (994) 
ChEMBL_Kinases

>  <Ligand_Instance>  (994) 
nan

>  <PDB_ID>  (994) 
nan

>  <Standardized_SMILES>  (994) 
CCCCCCCC(=O)O[C@H]1/C(=C/C(=O)OC)C[C@H]2C[C@H](CO)OC(=O)C[C@H](O)CCO[C@H](c3ccc(CCCOCCOCC)cc3)C[C@@H]3CCO[C@H](/C=C/C(C)(C)[C@]1(O)O2)O3

>  <Name>  (994) 
nan

>  <Pocket>  (994) 
nan

>  <ATP_Site>  (994) 
nan

>  <Peripheral>  (994) 
nan

>  <Num_H_Atoms_ProtBoundConf>  (994) 
nan

>  <Num_Resolved_Atoms>  (994) 
nan

>  <Num_Not_Resolved_Atoms>  (994) 
nan

$$$$
CHEMBL3674585
     RDKit          3D

  0  0  0  0  0  0  0  0  0  0999 V3000
M  V30 BEGIN CTAB
M  V30 COUNTS 124 128 0 0 0
M  V30 BEGIN ATOM
M  V30 1 C 6.943286 -0.482965 0.197752 0
M  V30 2 C 6.226152 -1.182876 -0.970910 0
M  V30 3 C 5.591488 -2.452671 -0.526797 0
M  V30 4 C 4.845000 -3.198628 -1.649790 0
M  V30 5 C 5.763204 -3.563287 -2.757987 0
M  V30 6 C 5.257004 -4.283214 -3.946858 0
M  V30 7 C 4.190086 -3.629261 -4.767263 0
M  V30 8 C 2.933286 -3.553210 -3.999389 0
M  V30 9 O 2.952599 -4.535541 -3.216470 0
M  V30 10 O 1.840144 -2.702751 -3.966476 0
M  V30 11 C 0.794074 -2.923402 -3.095291 0 CFG=1
M  V30 12 C 0.516292 -1.861672 -2.109922 0
M  V30 13 C 1.072432 -0.743840 -2.424320 0
M  V30 14 C 0.802622 0.298202 -1.462529 0
M  V30 15 O 0.240980 0.621503 -0.397910 0
M  V30 16 O 1.289441 1.570880 -1.597895 0
M  V30 17 C 1.098990 2.657633 -0.744970 0
M  V30 18 C -0.357038 -2.340967 -0.969028 0
M  V30 19 C -0.962013 -3.640460 -1.400080 0 CFG=1
M  V30 20 C -2.209789 -3.913383 -0.607550 0
M  V30 21 C -1.972699 -4.143065 0.844983 0 CFG=2
M  V30 22 C -3.363454 -4.467438 1.504351 0
M  V30 23 O -3.107713 -4.651695 2.834883 0
M  V30 24 O -1.472498 -2.996384 1.458482 0
M  V30 25 C -0.483415 -2.836665 2.395595 0
M  V30 26 O 0.163409 -3.782550 2.905747 0
M  V30 27 C -0.360507 -1.383738 2.640913 0
M  V30 28 C -1.007818 -0.838393 3.861711 0 CFG=2
M  V30 29 O -0.202226 -1.412245 4.936167 0
M  V30 30 C -2.366025 -1.235184 4.189162 0
M  V30 31 C -3.579025 -1.005815 3.398683 0
M  V30 32 O -3.949542 0.239197 3.053813 0
M  V30 33 C -3.242412 0.938124 2.123222 0 CFG=2
M  V30 34 C -2.741030 2.218352 2.624783 0
M  V30 35 C -1.457947 2.694744 2.421292 0
M  V30 36 C -1.108491 3.941839 2.952997 0
M  V30 37 C -1.998144 4.709489 3.671834 0
M  V30 38 C -1.587452 6.003359 4.202908 0
M  V30 39 C -0.653340 6.640077 3.401027 0
M  V30 40 C -0.131856 7.894088 3.744679 0
M  V30 41 C -0.567026 8.493696 4.906826 0
M  V30 42 C -1.496706 7.850194 5.695795 0
M  V30 43 C -2.019991 6.608026 5.365739 0
M  V30 44 C -3.270062 4.195359 3.851593 0
M  V30 45 C -3.664489 2.972369 3.347797 0
M  V30 46 C -4.059742 1.105291 0.831251 0
M  V30 47 C -3.220743 1.705385 -0.280668 0 CFG=2
M  V30 48 C -4.075919 2.615407 -1.131466 0
M  V30 49 C -5.030467 1.726613 -1.920891 0
M  V30 50 O -4.350035 0.841843 -2.717761 0
M  V30 51 C -3.005733 0.684198 -2.379670 0 CFG=2
M  V30 52 C -2.617053 -0.670799 -2.940523 0
M  V30 53 C -1.717881 -1.041201 -3.839620 0
M  V30 54 C -1.159766 -2.220481 -4.537087 0
M  V30 55 C -0.323428 -1.819433 -5.730610 0
M  V30 56 C -2.395771 -2.905724 -5.158315 0
M  V30 57 C -0.536504 -3.264143 -3.693212 0 CFG=1
M  V30 58 O -0.312012 -4.389178 -4.523215 0
M  V30 59 O -1.391545 -3.651817 -2.724309 0
M  V30 60 O -2.766523 0.669698 -1.048076 0
M  V30 61 H 7.114222 -1.153260 1.044348 0
M  V30 62 H 7.886856 -0.001474 -0.125346 0
M  V30 63 H 6.310112 0.362025 0.571643 0
M  V30 64 H 5.515930 -0.440852 -1.378934 0
M  V30 65 H 7.025366 -1.316275 -1.730072 0
M  V30 66 H 6.349041 -3.113913 -0.092293 0
M  V30 67 H 4.877456 -2.211495 0.285284 0
M  V30 68 H 4.436908 -4.103128 -1.113837 0
M  V30 69 H 4.009764 -2.541208 -1.879297 0
M  V30 70 H 6.438077 -2.703386 -3.039237 0
M  V30 71 H 6.519502 -4.280930 -2.282670 0
M  V30 72 H 4.770855 -5.234914 -3.544983 0
M  V30 73 H 6.081948 -4.695268 -4.581571 0
M  V30 74 H 4.068266 -4.238526 -5.693510 0
M  V30 75 H 4.545375 -2.595988 -5.026836 0
M  V30 76 H 1.057963 -3.848106 -2.506608 0
M  V30 77 H 1.667926 -0.512601 -3.255262 0
M  V30 78 H 1.391828 3.627556 -1.240515 0
M  V30 79 H 0.065411 2.727361 -0.401824 0
M  V30 80 H 1.800852 2.540877 0.127416 0
M  V30 81 H -1.040175 -1.582827 -0.606555 0
M  V30 82 H 0.439876 -2.627422 -0.209935 0
M  V30 83 H -0.298291 -4.522361 -1.155605 0
M  V30 84 H -2.717085 -4.842401 -1.043627 0
M  V30 85 H -2.990609 -3.129319 -0.791469 0
M  V30 86 H -1.402306 -5.048255 1.046032 0
M  V30 87 H -3.647543 -5.406496 1.027409 0
M  V30 88 H -4.062752 -3.667668 1.312026 0
M  V30 89 H -3.888629 -4.538477 3.424619 0
M  V30 90 H 0.809457 -1.187747 2.789847 0
M  V30 91 H -0.525248 -0.735474 1.786549 0
M  V30 92 H -0.792796 0.253933 4.000945 0
M  V30 93 H 0.713183 -1.122256 4.702969 0
M  V30 94 H -2.529788 -0.850295 5.281527 0
M  V30 95 H -2.292198 -2.372076 4.453666 0
M  V30 96 H -3.508657 -1.679865 2.472099 0
M  V30 97 H -4.412762 -1.549751 3.960847 0
M  V30 98 H -2.395043 0.337792 1.783835 0
M  V30 99 H -0.759052 2.096632 1.860597 0
M  V30 100 H -0.089285 4.256246 2.757577 0
M  V30 101 H -0.234547 6.272139 2.465462 0
M  V30 102 H 0.600157 8.419437 3.139563 0
M  V30 103 H -0.204657 9.454603 5.225233 0
M  V30 104 H -1.901839 8.242952 6.632848 0
M  V30 105 H -2.737163 6.029070 5.900164 0
M  V30 106 H -3.926954 4.848435 4.426601 0
M  V30 107 H -4.674481 2.691646 3.557725 0
M  V30 108 H -4.936998 1.732258 0.962749 0
M  V30 109 H -4.410864 0.110617 0.504022 0
M  V30 110 H -2.407733 2.339718 0.141108 0
M  V30 111 H -4.714568 3.272472 -0.497906 0
M  V30 112 H -3.486091 3.251052 -1.803436 0
M  V30 113 H -5.724213 1.221656 -1.208763 0
M  V30 114 H -5.642274 2.390705 -2.550257 0
M  V30 115 H -2.452326 1.479901 -2.938179 0
M  V30 116 H -3.265293 -1.404723 -2.435000 0
M  V30 117 H -1.243109 -0.083499 -4.140350 0
M  V30 118 H -0.019667 -0.748900 -5.536504 0
M  V30 119 H -0.915456 -1.759038 -6.663922 0
M  V30 120 H 0.529759 -2.468204 -5.905215 0
M  V30 121 H -3.173728 -2.164167 -5.393489 0
M  V30 122 H -2.100901 -3.407686 -6.120512 0
M  V30 123 H -2.823914 -3.633664 -4.436666 0
M  V30 124 H 0.585764 -4.327103 -4.889417 0
M  V30 END ATOM
M  V30 BEGIN BOND
M  V30 1 1 1 2
M  V30 2 1 2 3
M  V30 3 1 3 4
M  V30 4 1 4 5
M  V30 5 1 5 6
M  V30 6 1 6 7
M  V30 7 1 7 8
M  V30 8 2 8 9
M  V30 9 1 8 10
M  V30 10 1 10 11
M  V30 11 1 11 12
M  V30 12 2 12 13
M  V30 13 1 13 14
M  V30 14 2 14 15
M  V30 15 1 14 16
M  V30 16 1 16 17
M  V30 17 1 12 18
M  V30 18 1 18 19
M  V30 19 1 19 20
M  V30 20 1 20 21
M  V30 21 1 21 22
M  V30 22 1 22 23
M  V30 23 1 21 24
M  V30 24 1 24 25
M  V30 25 2 25 26
M  V30 26 1 25 27
M  V30 27 1 27 28
M  V30 28 1 28 29
M  V30 29 1 28 30
M  V30 30 1 30 31
M  V30 31 1 31 32
M  V30 32 1 32 33
M  V30 33 1 33 34
M  V30 34 2 34 35
M  V30 35 1 35 36
M  V30 36 2 36 37
M  V30 37 1 37 38
M  V30 38 2 38 39
M  V30 39 1 39 40
M  V30 40 2 40 41
M  V30 41 1 41 42
M  V30 42 2 42 43
M  V30 43 1 37 44
M  V30 44 2 44 45
M  V30 45 1 33 46
M  V30 46 1 46 47
M  V30 47 1 47 48
M  V30 48 1 48 49
M  V30 49 1 49 50
M  V30 50 1 50 51
M  V30 51 1 51 52
M  V30 52 2 52 53
M  V30 53 1 53 54
M  V30 54 1 54 55
M  V30 55 1 54 56
M  V30 56 1 54 57
M  V30 57 1 57 58 CFG=3
M  V30 58 1 57 59
M  V30 59 1 51 60
M  V30 60 1 57 11
M  V30 61 1 59 19
M  V30 62 1 45 34
M  V30 63 1 60 47
M  V30 64 1 43 38
M  V30 65 1 1 61
M  V30 66 1 1 62
M  V30 67 1 1 63
M  V30 68 1 2 64
M  V30 69 1 2 65
M  V30 70 1 3 66
M  V30 71 1 3 67
M  V30 72 1 4 68
M  V30 73 1 4 69
M  V30 74 1 5 70
M  V30 75 1 5 71
M  V30 76 1 6 72
M  V30 77 1 6 73
M  V30 78 1 7 74
M  V30 79 1 7 75
M  V30 80 1 11 76 CFG=1
M  V30 81 1 13 77
M  V30 82 1 17 78
M  V30 83 1 17 79
M  V30 84 1 17 80
M  V30 85 1 18 81
M  V30 86 1 18 82
M  V30 87 1 19 83 CFG=3
M  V30 88 1 20 84
M  V30 89 1 20 85
M  V30 90 1 21 86 CFG=3
M  V30 91 1 22 87
M  V30 92 1 22 88
M  V30 93 1 23 89
M  V30 94 1 27 90
M  V30 95 1 27 91
M  V30 96 1 28 92 CFG=3
M  V30 97 1 29 93
M  V30 98 1 30 94
M  V30 99 1 30 95
M  V30 100 1 31 96
M  V30 101 1 31 97
M  V30 102 1 33 98 CFG=3
M  V30 103 1 35 99
M  V30 104 1 36 100
M  V30 105 1 39 101
M  V30 106 1 40 102
M  V30 107 1 41 103
M  V30 108 1 42 104
M  V30 109 1 43 105
M  V30 110 1 44 106
M  V30 111 1 45 107
M  V30 112 1 46 108
M  V30 113 1 46 109
M  V30 114 1 47 110 CFG=1
M  V30 115 1 48 111
M  V30 116 1 48 112
M  V30 117 1 49 113
M  V30 118 1 49 114
M  V30 119 1 51 115 CFG=3
M  V30 120 1 52 116
M  V30 121 1 53 117
M  V30 122 1 55 118
M  V30 123 1 55 119
M  V30 124 1 55 120
M  V30 125 1 56 121
M  V30 126 1 56 122
M  V30 127 1 56 123
M  V30 128 1 58 124
M  V30 END BOND
M  V30 END CTAB
M  END
>  <Dataset>  (995) 
ChEMBL_Kinases

>  <Ligand_Instance>  (995) 
nan

>  <PDB_ID>  (995) 
nan

>  <Standardized_SMILES>  (995) 
CCCCCCCC(=O)O[C@H]1/C(=C/C(=O)OC)C[C@H]2C[C@H](CO)OC(=O)C[C@H](O)CCO[C@H](c3ccc(-c4ccccc4)cc3)C[C@@H]3CCO[C@H](/C=C/C(C)(C)[C@]1(O)O2)O3

>  <Name>  (995) 
nan

>  <Pocket>  (995) 
nan

>  <ATP_Site>  (995) 
nan

>  <Peripheral>  (995) 
nan

>  <Num_H_Atoms_ProtBoundConf>  (995) 
nan

>  <Num_Resolved_Atoms>  (995) 
nan

>  <Num_Not_Resolved_Atoms>  (995) 
nan

$$$$
CHEMBL3674584
     RDKit          3D

  0  0  0  0  0  0  0  0  0  0999 V3000
M  V30 BEGIN CTAB
M  V30 COUNTS 114 117 0 0 0
M  V30 BEGIN ATOM
M  V30 1 C 5.165166 -4.298704 2.055295 0
M  V30 2 C 4.061560 -3.758897 2.935982 0
M  V30 3 C 3.863195 -2.280697 2.636296 0
M  V30 4 C 3.487453 -2.169325 1.203439 0
M  V30 5 C 3.251818 -0.723525 0.736807 0
M  V30 6 C 2.905706 -0.831666 -0.711171 0
M  V30 7 C 2.642899 0.407470 -1.452893 0
M  V30 8 C 1.560628 1.288773 -1.070514 0
M  V30 9 O 1.567216 2.058525 -0.077945 0
M  V30 10 O 0.471977 1.251879 -1.889830 0
M  V30 11 C -0.707273 2.025455 -1.797794 0 CFG=1
M  V30 12 C -0.583924 2.835984 -3.111426 0
M  V30 13 C -0.611817 4.142418 -3.091577 0
M  V30 14 C -0.488125 4.804550 -4.371571 0
M  V30 15 O -0.355578 4.773953 -5.612843 0
M  V30 16 O -0.495983 6.183419 -4.526305 0
M  V30 17 C -0.375791 6.846672 -5.774142 0
M  V30 18 C -0.438111 1.912854 -4.279974 0
M  V30 19 C -1.381750 0.750310 -4.204074 0 CFG=1
M  V30 20 C -1.112063 -0.338614 -5.182900 0
M  V30 21 C -0.615415 -1.639072 -4.680210 0 CFG=2
M  V30 22 C -0.517565 -2.545514 -5.949952 0
M  V30 23 O 0.004404 -3.776478 -5.568573 0
M  V30 24 O -1.451946 -2.251814 -3.755085 0
M  V30 25 C -0.960993 -2.848339 -2.609052 0
M  V30 26 O 0.296105 -2.753294 -2.597216 0
M  V30 27 C -1.442068 -3.550142 -1.411134 0
M  V30 28 C -0.269926 -4.132430 -0.688166 0 CFG=2
M  V30 29 O 0.258500 -5.188634 -1.350014 0
M  V30 30 C -0.459669 -4.364082 0.781128 0
M  V30 31 C -0.625259 -3.081226 1.521514 0
M  V30 32 O -0.829571 -3.174399 2.906351 0
M  V30 33 C -0.903969 -1.805027 3.284418 0 CFG=2
M  V30 34 C 0.081018 -1.485555 4.334664 0
M  V30 35 C 0.969743 -0.450048 4.494916 0
M  V30 36 C 1.816173 -0.319138 5.563437 0
M  V30 37 C 1.806627 -1.281222 6.580280 0
M  V30 38 Br 3.005801 -1.041430 8.038684 0
M  V30 39 C 0.914190 -2.341676 6.440223 0
M  V30 40 C 0.071210 -2.448561 5.350709 0
M  V30 41 C -2.306599 -1.462931 3.808550 0
M  V30 42 C -2.256749 0.071547 3.957774 0 CFG=2
M  V30 43 C -3.681007 0.564002 3.949262 0
M  V30 44 C -3.752825 2.063636 3.801953 0
M  V30 45 O -2.482858 2.604001 3.617229 0
M  V30 46 C -1.757843 1.903431 2.680608 0 CFG=2
M  V30 47 C -2.496546 2.008052 1.348052 0
M  V30 48 C -2.251574 1.051831 0.414881 0
M  V30 49 C -2.846498 0.936054 -0.944408 0
M  V30 50 C -4.090984 1.859536 -0.875709 0
M  V30 51 C -3.476062 -0.456014 -1.123497 0
M  V30 52 C -1.978871 1.282357 -2.073447 0 CFG=1
M  V30 53 O -2.794020 2.110370 -2.929539 0
M  V30 54 O -1.615646 0.240651 -2.943103 0
M  V30 55 O -1.586398 0.570657 2.870537 0
M  V30 56 H 4.759335 -4.700234 1.107392 0
M  V30 57 H 5.695326 -5.155685 2.554897 0
M  V30 58 H 5.892862 -3.484022 1.791314 0
M  V30 59 H 4.323355 -3.877780 3.985422 0
M  V30 60 H 3.136061 -4.315135 2.619220 0
M  V30 61 H 3.190206 -1.846892 3.365693 0
M  V30 62 H 4.869171 -1.816526 2.832429 0
M  V30 63 H 2.652170 -2.818919 0.900095 0
M  V30 64 H 4.365004 -2.517287 0.588615 0
M  V30 65 H 2.460449 -0.227100 1.292190 0
M  V30 66 H 4.220772 -0.209717 0.839926 0
M  V30 67 H 3.828276 -1.293988 -1.195843 0
M  V30 68 H 2.131183 -1.624977 -0.898728 0
M  V30 69 H 3.619183 1.011408 -1.412457 0
M  V30 70 H 2.621534 0.126826 -2.551141 0
M  V30 71 H -0.729524 2.725405 -0.955716 0
M  V30 72 H -0.717590 4.735944 -2.209647 0
M  V30 73 H 0.629861 6.645653 -6.199726 0
M  V30 74 H -1.218414 6.573465 -6.415390 0
M  V30 75 H -0.471859 7.945489 -5.532172 0
M  V30 76 H 0.593146 1.513221 -4.365166 0
M  V30 77 H -0.636638 2.502892 -5.192100 0
M  V30 78 H -2.388733 1.187556 -4.523497 0
M  V30 79 H -2.021129 -0.545013 -5.837315 0
M  V30 80 H -0.344019 0.010384 -5.946105 0
M  V30 81 H 0.453959 -1.569961 -4.385645 0
M  V30 82 H -1.538485 -2.615329 -6.374875 0
M  V30 83 H 0.177818 -2.075724 -6.658064 0
M  V30 84 H 0.963669 -3.872299 -5.805297 0
M  V30 85 H -2.137804 -4.389113 -1.711544 0
M  V30 86 H -2.004006 -2.904748 -0.727820 0
M  V30 87 H 0.505842 -3.276364 -0.700838 0
M  V30 88 H -0.465573 -5.776495 -1.702182 0
M  V30 89 H -1.278373 -5.087906 0.976584 0
M  V30 90 H 0.464180 -4.860902 1.141188 0
M  V30 91 H 0.291299 -2.460987 1.354741 0
M  V30 92 H -1.526200 -2.513288 1.159737 0
M  V30 93 H -0.716091 -1.232786 2.358842 0
M  V30 94 H 0.948384 0.258932 3.688217 0
M  V30 95 H 2.453238 0.559305 5.533341 0
M  V30 96 H 0.948546 -3.066419 7.266104 0
M  V30 97 H -0.550853 -3.346338 5.423177 0
M  V30 98 H -3.098841 -1.773307 3.111480 0
M  V30 99 H -2.464001 -1.865670 4.818431 0
M  V30 100 H -1.698713 0.335865 4.874014 0
M  V30 101 H -4.141361 0.256308 4.919071 0
M  V30 102 H -4.231186 0.038828 3.151910 0
M  V30 103 H -4.319197 2.280285 2.878788 0
M  V30 104 H -4.295669 2.506254 4.648091 0
M  V30 105 H -0.766706 2.377863 2.470460 0
M  V30 106 H -3.185138 2.864403 1.227503 0
M  V30 107 H -1.555137 0.259676 0.628083 0
M  V30 108 H -3.774983 2.867111 -1.163243 0
M  V30 109 H -4.502892 1.797821 0.140707 0
M  V30 110 H -4.905785 1.446632 -1.531792 0
M  V30 111 H -3.380968 -1.031557 -0.184152 0
M  V30 112 H -4.560139 -0.409223 -1.340602 0
M  V30 113 H -3.005329 -0.902557 -1.992191 0
M  V30 114 H -3.661876 1.704005 -3.068689 0
M  V30 END ATOM
M  V30 BEGIN BOND
M  V30 1 1 1 2
M  V30 2 1 2 3
M  V30 3 1 3 4
M  V30 4 1 4 5
M  V30 5 1 5 6
M  V30 6 1 6 7
M  V30 7 1 7 8
M  V30 8 2 8 9
M  V30 9 1 8 10
M  V30 10 1 10 11
M  V30 11 1 11 12
M  V30 12 2 12 13
M  V30 13 1 13 14
M  V30 14 2 14 15
M  V30 15 1 14 16
M  V30 16 1 16 17
M  V30 17 1 12 18
M  V30 18 1 18 19
M  V30 19 1 19 20
M  V30 20 1 20 21
M  V30 21 1 21 22
M  V30 22 1 22 23
M  V30 23 1 21 24
M  V30 24 1 24 25
M  V30 25 2 25 26
M  V30 26 1 25 27
M  V30 27 1 27 28
M  V30 28 1 28 29
M  V30 29 1 28 30
M  V30 30 1 30 31
M  V30 31 1 31 32
M  V30 32 1 32 33
M  V30 33 1 33 34
M  V30 34 2 34 35
M  V30 35 1 35 36
M  V30 36 2 36 37
M  V30 37 1 37 38
M  V30 38 1 37 39
M  V30 39 2 39 40
M  V30 40 1 33 41
M  V30 41 1 41 42
M  V30 42 1 42 43
M  V30 43 1 43 44
M  V30 44 1 44 45
M  V30 45 1 45 46
M  V30 46 1 46 47
M  V30 47 2 47 48
M  V30 48 1 48 49
M  V30 49 1 49 50
M  V30 50 1 49 51
M  V30 51 1 49 52
M  V30 52 1 52 53 CFG=3
M  V30 53 1 52 54
M  V30 54 1 46 55
M  V30 55 1 52 11
M  V30 56 1 54 19
M  V30 57 1 40 34
M  V30 58 1 55 42
M  V30 59 1 1 56
M  V30 60 1 1 57
M  V30 61 1 1 58
M  V30 62 1 2 59
M  V30 63 1 2 60
M  V30 64 1 3 61
M  V30 65 1 3 62
M  V30 66 1 4 63
M  V30 67 1 4 64
M  V30 68 1 5 65
M  V30 69 1 5 66
M  V30 70 1 6 67
M  V30 71 1 6 68
M  V30 72 1 7 69
M  V30 73 1 7 70
M  V30 74 1 11 71 CFG=1
M  V30 75 1 13 72
M  V30 76 1 17 73
M  V30 77 1 17 74
M  V30 78 1 17 75
M  V30 79 1 18 76
M  V30 80 1 18 77
M  V30 81 1 19 78 CFG=3
M  V30 82 1 20 79
M  V30 83 1 20 80
M  V30 84 1 21 81 CFG=1
M  V30 85 1 22 82
M  V30 86 1 22 83
M  V30 87 1 23 84
M  V30 88 1 27 85
M  V30 89 1 27 86
M  V30 90 1 28 87 CFG=1
M  V30 91 1 29 88
M  V30 92 1 30 89
M  V30 93 1 30 90
M  V30 94 1 31 91
M  V30 95 1 31 92
M  V30 96 1 33 93 CFG=3
M  V30 97 1 35 94
M  V30 98 1 36 95
M  V30 99 1 39 96
M  V30 100 1 40 97
M  V30 101 1 41 98
M  V30 102 1 41 99
M  V30 103 1 42 100 CFG=1
M  V30 104 1 43 101
M  V30 105 1 43 102
M  V30 106 1 44 103
M  V30 107 1 44 104
M  V30 108 1 46 105 CFG=3
M  V30 109 1 47 106
M  V30 110 1 48 107
M  V30 111 1 50 108
M  V30 112 1 50 109
M  V30 113 1 50 110
M  V30 114 1 51 111
M  V30 115 1 51 112
M  V30 116 1 51 113
M  V30 117 1 53 114
M  V30 END BOND
M  V30 END CTAB
M  END
>  <Dataset>  (996) 
ChEMBL_Kinases

>  <Ligand_Instance>  (996) 
nan

>  <PDB_ID>  (996) 
nan

>  <Standardized_SMILES>  (996) 
CCCCCCCC(=O)O[C@H]1/C(=C/C(=O)OC)C[C@H]2C[C@H](CO)OC(=O)C[C@H](O)CCO[C@H](c3ccc(Br)cc3)C[C@@H]3CCO[C@H](/C=C/C(C)(C)[C@]1(O)O2)O3

>  <Name>  (996) 
nan

>  <Pocket>  (996) 
nan

>  <ATP_Site>  (996) 
nan

>  <Peripheral>  (996) 
nan

>  <Num_H_Atoms_ProtBoundConf>  (996) 
nan

>  <Num_Resolved_Atoms>  (996) 
nan

>  <Num_Not_Resolved_Atoms>  (996) 
nan

$$$$
CHEMBL3674583
     RDKit          3D

  0  0  0  0  0  0  0  0  0  0999 V3000
M  V30 BEGIN CTAB
M  V30 COUNTS 114 117 0 0 0
M  V30 BEGIN ATOM
M  V30 1 C -1.938897 -6.669854 3.485575 0
M  V30 2 C -1.185222 -6.158321 4.693267 0
M  V30 3 C -0.501729 -4.809363 4.328287 0
M  V30 4 C 0.232132 -4.326233 5.531448 0
M  V30 5 C 0.895326 -3.027219 5.532959 0
M  V30 6 C 1.952346 -2.667031 4.559811 0
M  V30 7 C 1.560673 -2.536574 3.144810 0
M  V30 8 C 2.749821 -2.165324 2.272112 0
M  V30 9 O 3.830401 -2.047213 2.931698 0
M  V30 10 O 2.463081 -2.018551 0.912404 0
M  V30 11 C 3.430872 -1.683998 -0.039678 0 CFG=1
M  V30 12 C 3.454415 -2.789332 -1.070403 0
M  V30 13 C 4.583508 -3.378197 -1.398303 0
M  V30 14 C 4.570978 -4.426865 -2.383079 0
M  V30 15 O 5.523630 -5.086915 -2.815127 0
M  V30 16 O 3.757863 -5.144370 -3.213619 0
M  V30 17 C 4.275193 -6.150561 -4.057178 0
M  V30 18 C 2.108699 -3.058614 -1.595858 0
M  V30 19 C 1.333918 -1.821642 -1.930711 0 CFG=1
M  V30 20 C -0.135246 -2.078763 -1.689417 0
M  V30 21 C -0.945344 -2.258264 -2.959234 0 CFG=2
M  V30 22 C -0.559999 -3.478365 -3.740368 0
M  V30 23 O -1.452226 -3.591670 -4.810876 0
M  V30 24 O -0.864426 -1.091951 -3.770272 0
M  V30 25 C -1.940505 -0.271762 -3.913203 0
M  V30 26 O -3.004654 -0.563360 -3.299540 0
M  V30 27 C -1.565934 0.849511 -4.824881 0
M  V30 28 C -2.689788 1.889547 -4.831673 0 CFG=2
M  V30 29 O -2.294187 2.844143 -5.775150 0
M  V30 30 C -2.585866 2.613126 -3.474986 0
M  V30 31 C -3.627281 3.671077 -3.295122 0
M  V30 32 O -3.521351 4.380544 -2.137235 0
M  V30 33 C -3.592354 3.682183 -0.952936 0 CFG=2
M  V30 34 C -4.764361 4.085809 -0.125970 0
M  V30 35 C -4.862971 5.478951 -0.048574 0
M  V30 36 C -5.897588 6.079686 0.677726 0
M  V30 37 C -6.807994 5.269709 1.308664 0
M  V30 38 C -6.707436 3.881951 1.229972 0
M  V30 39 C -5.688800 3.286132 0.514694 0
M  V30 40 C -2.282126 3.735247 -0.188773 0
M  V30 41 C -2.322861 2.986313 1.124481 0 CFG=2
M  V30 42 C -1.863289 3.869322 2.268075 0
M  V30 43 C -1.059210 3.045591 3.266663 0
M  V30 44 O -0.046135 2.457660 2.542953 0
M  V30 45 C -0.457582 1.614903 1.549132 0 CFG=2
M  V30 46 C 0.627884 1.535513 0.514770 0
M  V30 47 C 1.805364 0.963723 0.848102 0
M  V30 48 C 3.004522 0.782360 -0.014909 0
M  V30 49 C 3.053834 1.923967 -1.040023 0
M  V30 50 C 4.251759 0.866838 0.803787 0
M  V30 51 C 2.932704 -0.495178 -0.830518 0 CFG=1
M  V30 52 O 3.766495 -0.274813 -1.947632 0
M  V30 53 O 1.642794 -0.720932 -1.165682 0
M  V30 54 O -1.682821 1.796735 1.008400 0
M  V30 55 H -2.878164 -7.195717 3.781049 0
M  V30 56 H -2.115676 -5.883415 2.729153 0
M  V30 57 H -1.318568 -7.453067 2.984747 0
M  V30 58 H -1.854665 -5.943805 5.538728 0
M  V30 59 H -0.406600 -6.894075 4.968085 0
M  V30 60 H 0.301485 -5.159354 3.593550 0
M  V30 61 H -1.194156 -4.121101 3.859273 0
M  V30 62 H 0.925514 -5.168587 5.886695 0
M  V30 63 H -0.534985 -4.322126 6.391140 0
M  V30 64 H 1.258794 -2.819719 6.607051 0
M  V30 65 H 0.069951 -2.242101 5.447524 0
M  V30 66 H 2.508966 -1.729355 4.913938 0
M  V30 67 H 2.769733 -3.463235 4.694045 0
M  V30 68 H 1.033473 -3.367043 2.742925 0
M  V30 69 H 0.870704 -1.646282 3.081333 0
M  V30 70 H 4.445591 -1.540022 0.385890 0
M  V30 71 H 5.541782 -3.131506 -0.976789 0
M  V30 72 H 4.790783 -6.966431 -3.523503 0
M  V30 73 H 3.457097 -6.618000 -4.622975 0
M  V30 74 H 4.963243 -5.715790 -4.808482 0
M  V30 75 H 2.121184 -3.685563 -2.506757 0
M  V30 76 H 1.586304 -3.668444 -0.820244 0
M  V30 77 H 1.446115 -1.530545 -2.995079 0
M  V30 78 H -0.649979 -1.310647 -1.108174 0
M  V30 79 H -0.289213 -3.037695 -1.119991 0
M  V30 80 H -1.988647 -2.346028 -2.613606 0
M  V30 81 H 0.460288 -3.377712 -4.188950 0
M  V30 82 H -0.556016 -4.343437 -3.069810 0
M  V30 83 H -1.090255 -3.106978 -5.580139 0
M  V30 84 H -0.648746 1.346823 -4.402779 0
M  V30 85 H -1.334077 0.465409 -5.828269 0
M  V30 86 H -3.634283 1.412703 -5.009170 0
M  V30 87 H -2.883735 2.867411 -6.555341 0
M  V30 88 H -2.635654 1.820302 -2.703955 0
M  V30 89 H -1.550493 3.053384 -3.482788 0
M  V30 90 H -4.611747 3.115211 -3.232802 0
M  V30 91 H -3.695601 4.258852 -4.204664 0
M  V30 92 H -3.739877 2.614744 -1.214287 0
M  V30 93 H -4.195024 6.192034 -0.510772 0
M  V30 94 H -5.985597 7.175111 0.745330 0
M  V30 95 H -7.624045 5.703222 1.881822 0
M  V30 96 H -7.418689 3.208835 1.723036 0
M  V30 97 H -5.521900 2.225330 0.386033 0
M  V30 98 H -1.545167 3.243243 -0.833319 0
M  V30 99 H -1.996424 4.787295 0.054784 0
M  V30 100 H -3.404022 2.760924 1.309215 0
M  V30 101 H -1.238233 4.675115 1.838724 0
M  V30 102 H -2.685439 4.346087 2.816806 0
M  V30 103 H -0.559658 3.760226 3.968949 0
M  V30 104 H -1.686520 2.323148 3.800498 0
M  V30 105 H -0.464738 0.579353 2.018208 0
M  V30 106 H 0.569279 1.892815 -0.487178 0
M  V30 107 H 1.929205 0.575664 1.872141 0
M  V30 108 H 3.999929 1.887652 -1.602791 0
M  V30 109 H 2.246198 1.689350 -1.787883 0
M  V30 110 H 2.840082 2.900115 -0.599363 0
M  V30 111 H 4.096928 0.463949 1.824231 0
M  V30 112 H 5.132676 0.396798 0.298124 0
M  V30 113 H 4.508885 1.946075 0.929758 0
M  V30 114 H 3.204106 0.118506 -2.667134 0
M  V30 END ATOM
M  V30 BEGIN BOND
M  V30 1 1 1 2
M  V30 2 1 2 3
M  V30 3 1 3 4
M  V30 4 1 4 5
M  V30 5 1 5 6
M  V30 6 1 6 7
M  V30 7 1 7 8
M  V30 8 2 8 9
M  V30 9 1 8 10
M  V30 10 1 10 11
M  V30 11 1 11 12
M  V30 12 2 12 13
M  V30 13 1 13 14
M  V30 14 2 14 15
M  V30 15 1 14 16
M  V30 16 1 16 17
M  V30 17 1 12 18
M  V30 18 1 18 19
M  V30 19 1 19 20
M  V30 20 1 20 21
M  V30 21 1 21 22
M  V30 22 1 22 23
M  V30 23 1 21 24
M  V30 24 1 24 25
M  V30 25 2 25 26
M  V30 26 1 25 27
M  V30 27 1 27 28
M  V30 28 1 28 29
M  V30 29 1 28 30
M  V30 30 1 30 31
M  V30 31 1 31 32
M  V30 32 1 32 33
M  V30 33 1 33 34
M  V30 34 2 34 35
M  V30 35 1 35 36
M  V30 36 2 36 37
M  V30 37 1 37 38
M  V30 38 2 38 39
M  V30 39 1 33 40
M  V30 40 1 40 41
M  V30 41 1 41 42
M  V30 42 1 42 43
M  V30 43 1 43 44
M  V30 44 1 44 45
M  V30 45 1 45 46
M  V30 46 2 46 47
M  V30 47 1 47 48
M  V30 48 1 48 49
M  V30 49 1 48 50
M  V30 50 1 48 51
M  V30 51 1 51 52 CFG=3
M  V30 52 1 51 53
M  V30 53 1 45 54
M  V30 54 1 51 11
M  V30 55 1 53 19
M  V30 56 1 39 34
M  V30 57 1 54 41
M  V30 58 1 1 55
M  V30 59 1 1 56
M  V30 60 1 1 57
M  V30 61 1 2 58
M  V30 62 1 2 59
M  V30 63 1 3 60
M  V30 64 1 3 61
M  V30 65 1 4 62
M  V30 66 1 4 63
M  V30 67 1 5 64
M  V30 68 1 5 65
M  V30 69 1 6 66
M  V30 70 1 6 67
M  V30 71 1 7 68
M  V30 72 1 7 69
M  V30 73 1 11 70 CFG=1
M  V30 74 1 13 71
M  V30 75 1 17 72
M  V30 76 1 17 73
M  V30 77 1 17 74
M  V30 78 1 18 75
M  V30 79 1 18 76
M  V30 80 1 19 77 CFG=3
M  V30 81 1 20 78
M  V30 82 1 20 79
M  V30 83 1 21 80 CFG=1
M  V30 84 1 22 81
M  V30 85 1 22 82
M  V30 86 1 23 83
M  V30 87 1 27 84
M  V30 88 1 27 85
M  V30 89 1 28 86 CFG=3
M  V30 90 1 29 87
M  V30 91 1 30 88
M  V30 92 1 30 89
M  V30 93 1 31 90
M  V30 94 1 31 91
M  V30 95 1 33 92 CFG=3
M  V30 96 1 35 93
M  V30 97 1 36 94
M  V30 98 1 37 95
M  V30 99 1 38 96
M  V30 100 1 39 97
M  V30 101 1 40 98
M  V30 102 1 40 99
M  V30 103 1 41 100 CFG=1
M  V30 104 1 42 101
M  V30 105 1 42 102
M  V30 106 1 43 103
M  V30 107 1 43 104
M  V30 108 1 45 105 CFG=1
M  V30 109 1 46 106
M  V30 110 1 47 107
M  V30 111 1 49 108
M  V30 112 1 49 109
M  V30 113 1 49 110
M  V30 114 1 50 111
M  V30 115 1 50 112
M  V30 116 1 50 113
M  V30 117 1 52 114
M  V30 END BOND
M  V30 END CTAB
M  END
>  <Dataset>  (997) 
ChEMBL_Kinases

>  <Ligand_Instance>  (997) 
nan

>  <PDB_ID>  (997) 
nan

>  <Standardized_SMILES>  (997) 
CCCCCCCC(=O)O[C@H]1/C(=C/C(=O)OC)C[C@H]2C[C@H](CO)OC(=O)C[C@H](O)CCO[C@H](c3ccccc3)C[C@@H]3CCO[C@H](/C=C/C(C)(C)[C@]1(O)O2)O3

>  <Name>  (997) 
nan

>  <Pocket>  (997) 
nan

>  <ATP_Site>  (997) 
nan

>  <Peripheral>  (997) 
nan

>  <Num_H_Atoms_ProtBoundConf>  (997) 
nan

>  <Num_Resolved_Atoms>  (997) 
nan

>  <Num_Not_Resolved_Atoms>  (997) 
nan

$$$$
CHEMBL367390
     RDKit          3D

  0  0  0  0  0  0  0  0  0  0999 V3000
M  V30 BEGIN CTAB
M  V30 COUNTS 39 42 0 0 0
M  V30 BEGIN ATOM
M  V30 1 O 2.895564 -6.872762 5.176862 0
M  V30 2 C 2.204023 -6.363197 4.256945 0
M  V30 3 O 1.415023 -7.232211 3.515984 0
M  V30 4 C 2.233031 -4.929228 3.985878 0
M  V30 5 C 3.056351 -4.150808 4.786389 0
M  V30 6 C 3.024751 -2.796091 4.461066 0
M  V30 7 C 2.280656 -2.239850 3.469550 0
M  V30 8 N 2.112067 -0.986981 3.005153 0
M  V30 9 C 1.235157 -1.033201 1.985972 0
M  V30 10 C 0.729523 0.077793 1.156261 0
M  V30 11 C -0.185967 -0.133619 0.126962 0
M  V30 12 C -0.633488 0.931500 -0.624790 0
M  V30 13 C -0.144293 2.194750 -0.319510 0
M  V30 14 O -0.609578 3.232074 -1.086191 0
M  V30 15 C -1.507181 3.115263 -2.114638 0
M  V30 16 C -2.841724 3.234866 -1.762185 0
M  V30 17 C -3.843823 3.132816 -2.728432 0
M  V30 18 C -3.537013 2.909011 -4.068902 0
M  V30 19 C -2.202144 2.792546 -4.401124 0
M  V30 20 C -1.198788 2.891445 -3.454699 0
M  V30 21 C 0.761303 2.458947 0.686949 0
M  V30 22 C 1.198455 1.362314 1.433238 0
M  V30 23 N 0.847235 -2.316718 1.803848 0
M  V30 24 C 1.479005 -3.077235 2.707014 0
M  V30 25 C 1.451456 -4.436247 2.963840 0
M  V30 26 H 0.977909 -8.069783 3.908647 0
M  V30 27 H 3.656082 -4.566092 5.578508 0
M  V30 28 H 3.645627 -2.123371 5.046509 0
M  V30 29 H 2.579374 -0.131398 3.371479 0
M  V30 30 H -0.518552 -1.143729 -0.048402 0
M  V30 31 H -1.344139 0.788569 -1.428290 0
M  V30 32 H -3.159707 3.409196 -0.742600 0
M  V30 33 H -4.890646 3.222792 -2.476619 0
M  V30 34 H -4.342178 2.835678 -4.789693 0
M  V30 35 H -1.952567 2.618792 -5.438278 0
M  V30 36 H -0.154573 2.802692 -3.699489 0
M  V30 37 H 1.129556 3.439227 0.910516 0
M  V30 38 H 1.909829 1.585028 2.220611 0
M  V30 39 H 0.831349 -5.073583 2.371772 0
M  V30 END ATOM
M  V30 BEGIN BOND
M  V30 1 2 1 2
M  V30 2 1 2 3
M  V30 3 1 2 4
M  V30 4 2 4 5
M  V30 5 1 5 6
M  V30 6 2 6 7
M  V30 7 1 7 8
M  V30 8 1 8 9
M  V30 9 1 9 10
M  V30 10 2 10 11
M  V30 11 1 11 12
M  V30 12 2 12 13
M  V30 13 1 13 14
M  V30 14 1 14 15
M  V30 15 2 15 16
M  V30 16 1 16 17
M  V30 17 2 17 18
M  V30 18 1 18 19
M  V30 19 2 19 20
M  V30 20 1 13 21
M  V30 21 2 21 22
M  V30 22 2 9 23
M  V30 23 1 23 24
M  V30 24 2 24 25
M  V30 25 1 25 4
M  V30 26 1 24 7
M  V30 27 1 22 10
M  V30 28 1 20 15
M  V30 29 1 3 26
M  V30 30 1 5 27
M  V30 31 1 6 28
M  V30 32 1 8 29
M  V30 33 1 11 30
M  V30 34 1 12 31
M  V30 35 1 16 32
M  V30 36 1 17 33
M  V30 37 1 18 34
M  V30 38 1 19 35
M  V30 39 1 20 36
M  V30 40 1 21 37
M  V30 41 1 22 38
M  V30 42 1 25 39
M  V30 END BOND
M  V30 END CTAB
M  END
>  <Dataset>  (998) 
ChEMBL_Kinases

>  <Ligand_Instance>  (998) 
nan

>  <PDB_ID>  (998) 
nan

>  <Standardized_SMILES>  (998) 
O=C(O)c1ccc2[nH]c(-c3ccc(Oc4ccccc4)cc3)nc2c1

>  <Name>  (998) 
nan

>  <Pocket>  (998) 
nan

>  <ATP_Site>  (998) 
nan

>  <Peripheral>  (998) 
nan

>  <Num_H_Atoms_ProtBoundConf>  (998) 
nan

>  <Num_Resolved_Atoms>  (998) 
nan

>  <Num_Not_Resolved_Atoms>  (998) 
nan

$$$$
CHEMBL3673650
     RDKit          3D

  0  0  0  0  0  0  0  0  0  0999 V3000
M  V30 BEGIN CTAB
M  V30 COUNTS 54 57 0 0 0
M  V30 BEGIN ATOM
M  V30 1 C 2.084557 -2.790917 4.170426 0
M  V30 2 C 3.121734 -2.045992 3.323269 0
M  V30 3 C 3.386585 -0.723459 3.970858 0
M  V30 4 C 4.314969 -2.942913 3.229181 0
M  V30 5 N 5.517300 -2.308725 2.771308 0
M  V30 6 C 5.675117 -1.184631 1.897658 0
M  V30 7 O 6.808282 -0.726460 1.651238 0
M  V30 8 C 4.573238 -0.474048 1.222093 0
M  V30 9 C 4.813605 0.638741 0.422894 0
M  V30 10 C 3.587281 1.078155 -0.066574 0
M  V30 11 C 3.131076 2.092794 -0.884143 0
M  V30 12 C 1.778440 2.222454 -1.158950 0
M  V30 13 C 0.897807 1.319653 -0.600797 0
M  V30 14 C -0.509676 1.519058 -0.934946 0
M  V30 15 O -0.944512 2.428911 -1.671224 0
M  V30 16 N -1.407316 0.582651 -0.354317 0
M  V30 17 C -2.813671 0.393604 -0.398394 0
M  V30 18 C -3.493926 -0.390830 -1.330700 0
M  V30 19 C -4.848192 -0.326513 -1.049261 0
M  V30 20 C -5.949356 -1.018645 -1.799034 0
M  V30 21 C -6.446669 -0.119490 -2.913984 0
M  V30 22 C -7.103933 -1.334996 -0.894681 0
M  V30 23 C -5.422231 -2.309971 -2.375395 0
M  V30 24 O -4.947109 0.454461 -0.008222 0
M  V30 25 N -3.783123 0.881308 0.383671 0
M  V30 26 N 1.371072 0.339588 0.193206 0
M  V30 27 C 2.677726 0.197812 0.471000 0
M  V30 28 N 3.271203 -0.749108 1.256098 0
M  V30 29 C 2.531152 -1.794145 1.938986 0
M  V30 30 H 2.565357 -3.234661 5.058345 0
M  V30 31 H 1.291091 -2.121927 4.523653 0
M  V30 32 H 1.633356 -3.600180 3.530797 0
M  V30 33 H 3.182019 -0.719610 5.059797 0
M  V30 34 H 2.658936 0.015992 3.541111 0
M  V30 35 H 4.400351 -0.338514 3.830736 0
M  V30 36 H 4.510117 -3.432710 4.200456 0
M  V30 37 H 4.067746 -3.725525 2.456863 0
M  V30 38 H 6.429000 -2.679185 3.089547 0
M  V30 39 H 5.756684 1.119674 0.187938 0
M  V30 40 H 3.904508 2.743456 -1.268133 0
M  V30 41 H 1.460942 3.035964 -1.808088 0
M  V30 42 H -1.080485 -0.200732 0.273324 0
M  V30 43 H -3.015406 -0.954678 -2.141481 0
M  V30 44 H -5.555527 0.136872 -3.515248 0
M  V30 45 H -7.241605 -0.628622 -3.461273 0
M  V30 46 H -6.778753 0.831561 -2.448920 0
M  V30 47 H -7.256105 -0.625388 -0.066947 0
M  V30 48 H -8.019696 -1.417839 -1.534793 0
M  V30 49 H -6.968815 -2.377969 -0.488287 0
M  V30 50 H -4.631016 -2.752340 -1.711625 0
M  V30 51 H -6.255412 -3.041348 -2.386144 0
M  V30 52 H -5.039507 -2.185292 -3.409592 0
M  V30 53 H 2.523076 -2.753092 1.344366 0
M  V30 54 H 1.478678 -1.525708 2.091032 0
M  V30 END ATOM
M  V30 BEGIN BOND
M  V30 1 1 1 2
M  V30 2 1 2 3
M  V30 3 1 2 4
M  V30 4 1 4 5
M  V30 5 1 5 6
M  V30 6 2 6 7
M  V30 7 1 6 8
M  V30 8 2 8 9
M  V30 9 1 9 10
M  V30 10 2 10 11
M  V30 11 1 11 12
M  V30 12 2 12 13
M  V30 13 1 13 14
M  V30 14 2 14 15
M  V30 15 1 14 16
M  V30 16 1 16 17
M  V30 17 1 17 18
M  V30 18 2 18 19
M  V30 19 1 19 20
M  V30 20 1 20 21
M  V30 21 1 20 22
M  V30 22 1 20 23
M  V30 23 1 19 24
M  V30 24 1 24 25
M  V30 25 1 13 26
M  V30 26 2 26 27
M  V30 27 1 27 28
M  V30 28 1 28 29
M  V30 29 1 29 2
M  V30 30 1 28 8
M  V30 31 1 27 10
M  V30 32 2 25 17
M  V30 33 1 1 30
M  V30 34 1 1 31
M  V30 35 1 1 32
M  V30 36 1 3 33
M  V30 37 1 3 34
M  V30 38 1 3 35
M  V30 39 1 4 36
M  V30 40 1 4 37
M  V30 41 1 5 38
M  V30 42 1 9 39
M  V30 43 1 11 40
M  V30 44 1 12 41
M  V30 45 1 16 42
M  V30 46 1 18 43
M  V30 47 1 21 44
M  V30 48 1 21 45
M  V30 49 1 21 46
M  V30 50 1 22 47
M  V30 51 1 22 48
M  V30 52 1 22 49
M  V30 53 1 23 50
M  V30 54 1 23 51
M  V30 55 1 23 52
M  V30 56 1 29 53
M  V30 57 1 29 54
M  V30 END BOND
M  V30 END CTAB
M  END
>  <Dataset>  (999) 
ChEMBL_Kinases

>  <Ligand_Instance>  (999) 
nan

>  <PDB_ID>  (999) 
nan

>  <Standardized_SMILES>  (999) 
CC1(C)CNC(=O)c2cc3ccc(C(=O)Nc4cc(C(C)(C)C)on4)nc3n2C1

>  <Name>  (999) 
nan

>  <Pocket>  (999) 
nan

>  <ATP_Site>  (999) 
nan

>  <Peripheral>  (999) 
nan

>  <Num_H_Atoms_ProtBoundConf>  (999) 
nan

>  <Num_Resolved_Atoms>  (999) 
nan

>  <Num_Not_Resolved_Atoms>  (999) 
nan

$$$$
